# generated using pymatgen
data_V93Zn93O256
_symmetry_space_group_name_H-M   'P 1'
_cell_length_a   17.04898281
_cell_length_b   17.04993401
_cell_length_c   17.05272478
_cell_angle_alpha   89.94848352
_cell_angle_beta   90.09291839
_cell_angle_gamma   89.94980823
_symmetry_Int_Tables_number   1
_chemical_formula_structural   V93Zn93O256
_chemical_formula_sum   'V93 Zn93 O256'
_cell_volume   4956.94436118
_cell_formula_units_Z   1
loop_
 _symmetry_equiv_pos_site_id
 _symmetry_equiv_pos_as_xyz
  1  'x, y, z'
loop_
 _atom_site_type_symbol
 _atom_site_label
 _atom_site_symmetry_multiplicity
 _atom_site_fract_x
 _atom_site_fract_y
 _atom_site_fract_z
 _atom_site_occupancy
  V  V0  1  0.12330920  -0.00082011  0.12628209  1
  V  V1  1  0.37605576  0.87347311  0.00019498  1
  V  V2  1  0.24980239  0.00117393  0.25128650  1
  V  V3  1  0.49255379  0.12904519  0.12333839  1
  V  V4  1  0.37482411  0.00133015  0.37446061  1
  V  V5  1  0.87506446  0.24951170  0.62623243  1
  V  V6  1  0.62435447  0.87633377  0.25007669  1
  V  V7  1  0.87351399  0.62639989  0.25030997  1
  V  V8  1  0.12490685  0.12394028  0.50224001  1
  V  V9  1  0.61676556  0.25307962  0.87021118  1
  V  V10  1  0.74731912  0.25094987  -0.00112055  1
  V  V11  1  0.25110765  0.24932532  0.50067124  1
  V  V12  1  0.75008780  0.75069589  -0.00169478  1
  V  V13  1  0.74634009  0.37916906  0.12350844  1
  V  V14  1  0.37209266  0.36348647  -0.00311404  1
  V  V15  1  0.62466818  0.12656571  0.50026944  1
  V  V16  1  0.87255165  0.25035260  0.12502058  1
  V  V17  1  -0.00190484  0.37548804  0.37493879  1
  V  V18  1  0.75251293  0.62557220  0.87385646  1
  V  V19  1  0.12537980  0.24818803  0.87654032  1
  V  V20  1  0.50043304  0.13304589  0.62781048  1
  V  V21  1  0.87461689  0.87832534  -0.00195575  1
  V  V22  1  0.74752148  0.87448689  0.62857532  1
  V  V23  1  0.74722867  0.12610421  0.37483067  1
  V  V24  1  0.12391229  0.87446325  0.25175164  1
  V  V25  1  0.50045578  0.87669742  0.37379267  1
  V  V26  1  0.50297253  0.62517536  0.62363274  1
  V  V27  1  0.00135676  0.37275893  0.87506445  1
  V  V28  1  0.37394953  0.61958996  0.75629560  1
  V  V29  1  0.62707837  0.75349967  0.87137343  1
  V  V30  1  0.12391419  0.75006950  0.37569471  1
  V  V31  1  0.87449702  0.37423321  -0.00067577  1
  V  V32  1  0.12599672  0.62494954  0.50106095  1
  V  V33  1  0.87503383  0.12240022  0.75236082  1
  V  V34  1  0.74920309  0.49856656  0.74796170  1
  V  V35  1  0.62390942  0.00165212  0.12303744  1
  V  V36  1  0.87415282  0.50045787  0.37558205  1
  V  V37  1  -0.00409371  0.87809199  0.87521015  1
  V  V38  1  0.25176811  0.87193864  0.12408283  1
  V  V39  1  0.37699859  -0.00210855  0.87397700  1
  V  V40  1  0.12376784  0.25009086  0.37617690  1
  V  V41  1  0.62194107  0.38067073  0.24245410  1
  V  V42  1  0.37761727  0.75007753  0.62369025  1
  V  V43  1  0.12859389  0.74865966  0.87637749  1
  V  V44  1  -0.00078290  0.62556775  0.12643816  1
  V  V45  1  0.87357068  0.00074288  0.37549224  1
  V  V46  1  0.49975909  0.37458760  0.37253386  1
  V  V47  1  0.12411527  0.37567113  0.24896729  1
  V  V48  1  0.37250950  0.50147536  0.37266843  1
  V  V49  1  0.87865062  0.62388949  0.74919992  1
  V  V50  1  0.87840484  0.49856685  0.87416816  1
  V  V51  1  0.25024204  0.37360712  0.62623823  1
  V  V52  1  0.87391570  0.37474322  0.49936810  1
  V  V53  1  0.62872569  0.61511133  0.00410316  1
  V  V54  1  0.12423453  0.62510569  0.00266146  1
  V  V55  1  0.74932227  0.62629215  0.37489116  1
  V  V56  1  0.62570270  0.62508115  0.49846421  1
  V  V57  1  0.25123915  0.87514042  0.62661190  1
  V  V58  1  0.61964076  0.37350978  0.75021595  1
  V  V59  1  0.87210711  0.12545324  0.24982993  1
  V  V60  1  0.25115406  -0.00363540  0.74993492  1
  V  V61  1  0.62535468  0.75168923  0.37424394  1
  V  V62  1  0.50183742  -0.00002454  -0.00078566  1
  V  V63  1  0.74966328  0.25003111  0.49857763  1
  V  V64  1  0.37577979  0.37471209  0.49989322  1
  V  V65  1  0.74857284  0.00187825  0.24892359  1
  V  V66  1  0.50490531  0.75419520  0.74928537  1
  V  V67  1  0.25065762  0.12483042  0.37560324  1
  V  V68  1  0.62399444  -0.00202308  0.62757478  1
  V  V69  1  0.75082019  0.12375368  0.87503265  1
  V  V70  1  -0.00437345  -0.00146292  -0.00116848  1
  V  V71  1  0.24997694  0.12188280  0.87578803  1
  V  V72  1  0.48286735  0.50518339  -0.00290570  1
  V  V73  1  0.74572183  0.50092887  0.24525836  1
  V  V74  1  0.50347062  0.87488451  0.87314435  1
  V  V75  1  0.74952712  0.87681589  0.12353673  1
  V  V76  1  0.12357153  0.12252937  0.00041295  1
  V  V77  1  0.25086244  0.74948650  0.50056720  1
  V  V78  1  0.00153839  0.74864609  0.75060220  1
  V  V79  1  0.49253322  0.25196972  0.24379725  1
  V  V80  1  0.12760708  0.49846784  0.62729422  1
  V  V81  1  -0.00228029  0.24978557  0.25091664  1
  V  V82  1  0.87402058  0.75082370  0.12496988  1
  V  V83  1  0.25267166  0.36988206  0.12611470  1
  V  V84  1  0.37509932  0.62669052  0.24738902  1
  V  V85  1  0.37620744  0.87541240  0.49849759  1
  V  V86  1  0.50138934  0.50080225  0.49866873  1
  V  V87  1  0.38012496  0.13046755  0.75030642  1
  V  V88  1  0.00236885  0.62418299  0.62680718  1
  V  V89  1  0.00028785  0.00153456  0.50334491  1
  V  V90  1  -0.00169372  0.12402220  0.12550173  1
  V  V91  1  0.87425148  0.87451118  0.50134957  1
  V  V92  1  0.75001029  -0.00191539  0.75275326  1
  Zn  Zn93  1  -0.00217962  0.75258589  0.25223597  1
  Zn  Zn94  1  0.50864481  0.62205918  0.12794452  1
  Zn  Zn95  1  -0.00032334  0.49970811  0.50087555  1
  Zn  Zn96  1  0.62608357  0.49849639  0.62282486  1
  Zn  Zn97  1  0.12702827  0.37279166  0.75201546  1
  Zn  Zn98  1  0.74872011  0.37507945  0.62329433  1
  Zn  Zn99  1  0.00012969  0.49915317  0.00168102  1
  Zn  Zn100  1  0.87585415  0.74895310  0.62486220  1
  Zn  Zn101  1  0.12425730  0.87511790  0.74922758  1
  Zn  Zn102  1  0.38063607  0.74776201  0.12337713  1
  Zn  Zn103  1  0.75092899  0.74925370  0.50162229  1
  Zn  Zn104  1  0.37838312  0.25258875  0.62954666  1
  Zn  Zn105  1  0.25311728  0.24180539  0.00721376  1
  Zn  Zn106  1  -0.00111502  0.87567289  0.37473614  1
  Zn  Zn107  1  0.12323984  0.49873960  0.12718229  1
  Zn  Zn108  1  0.50039251  0.75035048  0.24609811  1
  Zn  Zn109  1  0.24930063  0.62404968  0.37469364  1
  Zn  Zn110  1  0.37126079  0.13065493  0.24657661  1
  Zn  Zn111  1  0.00097839  0.24723196  0.75054620  1
  Zn  Zn112  1  0.12581405  -0.00060274  0.62783399  1
  Zn  Zn113  1  0.48869512  0.38003387  0.86669283  1
  Zn  Zn114  1  0.24699297  0.50015949  0.24884152  1
  Zn  Zn115  1  0.25987368  0.61653559  0.88568389  1
  Zn  Zn116  1  0.25969873  0.49154435  0.75933987  1
  Zn  Zn117  1  0.62254500  0.12861069  -0.00132506  1
  Zn  Zn118  1  0.49944111  0.00197267  0.49964741  1
  Zn  Zn119  1  0.00334423  0.12523480  0.62935607  1
  Zn  Zn120  1  0.25356760  0.74764963  0.00014458  1
  Zn  Zn121  1  0.62307343  0.25048110  0.37302710  1
  Zn  Zn122  1  0.18567245  0.18893883  0.18873400  1
  Zn  Zn123  1  0.18975324  0.18483139  0.68904216  1
  Zn  Zn124  1  0.18887730  0.68674095  0.19146845  1
  Zn  Zn125  1  0.18917850  0.68865380  0.68781633  1
  Zn  Zn126  1  0.68031051  0.19112337  0.18578003  1
  Zn  Zn127  1  0.68749983  0.18863352  0.68750309  1
  Zn  Zn128  1  0.68761775  0.68996556  0.18688910  1
  Zn  Zn129  1  0.68891542  0.68586197  0.68587485  1
  Zn  Zn130  1  0.31145267  0.31326550  0.31274000  1
  Zn  Zn131  1  0.30946313  0.30968028  0.81641573  1
  Zn  Zn132  1  0.31183419  0.81189725  0.31265405  1
  Zn  Zn133  1  0.31485095  0.80811253  0.81293269  1
  Zn  Zn134  1  0.80926339  0.31393825  0.31201266  1
  Zn  Zn135  1  0.80933629  0.31099206  0.81246506  1
  Zn  Zn136  1  0.81081048  0.81301321  0.31274131  1
  Zn  Zn137  1  0.81583596  0.81195691  0.81034202  1
  Zn  Zn138  1  0.18656297  0.43628385  0.43889602  1
  Zn  Zn139  1  0.18917822  0.44058604  0.94039246  1
  Zn  Zn140  1  0.18798212  0.93669192  0.43914364  1
  Zn  Zn141  1  0.18589566  0.93667634  0.93819234  1
  Zn  Zn142  1  0.68683934  0.43680697  0.43265090  1
  Zn  Zn143  1  0.68808075  0.43685591  0.93336446  1
  Zn  Zn144  1  0.68699880  0.93955684  0.43967301  1
  Zn  Zn145  1  0.68624677  0.93815460  0.93690923  1
  Zn  Zn146  1  0.31268077  0.05760666  0.06174839  1
  Zn  Zn147  1  0.31413740  0.06149780  0.56374030  1
  Zn  Zn148  1  0.30761203  0.55902009  0.06897502  1
  Zn  Zn149  1  0.31361317  0.56302986  0.56452943  1
  Zn  Zn150  1  0.81186926  0.06290373  0.06004864  1
  Zn  Zn151  1  0.81196193  0.06326812  0.56468786  1
  Zn  Zn152  1  0.81344337  0.56094826  0.06137254  1
  Zn  Zn153  1  0.81384401  0.56283680  0.56205460  1
  Zn  Zn154  1  0.43741897  0.44140525  0.17906586  1
  Zn  Zn155  1  0.43951633  0.43940250  0.68330452  1
  Zn  Zn156  1  0.43717237  0.94069949  0.18804818  1
  Zn  Zn157  1  0.43834878  0.93896326  0.68686069  1
  Zn  Zn158  1  0.93417890  0.43893070  0.18851933  1
  Zn  Zn159  1  0.94013046  0.43551262  0.68769660  1
  Zn  Zn160  1  0.93688323  0.93665870  0.18791573  1
  Zn  Zn161  1  0.93569988  0.93735119  0.68912386  1
  Zn  Zn162  1  0.06179079  0.06185896  0.31495989  1
  Zn  Zn163  1  0.06337280  0.05970879  0.81225130  1
  Zn  Zn164  1  0.06131727  0.56218165  0.31279815  1
  Zn  Zn165  1  0.07042562  0.55937005  0.81491570  1
  Zn  Zn166  1  0.55992495  0.06466742  0.31068786  1
  Zn  Zn167  1  0.56509786  0.06310305  0.81058515  1
  Zn  Zn168  1  0.56086465  0.56335940  0.31186397  1
  Zn  Zn169  1  0.56189308  0.56219489  0.81743167  1
  Zn  Zn170  1  0.43843175  0.18883732  0.43674357  1
  Zn  Zn171  1  0.43878182  0.18661002  0.93556749  1
  Zn  Zn172  1  0.44007915  0.68876707  0.43402259  1
  Zn  Zn173  1  0.44081811  0.68984624  0.93869904  1
  Zn  Zn174  1  0.93614706  0.18634118  0.43870331  1
  Zn  Zn175  1  0.93599998  0.18694230  0.93803917  1
  Zn  Zn176  1  0.93912481  0.68674783  0.43966654  1
  Zn  Zn177  1  0.93889926  0.68986580  0.93731543  1
  Zn  Zn178  1  0.06327547  0.31067427  0.06319658  1
  Zn  Zn179  1  0.06082030  0.31205116  0.56186844  1
  Zn  Zn180  1  0.06250248  0.81096678  0.06290515  1
  Zn  Zn181  1  0.06365324  0.81335777  0.56447332  1
  Zn  Zn182  1  0.55913821  0.31501404  0.05969317  1
  Zn  Zn183  1  0.56483140  0.31401065  0.56275982  1
  Zn  Zn184  1  0.56305687  0.80865529  0.06219763  1
  Zn  Zn185  1  0.56386919  0.81294080  0.55960966  1
  O  O186  1  0.11779183  0.11929603  0.12107716  1
  O  O187  1  0.12313351  0.12195694  0.61837816  1
  O  O188  1  0.11555330  0.62852517  0.11986615  1
  O  O189  1  0.12320282  0.61708909  0.62133473  1
  O  O190  1  0.61407488  0.11934510  0.12207802  1
  O  O191  1  0.61881322  0.11918370  0.62167432  1
  O  O192  1  0.62776283  0.63278350  0.10879633  1
  O  O193  1  0.62040821  0.62285522  0.61723164  1
  O  O194  1  0.37967155  0.38349913  0.37934126  1
  O  O195  1  0.37175052  0.37262629  0.89025203  1
  O  O196  1  0.37945399  0.88086284  0.37921652  1
  O  O197  1  0.38268649  0.87847452  0.87981359  1
  O  O198  1  0.87853506  0.38011554  0.37881869  1
  O  O199  1  0.88267530  0.37671871  0.87914010  1
  O  O200  1  0.87344575  0.88172480  0.38514898  1
  O  O201  1  0.88810854  0.86707101  0.88215449  1
  O  O202  1  0.25380220  0.00537646  0.37059114  1
  O  O203  1  0.25677227  0.00271131  0.87098179  1
  O  O204  1  0.26282470  0.49885165  0.37578765  1
  O  O205  1  0.22754882  0.51140709  0.86434123  1
  O  O206  1  0.75400860  0.00625725  0.36873257  1
  O  O207  1  0.73955421  0.01096141  0.86408948  1
  O  O208  1  0.75504275  0.50668351  0.36654681  1
  O  O209  1  0.75812933  0.50528265  0.86521690  1
  O  O210  1  0.24365168  0.48503491  0.12874623  1
  O  O211  1  0.24504638  0.48889696  0.62598888  1
  O  O212  1  0.24325083  0.99117500  0.13031157  1
  O  O213  1  0.25169823  0.99242986  0.63239385  1
  O  O214  1  0.75797517  0.49146063  0.13312769  1
  O  O215  1  0.75010769  0.49962029  0.63752866  1
  O  O216  1  0.74444116  0.99635854  0.12914486  1
  O  O217  1  0.74310956  0.99489331  0.63219957  1
  O  O218  1  0.00228094  0.36850416  0.25490310  1
  O  O219  1  0.00289197  0.37020015  0.76352606  1
  O  O220  1  0.00694007  0.87316358  0.25363608  1
  O  O221  1  0.00013920  0.86996120  0.75899598  1
  O  O222  1  0.50393002  0.37169571  0.24932063  1
  O  O223  1  0.51406649  0.38513788  0.75148980  1
  O  O224  1  0.50742354  0.87649040  0.25594360  1
  O  O225  1  0.49521005  0.86118584  0.75466426  1
  O  O226  1  0.49820703  0.13484956  0.24103677  1
  O  O227  1  0.49046499  0.11692639  0.74039737  1
  O  O228  1  0.49005680  0.62592761  0.24768658  1
  O  O229  1  0.49346149  0.63274348  0.74598688  1
  O  O230  1  0.99264148  0.12940410  0.24589559  1
  O  O231  1  0.98770325  0.12405316  0.75178856  1
  O  O232  1  0.99293844  0.62814625  0.24175405  1
  O  O233  1  0.99805010  0.62795859  0.74656946  1
  O  O234  1  0.37417353  0.26060465  -0.00045336  1
  O  O235  1  0.36839477  0.25750349  0.50114173  1
  O  O236  1  0.37280980  0.75738264  0.00190087  1
  O  O237  1  0.37141817  0.75477560  0.50382430  1
  O  O238  1  0.86784052  0.25448110  0.00562527  1
  O  O239  1  0.86986159  0.25346730  0.50760495  1
  O  O240  1  0.86857970  0.75628357  0.00494097  1
  O  O241  1  0.87424615  0.76229073  0.50201484  1
  O  O242  1  0.13014076  0.24466657  0.49480326  1
  O  O243  1  0.12415140  0.24060524  0.99077648  1
  O  O244  1  0.13037168  0.74567988  0.49398400  1
  O  O245  1  0.12672124  0.74261347  0.99363988  1
  O  O246  1  0.63220513  0.24427139  0.49839243  1
  O  O247  1  0.63044389  0.25196093  0.98969338  1
  O  O248  1  0.62776518  0.74356338  0.49222666  1
  O  O249  1  0.63150467  0.74236219  0.98857442  1
  O  O250  1  0.50464778  0.24058329  0.13112514  1
  O  O251  1  0.49939450  0.23688234  0.62244080  1
  O  O252  1  0.49799630  0.74331163  0.12781318  1
  O  O253  1  0.49909180  0.74625099  0.63201588  1
  O  O254  1  0.99286966  0.24327968  0.13079840  1
  O  O255  1  0.98828899  0.24809375  0.62830243  1
  O  O256  1  0.99287011  0.74132460  0.12688054  1
  O  O257  1  1.00144545  0.74288930  0.63304326  1
  O  O258  1  0.00323773  0.25465251  0.37024476  1
  O  O259  1  0.00748497  0.25553236  0.87566376  1
  O  O260  1  0.01224768  0.75241263  0.37553554  1
  O  O261  1  0.00841440  0.75840619  0.87101563  1
  O  O262  1  0.50086787  0.25711085  0.36456522  1
  O  O263  1  0.51290975  0.25502217  0.87875360  1
  O  O264  1  0.50799606  0.75890059  0.37139614  1
  O  O265  1  0.50921117  0.75420051  0.86797204  1
  O  O266  1  0.24503844  0.12938913  0.49552252  1
  O  O267  1  0.24312747  0.12174239  0.99480350  1
  O  O268  1  0.24451333  0.63197604  0.49961732  1
  O  O269  1  0.23779852  0.62751644  1.00400712  1
  O  O270  1  0.74540936  0.12977084  0.49465138  1
  O  O271  1  0.74793010  0.13022406  0.98990824  1
  O  O272  1  0.74467138  0.62596277  0.49310447  1
  O  O273  1  0.74715250  0.63036442  0.99329296  1
  O  O274  1  0.25976808  0.37377553  0.00565163  1
  O  O275  1  0.25511715  0.36948705  0.50827950  1
  O  O276  1  0.25590005  0.87625266  0.00962999  1
  O  O277  1  0.25691616  0.86899252  0.50577303  1
  O  O278  1  0.75550672  0.37067918  0.00345385  1
  O  O279  1  0.75590354  0.36896482  0.49940138  1
  O  O280  1  0.75451592  0.87084570  0.00371676  1
  O  O281  1  0.75972117  0.87778052  0.50989146  1
  O  O282  1  0.12578520  0.49111488  0.24989868  1
  O  O283  1  0.12749625  0.49701576  0.73442816  1
  O  O284  1  0.12931985  0.99527570  0.24605856  1
  O  O285  1  0.13563574  0.99631869  0.74938235  1
  O  O286  1  0.62908564  0.48920549  0.25359840  1
  O  O287  1  0.63584847  0.49486035  0.75223045  1
  O  O288  1  0.63017749  0.99615901  0.24351793  1
  O  O289  1  0.63663821  1.00579634  0.73733292  1
  O  O290  1  0.36652790  0.00287886  0.25731345  1
  O  O291  1  0.37074353  0.00661225  0.75622324  1
  O  O292  1  0.37574354  0.50649713  0.25896856  1
  O  O293  1  0.37854134  0.51621388  0.74505837  1
  O  O294  1  0.86836576  0.00589089  0.25458053  1
  O  O295  1  0.86282711  0.01229555  0.74315685  1
  O  O296  1  0.86744823  0.50681418  0.25670644  1
  O  O297  1  0.86921906  0.50357761  0.75474101  1
  O  O298  1  0.11874285  0.36893501  0.37106899  1
  O  O299  1  0.11805892  0.36424161  0.87831961  1
  O  O300  1  0.12415727  0.86610484  0.37145521  1
  O  O301  1  0.11682306  0.86328009  0.87675624  1
  O  O302  1  0.61688643  0.37391998  0.36249921  1
  O  O303  1  0.62658837  0.36718377  0.86602253  1
  O  O304  1  0.62169124  0.87287642  0.37042805  1
  O  O305  1  0.62116097  0.86110394  0.87879126  1
  O  O306  1  0.38797946  0.11764842  0.12599344  1
  O  O307  1  0.38338134  0.12539894  0.63300860  1
  O  O308  1  0.37306081  0.62491040  0.13764195  1
  O  O309  1  0.38419392  0.63172755  0.63079569  1
  O  O310  1  0.87828284  0.13062476  0.13058901  1
  O  O311  1  0.87532121  0.13369831  0.63371144  1
  O  O312  1  0.88047047  0.63121027  0.12913504  1
  O  O313  1  0.88362722  0.62539456  0.63106898  1
  O  O314  1  0.24279087  0.26273265  0.12235381  1
  O  O315  1  0.25091279  0.25873330  0.61964678  1
  O  O316  1  0.25039746  0.76447264  0.12590185  1
  O  O317  1  0.25782713  0.75533393  0.61977347  1
  O  O318  1  0.75340124  0.25645941  0.11917716  1
  O  O319  1  0.76066407  0.25027955  0.61857417  1
  O  O320  1  0.75479309  0.75785124  0.11782448  1
  O  O321  1  0.75190835  0.76156092  0.62492951  1
  O  O322  1  0.24367117  0.24536896  0.38081514  1
  O  O323  1  0.24009931  0.24061913  0.88053346  1
  O  O324  1  0.23920225  0.74982455  0.38219658  1
  O  O325  1  0.23993348  0.74309786  0.87643779  1
  O  O326  1  0.74820824  0.24316508  0.38038312  1
  O  O327  1  0.74162542  0.24224202  0.87962939  1
  O  O328  1  0.74365670  0.74386051  0.37713947  1
  O  O329  1  0.74522242  0.74619696  0.87719743  1
  O  O330  1  0.00257247  0.11878935  0.00577168  1
  O  O331  1  0.00444773  0.11597446  0.50131503  1
  O  O332  1  0.00559408  0.62689602  0.01065381  1
  O  O333  1  0.00811140  0.62262643  0.50824495  1
  O  O334  1  0.50082015  0.11902108  0.00626781  1
  O  O335  1  0.50514747  0.12323337  0.50953832  1
  O  O336  1  0.50735110  0.61444873  -0.00410068  1
  O  O337  1  0.50592014  0.62089382  0.50334248  1
  O  O338  1  0.49554548  0.37994299  0.49393233  1
  O  O339  1  0.48329509  0.38488403  1.00188375  1
  O  O340  1  0.49386544  0.87769106  0.49266957  1
  O  O341  1  0.49630551  0.88022002  0.99366215  1
  O  O342  1  0.99216361  0.37538797  0.49228457  1
  O  O343  1  0.99396016  0.37379125  0.99090428  1
  O  O344  1  0.99049227  0.88381482  0.50107115  1
  O  O345  1  0.99487126  0.87836355  0.99449196  1
  O  O346  1  0.49021339  0.49484175  0.37927213  1
  O  O347  1  0.50613501  0.49481046  0.89215860  1
  O  O348  1  0.49356675  0.99528286  0.37617289  1
  O  O349  1  0.49798852  0.99429399  0.87776768  1
  O  O350  1  0.99191966  0.49340096  0.37665073  1
  O  O351  1  0.99725499  0.48847275  0.87570328  1
  O  O352  1  0.99266132  0.99935081  0.38652975  1
  O  O353  1  1.00834197  0.98548693  0.88239771  1
  O  O354  1  0.00455507  0.00533888  0.12075501  1
  O  O355  1  0.00017484  0.00157233  0.61415887  1
  O  O356  1  -0.00211943  0.51386531  0.12455799  1
  O  O357  1  0.01055616  0.50392530  0.62391094  1
  O  O358  1  0.50527257  0.00757268  0.11918644  1
  O  O359  1  0.51018716  0.00695371  0.62419053  1
  O  O360  1  0.49878227  0.50443816  0.10369930  1
  O  O361  1  0.50327899  0.50763506  0.61524838  1
  O  O362  1  0.24312359  0.37388795  0.24293572  1
  O  O363  1  0.24980467  0.37320838  0.73910482  1
  O  O364  1  0.24433270  0.88114588  0.24274483  1
  O  O365  1  0.25294767  0.87919540  0.74499063  1
  O  O366  1  0.74034412  0.37981362  0.24459294  1
  O  O367  1  0.74362944  0.38540255  0.74996276  1
  O  O368  1  0.74514871  0.88292815  0.24336851  1
  O  O369  1  0.76036929  0.88605559  0.74017309  1
  O  O370  1  0.24975007  0.12009047  0.25638533  1
  O  O371  1  0.25963931  0.11634345  0.75609609  1
  O  O372  1  0.25940527  0.62041546  0.25449826  1
  O  O373  1  0.26965369  0.62722552  0.74468147  1
  O  O374  1  0.75259762  0.12152309  0.25332262  1
  O  O375  1  0.75586125  0.11865698  0.75592467  1
  O  O376  1  0.75396452  0.62086658  0.25470380  1
  O  O377  1  0.75687944  0.61752330  0.75437550  1
  O  O378  1  0.36742641  0.11972534  0.37372340  1
  O  O379  1  0.37158273  0.11818767  0.86914126  1
  O  O380  1  0.37496099  0.61617629  0.36818284  1
  O  O381  1  0.37678456  0.63218188  0.85964229  1
  O  O382  1  0.86784435  0.12016989  0.36904223  1
  O  O383  1  0.86117618  0.13304603  0.86549126  1
  O  O384  1  0.86997132  0.62141340  0.37039535  1
  O  O385  1  0.87244053  0.61975003  0.86964496  1
  O  O386  1  0.12950143  0.37553652  0.13091598  1
  O  O387  1  0.13364279  0.38041741  0.62456632  1
  O  O388  1  0.13173131  0.87982720  0.13004799  1
  O  O389  1  0.13529797  0.87648097  0.62845612  1
  O  O390  1  0.62996762  0.37059939  0.13441750  1
  O  O391  1  0.62914737  0.37800626  0.63461581  1
  O  O392  1  0.63100825  0.88122918  0.12863838  1
  O  O393  1  0.63648961  0.88536026  0.61764712  1
  O  O394  1  0.11631167  0.25451665  0.25730004  1
  O  O395  1  0.12412782  0.24797591  0.76430863  1
  O  O396  1  0.12474685  0.75530696  0.26095646  1
  O  O397  1  0.12043746  0.74904928  0.76045373  1
  O  O398  1  0.61311207  0.26154689  0.25133641  1
  O  O399  1  0.63364127  0.26202592  0.75807230  1
  O  O400  1  0.62642773  0.75938012  0.25680068  1
  O  O401  1  0.61624180  0.74021831  0.76007731  1
  O  O402  1  0.38819980  0.25178626  0.25181345  1
  O  O403  1  0.36995165  0.23398139  0.75151422  1
  O  O404  1  0.37585363  0.73901550  0.25059735  1
  O  O405  1  0.38663227  0.74099050  0.74364137  1
  O  O406  1  0.87807637  0.24501590  0.24477669  1
  O  O407  1  0.87251818  0.24084663  0.74209513  1
  O  O408  1  0.87418963  0.74445915  0.24347470  1
  O  O409  1  0.88373632  0.74116399  0.74850941  1
  O  O410  1  0.38072076  0.49575768  0.49216321  1
  O  O411  1  0.38087275  0.50176481  0.99507210  1
  O  O412  1  0.37546212  0.99290478  0.49251075  1
  O  O413  1  0.38263155  0.99364464  0.99209623  1
  O  O414  1  0.87566065  0.49325409  0.49313694  1
  O  O415  1  0.87711937  0.49264951  0.99139539  1
  O  O416  1  0.88060973  0.99449121  0.49653273  1
  O  O417  1  0.88270748  0.99153560  1.00611058  1
  O  O418  1  0.11701416  0.00406518  0.00681115  1
  O  O419  1  0.11545069  0.00468337  0.50025145  1
  O  O420  1  0.11952070  0.51362502  0.00476079  1
  O  O421  1  0.12545006  0.50469576  0.51134846  1
  O  O422  1  0.61833468  0.00251631  0.00492593  1
  O  O423  1  0.62581633  0.00827508  0.51181627  1
  O  O424  1  0.62657131  0.51206735  -0.00671926  1
  O  O425  1  0.61887643  0.50626711  0.49735014  1
  O  O426  1  0.36435075  0.38137706  0.11018535  1
  O  O427  1  0.36751482  0.37355823  0.62007193  1
  O  O428  1  0.36558535  0.87760908  0.12009582  1
  O  O429  1  0.37235611  0.86900406  0.61887913  1
  O  O430  1  0.86906217  0.36847800  0.11990541  1
  O  O431  1  0.87393128  0.36535090  0.61998710  1
  O  O432  1  0.86866108  0.87017912  0.11954017  1
  O  O433  1  0.86608452  0.87575937  0.61663465  1
  O  O434  1  0.13020671  0.13087787  0.38129087  1
  O  O435  1  0.12904724  0.12944921  0.88083178  1
  O  O436  1  0.12585402  0.63320231  0.38117073  1
  O  O437  1  0.11649066  0.63720508  0.88764517  1
  O  O438  1  0.62997246  0.12598832  0.38135095  1
  O  O439  1  0.63358199  0.13516799  0.87257624  1
  O  O440  1  0.62996635  0.63089712  0.37856418  1
  O  O441  1  0.63302486  0.63461759  0.88182493  1
