# generated using pymatgen
data_V93Zn93O256
_symmetry_space_group_name_H-M   'P 1'
_cell_length_a   17.05432108
_cell_length_b   17.05629821
_cell_length_c   17.05837260
_cell_angle_alpha   89.97298611
_cell_angle_beta   90.10232423
_cell_angle_gamma   89.98744270
_symmetry_Int_Tables_number   1
_chemical_formula_structural   V93Zn93O256
_chemical_formula_sum   'V93 Zn93 O256'
_cell_volume   4961.99200976
_cell_formula_units_Z   1
loop_
 _symmetry_equiv_pos_site_id
 _symmetry_equiv_pos_as_xyz
  1  'x, y, z'
loop_
 _atom_site_type_symbol
 _atom_site_label
 _atom_site_symmetry_multiplicity
 _atom_site_fract_x
 _atom_site_fract_y
 _atom_site_fract_z
 _atom_site_occupancy
  V  V0  1  0.13060766  0.24566450  0.87517890  1
  V  V1  1  0.74971531  0.37153485  0.62046681  1
  V  V2  1  0.50042197  0.25025600  0.74942565  1
  V  V3  1  0.62384131  0.62418433  -0.00144441  1
  V  V4  1  0.74827164  0.62545536  0.87387665  1
  V  V5  1  0.74996079  0.62521118  0.37547822  1
  V  V6  1  0.87395735  0.75015833  0.12371815  1
  V  V7  1  0.49855048  0.49946741  -0.00060501  1
  V  V8  1  0.12533406  0.62527634  -0.00054291  1
  V  V9  1  0.87497142  0.62454847  0.25060952  1
  V  V10  1  -0.00032658  0.49962141  0.49991587  1
  V  V11  1  0.87360101  0.37190487  0.49932847  1
  V  V12  1  0.62442279  0.12477103  -0.00027430  1
  V  V13  1  0.75031558  0.00020587  0.25016330  1
  V  V14  1  -0.00019353  0.49912193  -0.00045573  1
  V  V15  1  0.63076207  0.25115674  0.37905251  1
  V  V16  1  0.00409387  0.11988816  0.12551714  1
  V  V17  1  0.49873590  0.75034494  0.24893033  1
  V  V18  1  0.49765526  0.75051675  0.74998775  1
  V  V19  1  0.00408108  -0.00040939  0.50685877  1
  V  V20  1  0.12482147  0.49928613  0.62612566  1
  V  V21  1  0.61929963  0.49967083  0.62152114  1
  V  V22  1  0.00026651  0.24887672  0.24949855  1
  V  V23  1  -0.00197279  0.74901928  0.74887105  1
  V  V24  1  0.87672499  0.12556813  0.24990178  1
  V  V25  1  0.24840598  0.00141121  0.24868293  1
  V  V26  1  0.75162350  0.12754706  0.37661161  1
  V  V27  1  0.12600961  0.12208967  0.50669725  1
  V  V28  1  0.12584846  0.49989389  0.12461639  1
  V  V29  1  0.25015212  0.62594306  0.87404879  1
  V  V30  1  0.74959590  0.50021312  0.74808420  1
  V  V31  1  0.25175215  0.50129390  0.25238819  1
  V  V32  1  0.25112218  0.87805483  0.12095364  1
  V  V33  1  0.37351482  0.75093632  0.62485680  1
  V  V34  1  0.87432376  0.49998163  0.37454935  1
  V  V35  1  -0.00175992  0.62468929  0.62508999  1
  V  V36  1  0.62642829  0.24988167  0.87520338  1
  V  V37  1  0.12396489  0.62571277  0.50027698  1
  V  V38  1  0.87469884  0.49934563  0.87472451  1
  V  V39  1  0.49730571  0.62322298  0.62246998  1
  V  V40  1  0.87318436  0.24710322  0.62122024  1
  V  V41  1  0.87400847  0.87404947  0.00119689  1
  V  V42  1  0.74891216  0.00129867  0.75193499  1
  V  V43  1  0.49913094  0.12721666  0.12818778  1
  V  V44  1  0.12865000  0.12075070  0.00042719  1
  V  V45  1  0.87485101  0.62489473  0.74874568  1
  V  V46  1  0.49880055  0.37525979  0.87625409  1
  V  V47  1  0.25096440  0.75369885  -0.00000510  1
  V  V48  1  0.12380890  0.75031142  0.87410321  1
  V  V49  1  0.25125853  0.25076277  0.49878460  1
  V  V50  1  0.87262117  0.00040434  0.87617933  1
  V  V51  1  0.62576020  -0.00129580  0.12712243  1
  V  V52  1  0.62342320  0.75234755  0.87447225  1
  V  V53  1  0.12468259  0.75038479  0.37428971  1
  V  V54  1  0.24906486  0.37571039  0.62464541  1
  V  V55  1  -0.00170729  0.87435179  0.87467979  1
  V  V56  1  0.24442361  0.88424966  0.62561111  1
  V  V57  1  0.25007568  0.24792477  0.00015683  1
  V  V58  1  0.00026955  0.75029198  0.24964844  1
  V  V59  1  0.49936761  0.38226333  0.38216525  1
  V  V60  1  0.50034734  0.87520841  0.37527788  1
  V  V61  1  0.24881528  0.75186412  0.49935542  1
  V  V62  1  0.12559928  0.37479062  0.25010948  1
  V  V63  1  0.12645472  0.25014787  0.37603249  1
  V  V64  1  0.25008567  0.62500649  0.37420016  1
  V  V65  1  0.61994483  0.62338961  0.49953286  1
  V  V66  1  -0.00054941  0.87613992  0.37482487  1
  V  V67  1  -0.00086518  0.24880073  0.74982061  1
  V  V68  1  0.75018687  0.37350825  0.12432327  1
  V  V69  1  0.62504606  0.75032757  0.37491993  1
  V  V70  1  0.37194834  0.62564137  0.74985539  1
  V  V71  1  0.63072307  0.12751962  0.50032959  1
  V  V72  1  0.50067542  0.25191164  0.25165870  1
  V  V73  1  0.87496659  0.37459721  -0.00071106  1
  V  V74  1  -0.00013411  0.37465276  0.37455259  1
  V  V75  1  0.50077910  0.00093939  0.49969650  1
  V  V76  1  0.48902832  0.88091033  0.87947831  1
  V  V77  1  0.62516175  0.00054196  0.62413422  1
  V  V78  1  0.37648169  0.25101636  0.62231517  1
  V  V79  1  0.62458485  0.50017009  0.12521231  1
  V  V80  1  0.12546878  0.37383741  0.74993309  1
  V  V81  1  0.37466549  0.00179656  0.37493958  1
  V  V82  1  0.12243520  0.88221668  0.74463128  1
  V  V83  1  0.37412710  0.37471240  0.00053932  1
  V  V84  1  0.25062142  0.37522333  0.12490118  1
  V  V85  1  0.00003466  0.62495911  0.12468649  1
  V  V86  1  0.00167351  -0.00002168  0.00219802  1
  V  V87  1  0.87596009  0.00019287  0.37590430  1
  V  V88  1  0.12512295  0.87968622  0.24500924  1
  V  V89  1  0.75008120  0.87306328  0.62354575  1
  V  V90  1  0.37405078  0.87682206  0.50089655  1
  V  V91  1  0.37029562  0.12053312  0.75600566  1
  V  V92  1  0.37507803  0.75333275  0.12009060  1
  Zn  Zn93  1  0.37447856  0.25123495  0.12683260  1
  Zn  Zn94  1  0.75162510  0.75060165  0.49972014  1
  Zn  Zn95  1  0.75042692  0.49966575  0.24997724  1
  Zn  Zn96  1  0.37290899  0.50031057  0.87418728  1
  Zn  Zn97  1  0.87487205  0.24863200  0.12200641  1
  Zn  Zn98  1  0.00012067  0.37406264  0.87639018  1
  Zn  Zn99  1  0.38014028  0.50732228  0.38156553  1
  Zn  Zn100  1  0.87544447  0.12498090  0.75151750  1
  Zn  Zn101  1  0.50121291  0.12462978  0.62387236  1
  Zn  Zn102  1  0.23780443  0.01059416  0.75208399  1
  Zn  Zn103  1  0.49366722  -0.00795075  0.00743410  1
  Zn  Zn104  1  0.00211440  0.11939432  0.62819068  1
  Zn  Zn105  1  0.74918567  0.75115162  0.00101569  1
  Zn  Zn106  1  0.62674257  0.87474776  0.25043636  1
  Zn  Zn107  1  0.75301651  0.24899300  -0.00178768  1
  Zn  Zn108  1  0.62692986  0.37701316  0.25235153  1
  Zn  Zn109  1  0.87295991  0.74888943  0.62214037  1
  Zn  Zn110  1  0.75170023  0.12553377  0.87598891  1
  Zn  Zn111  1  0.87527941  0.87343013  0.49968515  1
  Zn  Zn112  1  0.74929300  0.87298895  0.12502431  1
  Zn  Zn113  1  0.49757260  0.62493692  0.12444067  1
  Zn  Zn114  1  0.62505052  0.37615726  0.74913114  1
  Zn  Zn115  1  0.37919811  0.38568447  0.50476527  1
  Zn  Zn116  1  0.62189220  0.87709370  0.75034698  1
  Zn  Zn117  1  0.37453578  0.62391241  0.25017139  1
  Zn  Zn118  1  0.24965067  0.49988199  0.75157992  1
  Zn  Zn119  1  0.35502193  0.00796854  0.89488493  1
  Zn  Zn120  1  0.37262979  0.12727974  0.25298245  1
  Zn  Zn121  1  0.25117672  0.12595019  0.37504072  1
  Zn  Zn122  1  0.18616879  0.18756610  0.18534069  1
  Zn  Zn123  1  0.18906864  0.19030146  0.68591021  1
  Zn  Zn124  1  0.18810102  0.68890532  0.18738715  1
  Zn  Zn125  1  0.18653796  0.69135584  0.68685660  1
  Zn  Zn126  1  0.68757176  0.18874561  0.19038178  1
  Zn  Zn127  1  0.68892532  0.18656944  0.68733146  1
  Zn  Zn128  1  0.68824258  0.68685911  0.18794557  1
  Zn  Zn129  1  0.68534657  0.68749286  0.68832251  1
  Zn  Zn130  1  0.31495568  0.31439312  0.31329194  1
  Zn  Zn131  1  0.31239918  0.31137409  0.81266371  1
  Zn  Zn132  1  0.31356036  0.81313281  0.31118335  1
  Zn  Zn133  1  0.30801249  0.81597576  0.81118038  1
  Zn  Zn134  1  0.81313404  0.31281157  0.30915954  1
  Zn  Zn135  1  0.81224493  0.31442899  0.80916303  1
  Zn  Zn136  1  0.81139002  0.81338997  0.31120259  1
  Zn  Zn137  1  0.81127519  0.81296922  0.81111371  1
  Zn  Zn138  1  0.18978680  0.43795539  0.43898533  1
  Zn  Zn139  1  0.18786144  0.43604476  0.93535166  1
  Zn  Zn140  1  0.18618535  0.93876539  0.43484902  1
  Zn  Zn141  1  0.18564072  0.93883735  0.93357917  1
  Zn  Zn142  1  0.68734888  0.43904551  0.43911692  1
  Zn  Zn143  1  0.68757960  0.43687928  0.93772619  1
  Zn  Zn144  1  0.68784657  0.93861995  0.43727081  1
  Zn  Zn145  1  0.68487644  0.93610820  0.93980192  1
  Zn  Zn146  1  0.31294083  0.06363788  0.06790333  1
  Zn  Zn147  1  0.31327157  0.06532385  0.56473830  1
  Zn  Zn148  1  0.31384667  0.56497481  0.06285898  1
  Zn  Zn149  1  0.31164279  0.56091883  0.56052563  1
  Zn  Zn150  1  0.81317427  0.06249048  0.06316447  1
  Zn  Zn151  1  0.81450523  0.06040846  0.56262777  1
  Zn  Zn152  1  0.81102840  0.56281198  0.06076671  1
  Zn  Zn153  1  0.80957433  0.56107719  0.56081637  1
  Zn  Zn154  1  0.43664097  0.43721318  0.19097841  1
  Zn  Zn155  1  0.43590396  0.43868505  0.68985195  1
  Zn  Zn156  1  0.43494715  0.93733612  0.18870873  1
  Zn  Zn157  1  0.43927206  0.93603516  0.68690305  1
  Zn  Zn158  1  0.93703823  0.43759289  0.18672157  1
  Zn  Zn159  1  0.93753045  0.43562127  0.68757378  1
  Zn  Zn160  1  0.93642224  0.93808129  0.18724984  1
  Zn  Zn161  1  0.93333681  0.93605795  0.68826347  1
  Zn  Zn162  1  0.06428205  0.06309473  0.31761499  1
  Zn  Zn163  1  0.05903033  0.06374885  0.81718593  1
  Zn  Zn164  1  0.06328522  0.56198013  0.31249937  1
  Zn  Zn165  1  0.06230952  0.56143363  0.81257770  1
  Zn  Zn166  1  0.56343933  0.06325641  0.31356654  1
  Zn  Zn167  1  0.56001545  0.06295374  0.81119466  1
  Zn  Zn168  1  0.56452518  0.56506654  0.30898354  1
  Zn  Zn169  1  0.56054265  0.56234462  0.80992397  1
  Zn  Zn170  1  0.44035662  0.18804266  0.43660689  1
  Zn  Zn171  1  0.43697489  0.18687102  0.93975029  1
  Zn  Zn172  1  0.43607343  0.68842667  0.43735656  1
  Zn  Zn173  1  0.43700457  0.68800099  0.93751720  1
  Zn  Zn174  1  0.94009153  0.18591441  0.43897421  1
  Zn  Zn175  1  0.93845846  0.18728285  0.93709706  1
  Zn  Zn176  1  0.93555462  0.68967793  0.43864602  1
  Zn  Zn177  1  0.93641359  0.68706934  0.93697553  1
  Zn  Zn178  1  0.06182114  0.30993334  0.06305858  1
  Zn  Zn179  1  0.06159531  0.31058023  0.56248944  1
  Zn  Zn180  1  0.06291680  0.81288691  0.06244588  1
  Zn  Zn181  1  0.06084209  0.81222517  0.56274673  1
  Zn  Zn182  1  0.56354190  0.31297172  0.06145599  1
  Zn  Zn183  1  0.56442807  0.31207997  0.56143844  1
  Zn  Zn184  1  0.56119541  0.81218180  0.06013307  1
  Zn  Zn185  1  0.56395562  0.81173776  0.56203716  1
  O  O186  1  0.11273566  0.13027500  0.11495624  1
  O  O187  1  0.12345611  0.13150778  0.61104168  1
  O  O188  1  0.11993927  0.62046973  0.11929597  1
  O  O189  1  0.11861820  0.62041349  0.61967057  1
  O  O190  1  0.61893686  0.11873714  0.12021664  1
  O  O191  1  0.62526451  0.12116407  0.61538650  1
  O  O192  1  0.62487146  0.61502706  0.11816290  1
  O  O193  1  0.61932308  0.61859423  0.61854552  1
  O  O194  1  0.39257248  0.37366941  0.37654317  1
  O  O195  1  0.38105339  0.37503405  0.88189686  1
  O  O196  1  0.38004648  0.88056904  0.38180876  1
  O  O197  1  0.38852398  0.87287824  0.87025346  1
  O  O198  1  0.88008774  0.37893799  0.37924319  1
  O  O199  1  0.87519490  0.38193755  0.88076851  1
  O  O200  1  0.88231428  0.88221967  0.37401583  1
  O  O201  1  0.87984833  0.87936940  0.88058230  1
  O  O202  1  0.25647818  -0.00052725  0.36474130  1
  O  O203  1  0.25526573  -0.01903498  0.85909354  1
  O  O204  1  0.24681304  0.50763503  0.36797601  1
  O  O205  1  0.25070763  0.50953567  0.87272927  1
  O  O206  1  0.75552448  0.00689696  0.36951631  1
  O  O207  1  0.75235258  -0.00108172  0.86662955  1
  O  O208  1  0.75642634  0.50592922  0.37369467  1
  O  O209  1  0.75356923  0.50508755  0.86831210  1
  O  O210  1  0.24426321  0.49546610  0.13058742  1
  O  O211  1  0.24111271  0.49372741  0.62721169  1
  O  O212  1  0.25589318  0.98939447  0.13804810  1
  O  O213  1  0.25526091  0.98735604  0.63057904  1
  O  O214  1  0.74096564  0.49161479  0.12321482  1
  O  O215  1  0.74117169  0.49259646  0.62933025  1
  O  O216  1  0.73970565  1.00201460  0.13113381  1
  O  O217  1  0.74569889  0.99322605  0.63264258  1
  O  O218  1  0.00554411  0.36985311  0.25460241  1
  O  O219  1  0.00604270  0.36372273  0.75047422  1
  O  O220  1  0.00785220  0.87141171  0.25345635  1
  O  O221  1  0.00421754  0.86944600  0.75378081  1
  O  O222  1  0.50455514  0.36575159  0.25877609  1
  O  O223  1  0.50051336  0.36363112  0.75570304  1
  O  O224  1  0.50115247  0.86574636  0.25610721  1
  O  O225  1  0.50167325  0.86862076  0.75947927  1
  O  O226  1  0.50286536  0.13467684  0.24350499  1
  O  O227  1  0.49274636  0.13706562  0.74667519  1
  O  O228  1  0.49873702  0.63880659  0.24763856  1
  O  O229  1  0.49246360  0.63125989  0.74312879  1
  O  O230  1  0.99806377  0.12770486  0.24390693  1
  O  O231  1  0.99954789  0.13560415  0.74707919  1
  O  O232  1  0.99591916  0.63053189  0.24451319  1
  O  O233  1  0.99466720  0.62914273  0.74477290  1
  O  O234  1  0.36814567  0.25548825  0.00217560  1
  O  O235  1  0.37274871  0.25128860  0.51015845  1
  O  O236  1  0.36776441  0.74600766  0.01162939  1
  O  O237  1  0.36870840  0.75776413  0.50508517  1
  O  O238  1  0.87249264  0.25778297  0.00076140  1
  O  O239  1  0.88329953  0.25636186  0.51228131  1
  O  O240  1  0.87447383  0.75567884  0.00555859  1
  O  O241  1  0.86998321  0.75466164  0.50383166  1
  O  O242  1  0.12988642  0.24348370  0.49490604  1
  O  O243  1  0.12841452  0.24312867  0.99265100  1
  O  O244  1  0.12861813  0.74543950  0.49363346  1
  O  O245  1  0.12916175  0.74426089  0.99421677  1
  O  O246  1  0.62070294  0.23936206  0.49012769  1
  O  O247  1  0.62622152  0.24341896  0.99018895  1
  O  O248  1  0.62728565  0.74031316  0.49389945  1
  O  O249  1  0.62473494  0.74365973  0.98955229  1
  O  O250  1  0.50485012  0.24387350  0.13547323  1
  O  O251  1  0.49374204  0.25204545  0.63311434  1
  O  O252  1  0.49234884  0.75247913  0.13169755  1
  O  O253  1  0.49361170  0.74541815  0.62989505  1
  O  O254  1  0.99833925  0.23974677  0.13185487  1
  O  O255  1  0.99123371  0.24985590  0.63457225  1
  O  O256  1  0.99531704  0.74380170  0.13024916  1
  O  O257  1  0.99810372  0.74221912  0.63112827  1
  O  O258  1  0.00577774  0.25577543  0.36954395  1
  O  O259  1  0.00830774  0.25142599  0.86508650  1
  O  O260  1  0.00509254  0.75544599  0.36857572  1
  O  O261  1  0.00410292  0.75461828  0.86912681  1
  O  O262  1  0.51035282  0.25721053  0.36852538  1
  O  O263  1  0.50790359  0.25429392  0.86827670  1
  O  O264  1  0.50406614  0.75538768  0.36725422  1
  O  O265  1  0.50584783  0.75780866  0.87052049  1
  O  O266  1  0.24268452  0.13115314  0.49944532  1
  O  O267  1  0.23629674  0.13185240  1.01222715  1
  O  O268  1  0.24188171  0.63294891  0.49520789  1
  O  O269  1  0.24354567  0.63261155  0.99493380  1
  O  O270  1  0.73820471  0.11780836  0.49323581  1
  O  O271  1  0.73621647  0.12672641  0.99952625  1
  O  O272  1  0.73837930  0.62652205  0.49450302  1
  O  O273  1  0.74239422  0.62619550  0.99069528  1
  O  O274  1  0.25407977  0.36912720  0.00581540  1
  O  O275  1  0.25103484  0.36698318  0.50732787  1
  O  O276  1  0.23700344  0.86985007  0.01424191  1
  O  O277  1  0.25271358  0.87225579  0.50662480  1
  O  O278  1  0.75615730  0.37433973  0.00828491  1
  O  O279  1  0.75654892  0.38034035  0.51312457  1
  O  O280  1  0.75788816  0.87305413  0.00358180  1
  O  O281  1  0.75026615  0.87601627  0.51150315  1
  O  O282  1  0.12944525  0.49391109  0.24380386  1
  O  O283  1  0.12419754  0.49212907  0.74360292  1
  O  O284  1  0.13405014  0.98857726  0.25840680  1
  O  O285  1  0.11868079  0.98605049  0.75353474  1
  O  O286  1  0.62753685  0.49924313  0.23679583  1
  O  O287  1  0.63077280  0.49972550  0.73902605  1
  O  O288  1  0.63080207  1.00126901  0.24190931  1
  O  O289  1  0.63272422  1.00073552  0.74371819  1
  O  O290  1  0.36529355  0.00071924  0.25699367  1
  O  O291  1  0.38181882  0.01940244  0.74315885  1
  O  O292  1  0.36730260  0.50253033  0.25652246  1
  O  O293  1  0.37117616  0.50951199  0.75238073  1
  O  O294  1  0.87091944  0.00681048  0.25594338  1
  O  O295  1  0.86538087  0.00068765  0.75697523  1
  O  O296  1  0.87577145  0.50695835  0.25683840  1
  O  O297  1  0.87021779  0.50472400  0.75472015  1
  O  O298  1  0.11906625  0.37053005  0.36987141  1
  O  O299  1  0.12200954  0.36380213  0.86964064  1
  O  O300  1  0.12013124  0.86891741  0.36526582  1
  O  O301  1  0.11634733  0.86788779  0.86573341  1
  O  O302  1  0.61844395  0.36780255  0.37624740  1
  O  O303  1  0.61912969  0.36528510  0.87330420  1
  O  O304  1  0.61784119  0.86903674  0.37481250  1
  O  O305  1  0.61723984  0.86479459  0.87307840  1
  O  O306  1  0.38931740  0.13020975  0.13122273  1
  O  O307  1  0.37927856  0.13794574  0.63182908  1
  O  O308  1  0.37618987  0.63801108  0.12947941  1
  O  O309  1  0.37797536  0.63213062  0.62880558  1
  O  O310  1  0.88445114  0.12688671  0.13094892  1
  O  O311  1  0.87547974  0.13595653  0.62715970  1
  O  O312  1  0.88087972  0.62891936  0.12967285  1
  O  O313  1  0.88021634  0.62306937  0.63118953  1
  O  O314  1  0.25075074  0.25802089  0.11949223  1
  O  O315  1  0.25929132  0.25602474  0.61931350  1
  O  O316  1  0.25643228  0.75785999  0.12142104  1
  O  O317  1  0.25418421  0.75898035  0.61730928  1
  O  O318  1  0.74938298  0.26156689  0.12329180  1
  O  O319  1  0.76020051  0.26068917  0.63317668  1
  O  O320  1  0.75757862  0.75150187  0.12263044  1
  O  O321  1  0.74783187  0.76154268  0.62662449  1
  O  O322  1  0.24472965  0.25061942  0.38064997  1
  O  O323  1  0.23783523  0.25369050  0.88198142  1
  O  O324  1  0.24409299  0.74713401  0.38007905  1
  O  O325  1  0.24317323  0.74728121  0.88089520  1
  O  O326  1  0.73818468  0.24517132  0.36777056  1
  O  O327  1  0.73713824  0.24824048  0.87162220  1
  O  O328  1  0.74243901  0.74337836  0.37409350  1
  O  O329  1  0.73855862  0.74487830  0.87358297  1
  O  O330  1  0.00664798  0.12088808  0.00778566  1
  O  O331  1  0.00882771  0.11658331  0.50151506  1
  O  O332  1  0.00556331  0.61951170  0.00511432  1
  O  O333  1  0.00483699  0.61914857  0.50443279  1
  O  O334  1  0.51202305  0.13143810  0.01242527  1
  O  O335  1  0.51238494  0.11933312  0.50002530  1
  O  O336  1  0.50631255  0.61827392  0.00155695  1
  O  O337  1  0.51184463  0.63174695  0.50586161  1
  O  O338  1  0.50171069  0.37070087  0.48492922  1
  O  O339  1  0.49410699  0.37896305  0.99553726  1
  O  O340  1  0.49383544  0.88034704  0.49544557  1
  O  O341  1  0.50262341  0.87445872  0.98346616  1
  O  O342  1  0.99500755  0.38042293  0.49392495  1
  O  O343  1  0.99342808  0.38148975  1.00079794  1
  O  O344  1  1.00175271  0.88357572  0.49291091  1
  O  O345  1  0.99604223  0.88004683  0.99467487  1
  O  O346  1  0.50513213  0.48416664  0.36726984  1
  O  O347  1  0.49981073  0.49268470  0.88094672  1
  O  O348  1  0.49541102  0.99486637  0.37960017  1
  O  O349  1  0.50039813  0.98519431  0.87267843  1
  O  O350  1  0.99503456  0.49424112  0.38027434  1
  O  O351  1  0.99337548  0.49826318  0.88177816  1
  O  O352  1  0.99494936  0.99514371  0.38256748  1
  O  O353  1  0.99197024  0.99326102  0.88146251  1
  O  O354  1  -0.00457443  0.01183329  0.11927244  1
  O  O355  1  -0.00729120  -0.00022501  0.61115970  1
  O  O356  1  0.00614421  0.50579449  0.11983342  1
  O  O357  1  0.00470583  0.50435209  0.61920842  1
  O  O358  1  0.50853124  0.00991559  0.12986202  1
  O  O359  1  0.50737097  0.00103695  0.61755120  1
  O  O360  1  0.50960912  0.49935105  0.11990901  1
  O  O361  1  0.51217751  0.50506512  0.63159433  1
  O  O362  1  0.24447963  0.38029738  0.24550603  1
  O  O363  1  0.24293913  0.37387800  0.74259524  1
  O  O364  1  0.24278232  0.88069922  0.24354767  1
  O  O365  1  0.23712321  0.86986648  0.73819871  1
  O  O366  1  0.74804727  0.37865700  0.23830981  1
  O  O367  1  0.74816926  0.38208996  0.73768585  1
  O  O368  1  0.74677759  0.88434913  0.24597039  1
  O  O369  1  0.74687673  0.88548747  0.74276332  1
  O  O370  1  0.24861200  0.11375109  0.24963052  1
  O  O371  1  0.26556871  0.12617756  0.74289714  1
  O  O372  1  0.24783949  0.61946009  0.25666758  1
  O  O373  1  0.25421542  0.62737655  0.75600741  1
  O  O374  1  0.75658796  0.12025329  0.25603685  1
  O  O375  1  0.75093926  0.11202570  0.75176511  1
  O  O376  1  0.75727763  0.62264346  0.25706485  1
  O  O377  1  0.75470521  0.61948643  0.75425208  1
  O  O378  1  0.37285437  0.11810432  0.37321155  1
  O  O379  1  0.38103508  0.12619346  0.85890135  1
  O  O380  1  0.36564524  0.62714642  0.37171165  1
  O  O381  1  0.36770312  0.62649838  0.86808144  1
  O  O382  1  0.87116587  0.12105072  0.37022992  1
  O  O383  1  0.87166814  0.11665717  0.87392331  1
  O  O384  1  0.87063863  0.61954729  0.37034323  1
  O  O385  1  0.86871177  0.61903350  0.86899115  1
  O  O386  1  0.12999806  0.38027629  0.13027243  1
  O  O387  1  0.12914624  0.37877928  0.62985020  1
  O  O388  1  0.13372453  0.86817604  0.13804165  1
  O  O389  1  0.13232667  0.86966984  0.63307167  1
  O  O390  1  0.63320330  0.38406061  0.12316325  1
  O  O391  1  0.63226507  0.38179455  0.62405459  1
  O  O392  1  0.62318479  0.88898480  0.12430307  1
  O  O393  1  0.63257692  0.88171221  0.62682792  1
  O  O394  1  0.12023956  0.25577407  0.25566722  1
  O  O395  1  0.11910079  0.25228184  0.75630087  1
  O  O396  1  0.11971756  0.75828659  0.25493140  1
  O  O397  1  0.11681892  0.75814923  0.75497435  1
  O  O398  1  0.61672832  0.25120379  0.26087149  1
  O  O399  1  0.61588561  0.24880576  0.75687701  1
  O  O400  1  0.61488159  0.75142480  0.25428284  1
  O  O401  1  0.61679241  0.74910936  0.76040573  1
  O  O402  1  0.38824095  0.24876149  0.24965820  1
  O  O403  1  0.38195774  0.24255404  0.74324782  1
  O  O404  1  0.38370864  0.75058639  0.24148742  1
  O  O405  1  0.37809597  0.74563117  0.74334401  1
  O  O406  1  0.88314799  0.24264688  0.24894530  1
  O  O407  1  0.88383782  0.24991193  0.74237671  1
  O  O408  1  0.88183915  0.74426429  0.24480928  1
  O  O409  1  0.88072767  0.74246376  0.74902865  1
  O  O410  1  0.37393286  0.49770198  0.49477566  1
  O  O411  1  0.38097030  0.49364638  0.99906061  1
  O  O412  1  0.38024170  0.99601124  0.49584002  1
  O  O413  1  0.38498389  1.01498005  1.00011037  1
  O  O414  1  0.88076434  0.49358116  0.49425244  1
  O  O415  1  0.88037808  0.49545801  0.99418065  1
  O  O416  1  0.88511806  0.99928099  0.49234696  1
  O  O417  1  0.88064047  0.99428532  0.99565909  1
  O  O418  1  0.11678272  0.01231172  -0.00883903  1
  O  O419  1  0.11578536  0.00986578  0.49219719  1
  O  O420  1  0.12034982  0.50528807  0.00527121  1
  O  O421  1  0.11868380  0.50552063  0.50573989  1
  O  O422  1  0.61908994  0.00906385  0.00861566  1
  O  O423  1  0.61983049  0.00871890  0.50352674  1
  O  O424  1  0.61892526  0.50377228  0.00677389  1
  O  O425  1  0.62917872  0.51086944  0.51114278  1
  O  O426  1  0.36869600  0.37362540  0.11904667  1
  O  O427  1  0.37061380  0.36463024  0.62683925  1
  O  O428  1  0.36322163  0.86496644  0.13036612  1
  O  O429  1  0.36640714  0.87016753  0.62046162  1
  O  O430  1  0.86575731  0.37552852  0.11872747  1
  O  O431  1  0.86818813  0.36834536  0.62013364  1
  O  O432  1  0.87604534  0.86792304  0.11879032  1
  O  O433  1  0.86192704  0.87285594  0.62386975  1
  O  O434  1  0.12761818  0.13315617  0.38563617  1
  O  O435  1  0.11886661  0.13612798  0.88615165  1
  O  O436  1  0.12855365  0.63124769  0.38086047  1
  O  O437  1  0.12904898  0.63121330  0.87988580  1
  O  O438  1  0.63054676  0.13208348  0.38166479  1
  O  O439  1  0.62155878  0.13282246  0.88389693  1
  O  O440  1  0.62847869  0.62885457  0.38229773  1
  O  O441  1  0.62742657  0.63294354  0.87807821  1
