# generated using pymatgen
data_V93Zn93O256
_symmetry_space_group_name_H-M   'P 1'
_cell_length_a   17.05263523
_cell_length_b   17.05736602
_cell_length_c   17.05542449
_cell_angle_alpha   89.93669524
_cell_angle_beta   90.02713594
_cell_angle_gamma   90.02644069
_symmetry_Int_Tables_number   1
_chemical_formula_structural   V93Zn93O256
_chemical_formula_sum   'V93 Zn93 O256'
_cell_volume   4960.95907176
_cell_formula_units_Z   1
loop_
 _symmetry_equiv_pos_site_id
 _symmetry_equiv_pos_as_xyz
  1  'x, y, z'
loop_
 _atom_site_type_symbol
 _atom_site_label
 _atom_site_symmetry_multiplicity
 _atom_site_fract_x
 _atom_site_fract_y
 _atom_site_fract_z
 _atom_site_occupancy
  V  V0  1  0.62543212  0.49981753  0.62527265  1
  V  V1  1  0.12325624  -0.00116627  0.12302669  1
  V  V2  1  0.25240117  0.49915517  0.25531206  1
  V  V3  1  0.00005944  0.37430311  0.37420877  1
  V  V4  1  0.12030664  0.74808019  0.87248907  1
  V  V5  1  0.87562456  0.24969599  0.62621425  1
  V  V6  1  0.49726562  0.37821541  0.37409897  1
  V  V7  1  0.12513563  0.74964787  0.37556427  1
  V  V8  1  0.75084657  0.00075181  0.25030142  1
  V  V9  1  0.00088700  0.62477257  0.12617895  1
  V  V10  1  0.37629421  0.37491286  -0.00058886  1
  V  V11  1  0.24992186  0.87434995  0.12570913  1
  V  V12  1  0.25022127  0.00009456  0.25057279  1
  V  V13  1  0.62521827  0.37525883  0.74929019  1
  V  V14  1  -0.00034779  0.24927609  0.25022567  1
  V  V15  1  0.25092078  0.62511526  0.87458794  1
  V  V16  1  0.74998156  0.12613400  0.37538214  1
  V  V17  1  0.50016898  0.12406090  0.62453853  1
  V  V18  1  0.12369304  -0.00002524  0.62548201  1
  V  V19  1  0.24902160  0.87236294  0.62448982  1
  V  V20  1  0.49696381  0.50142686  0.49707161  1
  V  V21  1  0.12417231  0.24910699  0.87581072  1
  V  V22  1  0.12215950  0.50183224  0.62635522  1
  V  V23  1  0.75002352  0.25026886  0.49994888  1
  V  V24  1  0.75273688  0.62606344  0.87137852  1
  V  V25  1  0.00118400  0.50151192  0.50232462  1
  V  V26  1  0.25151343  0.12474778  0.37412197  1
  V  V27  1  0.75454216  0.00015536  0.75206777  1
  V  V28  1  0.12418774  0.24938095  0.37496694  1
  V  V29  1  0.12047074  0.12044736  -0.00024959  1
  V  V30  1  0.62553701  0.74732869  0.87999203  1
  V  V31  1  0.74720632  0.50104643  0.24399157  1
  V  V32  1  0.24850261  0.24974247  0.00075942  1
  V  V33  1  0.00068233  0.24948262  0.75033641  1
  V  V34  1  0.00031622  0.12454304  0.62567464  1
  V  V35  1  0.87501705  -0.00091727  0.37397138  1
  V  V36  1  0.37416495  0.87609358  0.00090618  1
  V  V37  1  0.12529689  0.49984579  0.12555338  1
  V  V38  1  0.11727876  0.87142086  0.75065497  1
  V  V39  1  -0.00071191  0.87562445  0.37231299  1
  V  V40  1  0.37490149  0.25061536  0.62516457  1
  V  V41  1  0.12492238  0.12458283  0.50036010  1
  V  V42  1  0.37499263  0.74954978  0.12568814  1
  V  V43  1  0.49979520  0.62570059  0.62593472  1
  V  V44  1  0.37505606  -0.00089956  0.87483727  1
  V  V45  1  0.00042676  0.49886537  0.00327442  1
  V  V46  1  0.37630314  0.49960546  0.87701280  1
  V  V47  1  0.87636563  0.50077605  0.87326619  1
  V  V48  1  0.25270763  0.62300428  0.37691485  1
  V  V49  1  0.00063445  0.74993933  0.24973080  1
  V  V50  1  0.37455450  0.12353127  0.75030458  1
  V  V51  1  0.62618412  0.25169408  0.37560027  1
  V  V52  1  0.87506790  0.87384367  0.49930980  1
  V  V53  1  0.25058463  0.37570688  0.62476974  1
  V  V54  1  -0.00479688  0.87993284  0.88641316  1
  V  V55  1  0.62551602  -0.00013414  0.62545578  1
  V  V56  1  0.87494467  0.12464129  0.25071457  1
  V  V57  1  0.74964186  0.37572831  0.62489577  1
  V  V58  1  0.62454829  0.00011017  0.12504286  1
  V  V59  1  0.74662964  0.37892018  0.12305733  1
  V  V60  1  0.74944694  0.62552999  0.37526129  1
  V  V61  1  0.62575954  0.87398278  0.75077927  1
  V  V62  1  0.25012730  0.37582373  0.12611429  1
  V  V63  1  0.74947550  0.12569402  0.87500438  1
  V  V64  1  0.25098318  0.49910915  0.75253411  1
  V  V65  1  0.49990917  0.37574972  0.87344741  1
  V  V66  1  0.75274701  0.87299463  0.62525184  1
  V  V67  1  0.62414241  0.37914095  0.24548347  1
  V  V68  1  0.12577871  0.37292903  0.75056683  1
  V  V69  1  0.75447025  0.87490553  0.11772588  1
  V  V70  1  0.37531342  0.62177607  0.25454193  1
  V  V71  1  0.50080888  0.87578354  0.37556194  1
  V  V72  1  0.12454510  0.87355220  0.25007428  1
  V  V73  1  0.50074279  0.00169577  0.00106287  1
  V  V74  1  0.87478944  0.50043873  0.37518203  1
  V  V75  1  0.12084414  0.62463243  0.50525674  1
  V  V76  1  0.50607992  0.61865107  0.12311051  1
  V  V77  1  0.87677742  0.75332726  0.11875932  1
  V  V78  1  0.50005282  -0.00025815  0.50052032  1
  V  V79  1  0.37407289  0.37830802  0.49695307  1
  V  V80  1  0.88632184  0.74264456  0.63059668  1
  V  V81  1  -0.00192579  0.12051022  0.12259200  1
  V  V82  1  0.50039469  0.25024507  0.75005992  1
  V  V83  1  0.74820375  0.25187033  -0.00042420  1
  V  V84  1  0.87508172  0.37597543  0.50039400  1
  V  V85  1  0.25026047  0.75024653  0.50264258  1
  V  V86  1  0.87385839  0.37591158  0.00064853  1
  V  V87  1  0.62564928  0.87614775  0.25054369  1
  V  V88  1  0.37684531  0.24711194  0.12736045  1
  V  V89  1  0.62685665  0.75099961  0.37637404  1
  V  V90  1  0.37454343  0.87447293  0.49997531  1
  V  V91  1  0.25055695  -0.00129334  0.75027782  1
  V  V92  1  0.49906906  0.74968331  0.75023082  1
  Zn  Zn93  1  0.87578291  0.62578628  0.24960100  1
  Zn  Zn94  1  0.87677107  0.12418139  0.75142837  1
  Zn  Zn95  1  0.12430921  0.37504936  0.25058299  1
  Zn  Zn96  1  0.50034480  0.75004856  0.25061447  1
  Zn  Zn97  1  0.50081220  0.24807664  0.25066700  1
  Zn  Zn98  1  0.12765257  0.62509470  0.00132040  1
  Zn  Zn99  1  0.62317467  0.12751912  0.00172183  1
  Zn  Zn100  1  0.87475454  0.25098231  0.12589972  1
  Zn  Zn101  1  0.75644442  0.75246770  -0.00337952  1
  Zn  Zn102  1  0.89325049  0.62452049  0.74868083  1
  Zn  Zn103  1  0.62379580  0.25102795  0.87462017  1
  Zn  Zn104  1  0.50924338  0.49521292  0.00303672  1
  Zn  Zn105  1  0.37480415  0.62507373  0.75190501  1
  Zn  Zn106  1  0.50270400  0.12579812  0.12899860  1
  Zn  Zn107  1  0.75405600  0.50158938  0.74683701  1
  Zn  Zn108  1  0.24887194  0.12375456  0.87564490  1
  Zn  Zn109  1  0.37204864  0.74919608  0.62687257  1
  Zn  Zn110  1  0.62465357  0.12538975  0.49976218  1
  Zn  Zn111  1  0.63418618  0.61712140  0.00838495  1
  Zn  Zn112  1  0.25022988  0.25028842  0.49956767  1
  Zn  Zn113  1  0.62408875  0.62546079  0.49973425  1
  Zn  Zn114  1  0.25032848  0.74913846  -0.00175302  1
  Zn  Zn115  1  0.87747676  -0.00033158  0.88956151  1
  Zn  Zn116  1  0.75208673  0.74767695  0.50341892  1
  Zn  Zn117  1  0.37696653  0.00042058  0.37350558  1
  Zn  Zn118  1  -0.00002797  0.37347446  0.87680598  1
  Zn  Zn119  1  -0.00092976  0.00033954  0.49971494  1
  Zn  Zn120  1  0.49941893  0.87363852  0.87559767  1
  Zn  Zn121  1  0.37841364  0.12343981  0.25060192  1
  Zn  Zn122  1  0.18635855  0.18766548  0.18802972  1
  Zn  Zn123  1  0.18897249  0.18718060  0.68709384  1
  Zn  Zn124  1  0.18814421  0.68576198  0.18789222  1
  Zn  Zn125  1  0.06701828  0.68885157  0.68835440  1
  Zn  Zn126  1  0.68583531  0.18954470  0.18720924  1
  Zn  Zn127  1  0.68661292  0.18750255  0.68723777  1
  Zn  Zn128  1  0.69002791  0.69178072  0.19048530  1
  Zn  Zn129  1  0.68951288  0.68780920  0.68883911  1
  Zn  Zn130  1  0.31239119  0.31145034  0.31248141  1
  Zn  Zn131  1  0.31201896  0.31086069  0.81384708  1
  Zn  Zn132  1  0.31287722  0.81110334  0.31392243  1
  Zn  Zn133  1  0.31009088  0.81249192  0.81217822  1
  Zn  Zn134  1  0.81292357  0.31296393  0.31176227  1
  Zn  Zn135  1  0.81269259  0.31355816  0.81170003  1
  Zn  Zn136  1  0.81468169  0.81353291  0.30680802  1
  Zn  Zn137  1  0.81515535  0.81095232  0.80979387  1
  Zn  Zn138  1  0.18622331  0.43779009  0.43675181  1
  Zn  Zn139  1  0.18722871  0.43634833  0.93903727  1
  Zn  Zn140  1  0.18705316  0.93910556  0.43793061  1
  Zn  Zn141  1  0.18782872  0.93656075  0.93705041  1
  Zn  Zn142  1  0.68531466  0.43864187  0.43680249  1
  Zn  Zn143  1  0.68529954  0.44089954  0.93579718  1
  Zn  Zn144  1  0.68894116  0.93780526  0.44014901  1
  Zn  Zn145  1  0.68583727  0.93779896  0.93660049  1
  Zn  Zn146  1  0.30987726  0.06308873  0.06224584  1
  Zn  Zn147  1  0.31252309  0.06032743  0.56169540  1
  Zn  Zn148  1  0.31509446  0.56076220  0.06223800  1
  Zn  Zn149  1  0.31115625  0.56365894  0.56566138  1
  Zn  Zn150  1  0.80847562  0.06679090  0.06350292  1
  Zn  Zn151  1  0.81367778  0.06249886  0.56167561  1
  Zn  Zn152  1  0.81499229  0.56705112  0.06034873  1
  Zn  Zn153  1  0.81289865  0.56329713  0.56091029  1
  Zn  Zn154  1  0.43541225  0.43751230  0.18746552  1
  Zn  Zn155  1  0.43679330  0.43856994  0.68792017  1
  Zn  Zn156  1  0.43783263  0.93839757  0.18960523  1
  Zn  Zn157  1  0.43703638  0.93581972  0.68638767  1
  Zn  Zn158  1  0.93429795  0.43690184  0.18814685  1
  Zn  Zn159  1  0.94045955  0.43718784  0.68810196  1
  Zn  Zn160  1  0.93479808  0.93889727  0.06521178  1
  Zn  Zn161  1  0.93781647  0.93470267  0.68843597  1
  Zn  Zn162  1  0.06205128  0.06083835  0.31041449  1
  Zn  Zn163  1  0.06221009  0.06043626  0.81270357  1
  Zn  Zn164  1  0.06477896  0.56298480  0.31395731  1
  Zn  Zn165  1  0.06544188  0.55768383  0.81734486  1
  Zn  Zn166  1  0.56264394  0.06415709  0.31240668  1
  Zn  Zn167  1  0.56361079  0.06275183  0.81365830  1
  Zn  Zn168  1  0.56234358  0.56299559  0.31076512  1
  Zn  Zn169  1  0.56475064  0.56110084  0.81348412  1
  Zn  Zn170  1  0.43803899  0.18997716  0.43840552  1
  Zn  Zn171  1  0.43616362  0.18715753  0.93718001  1
  Zn  Zn172  1  0.43784623  0.69054979  0.43755744  1
  Zn  Zn173  1  0.43708107  0.68676976  0.94001540  1
  Zn  Zn174  1  0.93770168  0.18711023  0.43903651  1
  Zn  Zn175  1  0.93489617  0.18733430  0.93688781  1
  Zn  Zn176  1  0.93676629  0.68859560  0.43913732  1
  Zn  Zn177  1  0.94205986  0.68635706  0.93726252  1
  Zn  Zn178  1  0.06213485  0.31138791  0.06421456  1
  Zn  Zn179  1  0.06318341  0.31258246  0.56203665  1
  Zn  Zn180  1  0.06657569  0.80764031  0.06011740  1
  Zn  Zn181  1  0.06242677  0.81656809  0.55759844  1
  Zn  Zn182  1  0.56193823  0.31373496  0.06198571  1
  Zn  Zn183  1  0.56259873  0.31227545  0.56255620  1
  Zn  Zn184  1  0.56181774  0.81246684  0.06357089  1
  Zn  Zn185  1  0.56418397  0.81342652  0.56216527  1
  O  O186  1  0.11765287  0.12034624  0.11898222  1
  O  O187  1  0.12051520  0.11979469  0.62043553  1
  O  O188  1  0.11957459  0.61861540  0.12362908  1
  O  O189  1  0.12498890  0.62056782  0.61089833  1
  O  O190  1  0.62446167  0.11625273  0.12216957  1
  O  O191  1  0.61804009  0.11812069  0.62397373  1
  O  O192  1  0.60855333  0.63631388  0.12863383  1
  O  O193  1  0.61524546  0.62072138  0.62328168  1
  O  O194  1  0.38504500  0.36959686  0.38510412  1
  O  O195  1  0.37963627  0.37930358  0.88015687  1
  O  O196  1  0.38239579  0.87486638  0.38152635  1
  O  O197  1  0.37632229  0.88070267  0.88199652  1
  O  O198  1  0.87933689  0.38065299  0.38138861  1
  O  O199  1  0.87461704  0.38556336  0.88124798  1
  O  O200  1  0.87906870  0.87889809  0.37867896  1
  O  O201  1  0.89405355  0.86918266  0.87063053  1
  O  O202  1  0.24946228  0.00965136  0.36934250  1
  O  O203  1  0.25676514  0.00072736  0.86812512  1
  O  O204  1  0.24479527  0.50623448  0.36332925  1
  O  O205  1  0.25577563  0.50426191  0.87289080  1
  O  O206  1  0.75376824  0.00594632  0.37054198  1
  O  O207  1  0.74895453  0.00675553  0.86697534  1
  O  O208  1  0.75366589  0.50719204  0.36793727  1
  O  O209  1  0.76165643  0.50874195  0.87366095  1
  O  O210  1  0.24602365  0.49573135  0.13347739  1
  O  O211  1  0.24352618  0.49511276  0.63167473  1
  O  O212  1  0.24386065  0.99391351  0.13094939  1
  O  O213  1  0.24375076  0.99270531  0.63023100  1
  O  O214  1  0.75611712  0.49781059  0.13735059  1
  O  O215  1  0.74415988  0.49437343  0.62406423  1
  O  O216  1  0.74402232  0.99272645  0.13102504  1
  O  O217  1  0.74639756  0.99510253  0.63369081  1
  O  O218  1  -0.00035468  0.36852286  0.25686347  1
  O  O219  1  0.00874590  0.36711993  0.75177249  1
  O  O220  1  0.01121858  0.86428670  0.25823687  1
  O  O221  1  0.01322559  0.87944860  0.75952320  1
  O  O222  1  0.50670686  0.37878284  0.25870019  1
  O  O223  1  0.50444461  0.36926524  0.75318280  1
  O  O224  1  0.50763672  0.87375619  0.25718845  1
  O  O225  1  0.50645525  0.86491529  0.75013318  1
  O  O226  1  0.49608764  0.13005262  0.24761901  1
  O  O227  1  0.49456097  0.12933444  0.74450889  1
  O  O228  1  0.49166944  0.62565066  0.24207805  1
  O  O229  1  0.50081087  0.63292407  0.74207127  1
  O  O230  1  0.99564979  0.12944786  0.24179382  1
  O  O231  1  0.99891197  0.13084241  0.74411815  1
  O  O232  1  1.00029148  0.63208469  0.24533781  1
  O  O233  1  1.00527175  0.62262879  0.75159362  1
  O  O234  1  0.36883057  0.25474771  0.00741192  1
  O  O235  1  0.37478623  0.26245239  0.50679087  1
  O  O236  1  0.37435973  0.75660582  0.01047576  1
  O  O237  1  0.36851123  0.75637755  0.50180762  1
  O  O238  1  0.86304604  0.25664867  -0.00007420  1
  O  O239  1  0.87010051  0.25689295  0.50594766  1
  O  O240  1  0.87707860  0.74591884  0.01454003  1
  O  O241  1  0.87396212  0.75552353  0.51071077  1
  O  O242  1  0.12740434  0.24324019  0.49337017  1
  O  O243  1  0.12955789  0.24219141  0.99626008  1
  O  O244  1  0.12944991  0.74262249  0.49512660  1
  O  O245  1  0.13136559  0.74640075  0.98858713  1
  O  O246  1  0.63231660  0.25054058  0.49383827  1
  O  O247  1  0.63664553  0.25114491  0.99736229  1
  O  O248  1  0.62866848  0.74902174  0.48762600  1
  O  O249  1  0.62327457  0.74606624  0.98763492  1
  O  O250  1  0.48860923  0.24967879  0.12532133  1
  O  O251  1  0.49429941  0.24477162  0.62997792  1
  O  O252  1  0.48883575  0.74317204  0.12830599  1
  O  O253  1  0.50235021  0.74191483  0.63317694  1
  O  O254  1  0.99894157  0.23906147  0.13172489  1
  O  O255  1  0.99567553  0.24486109  0.63035792  1
  O  O256  1  0.99557369  0.74602738  0.12980108  1
  O  O257  1  0.99109467  0.75138933  0.62209974  1
  O  O258  1  0.00432194  0.25431237  0.36999527  1
  O  O259  1  0.00559279  0.25089528  0.86866352  1
  O  O260  1  0.00583465  0.75455680  0.37037896  1
  O  O261  1  0.01263764  0.76120454  0.88166780  1
  O  O262  1  0.50620733  0.26313949  0.37569917  1
  O  O263  1  0.50017756  0.25632670  0.86781730  1
  O  O264  1  0.51114931  0.75556028  0.37379352  1
  O  O265  1  0.50792662  0.74792224  0.86668395  1
  O  O266  1  0.24445005  0.12545809  0.49067303  1
  O  O267  1  0.23795580  0.13181388  1.00022761  1
  O  O268  1  0.24308221  0.62857726  0.49592685  1
  O  O269  1  0.25114641  0.62446543  0.98786263  1
  O  O270  1  0.74905935  0.13225066  0.49349252  1
  O  O271  1  0.74743065  0.13611473  0.99216816  1
  O  O272  1  0.74573373  0.62470109  0.48632921  1
  O  O273  1  0.75100882  0.63070752  0.98671163  1
  O  O274  1  0.25613857  0.36927639  0.00666093  1
  O  O275  1  0.25991437  0.37705996  0.50422305  1
  O  O276  1  0.25678045  0.87448368  0.00856491  1
  O  O277  1  0.25407209  0.87055312  0.50376346  1
  O  O278  1  0.75345640  0.36961304  0.00315953  1
  O  O279  1  0.75546331  0.37091079  0.50448883  1
  O  O280  1  0.74120140  0.87138691  0.01422957  1
  O  O281  1  0.75774997  0.87297166  0.50733936  1
  O  O282  1  0.13593717  0.49953924  0.24421172  1
  O  O283  1  0.13218393  0.49157465  0.74624426  1
  O  O284  1  0.13051177  0.99343149  0.24297500  1
  O  O285  1  0.13124346  0.99215551  0.74519428  1
  O  O286  1  0.63599304  0.48989192  0.25753022  1
  O  O287  1  0.62743676  0.49324758  0.74220457  1
  O  O288  1  0.63152576  0.99499884  0.24544617  1
  O  O289  1  0.63381206  0.99438315  0.74580951  1
  O  O290  1  0.36566384  0.00217749  0.25292625  1
  O  O291  1  0.37089491  0.00361384  0.75457679  1
  O  O292  1  0.36361834  0.51074890  0.24401558  1
  O  O293  1  0.36826289  0.50013054  0.75764664  1
  O  O294  1  0.86471268  0.01035904  0.25961172  1
  O  O295  1  0.86189165  -0.00122899  0.75300443  1
  O  O296  1  0.86379907  0.50098395  0.25782561  1
  O  O297  1  0.87599848  0.50119602  0.76094579  1
  O  O298  1  0.11801034  0.36807062  0.37422135  1
  O  O299  1  0.12402181  0.36745678  0.86899234  1
  O  O300  1  0.12119738  0.86875753  0.37111330  1
  O  O301  1  0.11822668  0.86884046  0.87004435  1
  O  O302  1  0.61749677  0.37127194  0.36740511  1
  O  O303  1  0.61846083  0.37379274  0.86600421  1
  O  O304  1  0.62259759  0.86832971  0.37114370  1
  O  O305  1  0.62390023  0.86372330  0.86903781  1
  O  O306  1  0.37382389  0.13712693  0.12520412  1
  O  O307  1  0.38017859  0.12959662  0.63011744  1
  O  O308  1  0.38147162  0.63245296  0.13370273  1
  O  O309  1  0.38772346  0.62673633  0.62856039  1
  O  O310  1  0.88297523  0.12760877  0.13170509  1
  O  O311  1  0.88129301  0.13188723  0.62674404  1
  O  O312  1  0.88211633  0.63372614  0.12882096  1
  O  O313  1  0.87179856  0.63957818  0.62394902  1
  O  O314  1  0.25653324  0.25578632  0.12128148  1
  O  O315  1  0.25697165  0.25748570  0.62282836  1
  O  O316  1  0.26024340  0.75403265  0.12471536  1
  O  O317  1  0.25208866  0.76036868  0.61399866  1
  O  O318  1  0.75081506  0.25745070  0.11485187  1
  O  O319  1  0.75530700  0.25557523  0.61975277  1
  O  O320  1  0.75895287  0.75746873  0.12543029  1
  O  O321  1  0.75874675  0.75603910  0.62423670  1
  O  O322  1  0.24387239  0.24091853  0.37573464  1
  O  O323  1  0.24298302  0.24702740  0.88223020  1
  O  O324  1  0.24416907  0.74389350  0.38223918  1
  O  O325  1  0.24207763  0.74209198  0.87516377  1
  O  O326  1  0.74618760  0.24640033  0.38071476  1
  O  O327  1  0.74924349  0.24334478  0.88187282  1
  O  O328  1  0.74390890  0.74175992  0.37307536  1
  O  O329  1  0.74369387  0.74463105  0.87423060  1
  O  O330  1  0.01012801  0.13383751  0.00964526  1
  O  O331  1  0.00692460  0.12336625  0.50725115  1
  O  O332  1  0.00282794  0.61601203  0.00859090  1
  O  O333  1  0.01309063  0.61729126  0.48988769  1
  O  O334  1  0.50094532  0.11300606  0.00178201  1
  O  O335  1  0.50072823  0.11890796  0.50665471  1
  O  O336  1  0.49802744  0.62504055  0.01723235  1
  O  O337  1  0.49909342  0.61737287  0.50679793  1
  O  O338  1  0.49371768  0.38247215  0.49443925  1
  O  O339  1  0.49351873  0.37444285  0.99201931  1
  O  O340  1  0.49531127  0.87984197  0.49591676  1
  O  O341  1  0.49347502  0.88523296  0.99984767  1
  O  O342  1  0.99433753  0.38017673  0.49346050  1
  O  O343  1  0.99190670  0.38006246  1.00092753  1
  O  O344  1  0.99357214  0.87783039  0.48974633  1
  O  O345  1  1.00415665  0.87762798  0.99147455  1
  O  O346  1  0.50580269  0.49035488  0.38544861  1
  O  O347  1  0.49237230  0.49318648  0.87351914  1
  O  O348  1  0.50064161  0.99333088  0.38243439  1
  O  O349  1  0.49530558  0.99757125  0.88386212  1
  O  O350  1  0.99507143  0.49434251  0.38016246  1
  O  O351  1  0.99081247  0.49695714  0.88416010  1
  O  O352  1  0.99305641  0.99334389  0.37461448  1
  O  O353  1  0.99907014  0.98449626  0.87307655  1
  O  O354  1  0.00670694  0.01384766  0.12329001  1
  O  O355  1  0.00584865  0.00605348  0.62517537  1
  O  O356  1  0.00441326  0.50453602  0.12316812  1
  O  O357  1  0.00927124  0.49233208  0.61461034  1
  O  O358  1  0.50499222  -0.00023487  0.11608650  1
  O  O359  1  0.50581310  0.00441437  0.62106361  1
  O  O360  1  0.49557724  0.51606180  0.12707876  1
  O  O361  1  0.50469218  0.50743730  0.61829580  1
  O  O362  1  0.25100912  0.38496040  0.24604270  1
  O  O363  1  0.24575926  0.37908534  0.74448215  1
  O  O364  1  0.24390414  0.87902454  0.24575227  1
  O  O365  1  0.24069568  0.87991179  0.74495341  1
  O  O366  1  0.74314519  0.38265458  0.24564456  1
  O  O367  1  0.74390705  0.37680594  0.74190661  1
  O  O368  1  0.74465843  0.88095911  0.24089328  1
  O  O369  1  0.74583043  0.88280307  0.74651322  1
  O  O370  1  0.24885445  0.11927970  0.25974569  1
  O  O371  1  0.25692954  0.11706212  0.75039057  1
  O  O372  1  0.25705966  0.61824955  0.25524449  1
  O  O373  1  0.25407605  0.61484246  0.76793856  1
  O  O374  1  0.75425179  0.12211685  0.25603420  1
  O  O375  1  0.75008250  0.11683467  0.75721505  1
  O  O376  1  0.74909189  0.61689171  0.25893359  1
  O  O377  1  0.75495165  0.62372332  0.76210126  1
  O  O378  1  0.36259662  0.12585036  0.37519326  1
  O  O379  1  0.37279959  0.11768952  0.86789187  1
  O  O380  1  0.37061223  0.63258927  0.36189832  1
  O  O381  1  0.36913235  0.61885519  0.87563690  1
  O  O382  1  0.86946997  0.12043188  0.37134608  1
  O  O383  1  0.86189753  0.12227946  0.87224163  1
  O  O384  1  0.86480178  0.62057931  0.37370996  1
  O  O385  1  0.87036773  0.61811179  0.87387705  1
  O  O386  1  0.13244108  0.38072020  0.12806026  1
  O  O387  1  0.13215752  0.37994392  0.62988391  1
  O  O388  1  0.13023728  0.87846914  0.12987438  1
  O  O389  1  0.12795965  0.87898437  0.63224817  1
  O  O390  1  0.62911668  0.37134190  0.13828564  1
  O  O391  1  0.62979916  0.38026170  0.62923866  1
  O  O392  1  0.63175580  0.87875114  0.13169521  1
  O  O393  1  0.63196180  0.87963191  0.63123526  1
  O  O394  1  0.11777816  0.25159821  0.25701767  1
  O  O395  1  0.12093956  0.25364288  0.75533928  1
  O  O396  1  0.12238338  0.75336699  0.25666491  1
  O  O397  1  0.12590793  0.76127271  0.75981462  1
  O  O398  1  0.62490009  0.26310143  0.25703188  1
  O  O399  1  0.61753175  0.25700867  0.74953333  1
  O  O400  1  0.62472120  0.75709333  0.26202171  1
  O  O401  1  0.61731249  0.75362683  0.75807294  1
  O  O402  1  0.37633888  0.25045413  0.23825248  1
  O  O403  1  0.38032544  0.24439861  0.74445849  1
  O  O404  1  0.37488379  0.74108884  0.24128058  1
  O  O405  1  0.38787400  0.74922085  0.74947048  1
  O  O406  1  0.88084219  0.24271458  0.24983034  1
  O  O407  1  0.88186624  0.24975572  0.74323860  1
  O  O408  1  0.88267689  0.74820724  0.23899889  1
  O  O409  1  0.87552438  0.74935529  0.73308921  1
  O  O410  1  0.38583855  0.48994781  0.50728665  1
  O  O411  1  0.37997708  0.49135818  0.99502322  1
  O  O412  1  0.38204005  0.99236266  0.49784595  1
  O  O413  1  0.38171193  0.99606786  0.99647067  1
  O  O414  1  0.88067599  0.49511540  0.49479622  1
  O  O415  1  0.87961770  0.49561272  0.99246478  1
  O  O416  1  0.87590146  0.99256979  0.49245311  1
  O  O417  1  0.86796561  0.99892390  1.00048696  1
  O  O418  1  0.13158904  0.01293045  0.00587840  1
  O  O419  1  0.12276553  0.00595350  0.50803150  1
  O  O420  1  0.11853296  0.49960927  0.00799901  1
  O  O421  1  0.12223927  0.50732812  0.50516315  1
  O  O422  1  0.61493673  -0.00051282  0.00531625  1
  O  O423  1  0.61878909  0.00083791  0.50817132  1
  O  O424  1  0.62140390  0.50583042  -0.00180145  1
  O  O425  1  0.61262035  0.50027507  0.50613807  1
  O  O426  1  0.37029011  0.36724079  0.11989180  1
  O  O427  1  0.37087782  0.37082965  0.61695344  1
  O  O428  1  0.37029594  0.86684471  0.12274941  1
  O  O429  1  0.36772052  0.87344384  0.61814239  1
  O  O430  1  0.86563068  0.37329452  0.11824371  1
  O  O431  1  0.86983728  0.37022373  0.61922997  1
  O  O432  1  0.86531852  0.86592491  0.12515412  1
  O  O433  1  0.87263371  0.86527439  0.62027838  1
  O  O434  1  0.13219855  0.12863567  0.37954296  1
  O  O435  1  0.12420296  0.12952725  0.88440441  1
  O  O436  1  0.13290117  0.63015396  0.38410323  1
  O  O437  1  0.13379731  0.63206395  0.87755826  1
  O  O438  1  0.63242927  0.13351895  0.37645251  1
  O  O439  1  0.63745757  0.12796189  0.87703126  1
  O  O440  1  0.63185905  0.63352938  0.37403756  1
  O  O441  1  0.63501621  0.63393227  0.87260219  1
