# generated using pymatgen
data_V93Zn93O256
_symmetry_space_group_name_H-M   'P 1'
_cell_length_a   17.05863492
_cell_length_b   17.05831493
_cell_length_c   17.05536430
_cell_angle_alpha   89.96316101
_cell_angle_beta   90.05264946
_cell_angle_gamma   90.00541973
_symmetry_Int_Tables_number   1
_chemical_formula_structural   V93Zn93O256
_chemical_formula_sum   'V93 Zn93 O256'
_cell_volume   4962.96403695
_cell_formula_units_Z   1
loop_
 _symmetry_equiv_pos_site_id
 _symmetry_equiv_pos_as_xyz
  1  'x, y, z'
loop_
 _atom_site_type_symbol
 _atom_site_label
 _atom_site_symmetry_multiplicity
 _atom_site_fract_x
 _atom_site_fract_y
 _atom_site_fract_z
 _atom_site_occupancy
  V  V0  1  0.62834676  0.75227052  0.87391204  1
  V  V1  1  0.00285244  0.87366488  0.87318973  1
  V  V2  1  0.00119519  0.00100764  0.50131108  1
  V  V3  1  0.75267976  0.49953211  0.74842682  1
  V  V4  1  0.49739316  0.74869446  0.24984658  1
  V  V5  1  0.37527050  0.12606377  0.25318445  1
  V  V6  1  0.24989703  0.87592099  0.12687541  1
  V  V7  1  -0.00316047  0.12339169  0.63207801  1
  V  V8  1  0.62433390  0.00171969  0.12447394  1
  V  V9  1  0.00002788  0.00139393  0.00017729  1
  V  V10  1  0.00170606  0.50095097  0.00173110  1
  V  V11  1  0.25109563  0.00003269  0.74991040  1
  V  V12  1  0.87428504  0.25093146  0.12502390  1
  V  V13  1  0.24681379  0.75388922  -0.00635554  1
  V  V14  1  0.37534647  0.13165102  0.74466463  1
  V  V15  1  0.12430502  0.24998441  0.87622630  1
  V  V16  1  0.25097231  0.12593219  0.87479452  1
  V  V17  1  0.87510379  0.74876382  0.62446883  1
  V  V18  1  0.75128230  0.75170344  -0.00149829  1
  V  V19  1  0.00058598  0.25060085  0.25120256  1
  V  V20  1  0.62132068  0.50007186  0.11751677  1
  V  V21  1  0.49772620  0.87355581  0.37525648  1
  V  V22  1  0.25390020  0.50781551  0.76110811  1
  V  V23  1  0.37437647  0.75239259  0.12472502  1
  V  V24  1  0.62476405  0.49972417  0.62259606  1
  V  V25  1  0.49740513  0.25047198  0.74344909  1
  V  V26  1  0.24934069  0.24741552  0.50183605  1
  V  V27  1  0.37505088  0.36953811  0.50290858  1
  V  V28  1  0.74821543  0.74922073  0.49977553  1
  V  V29  1  0.37017729  0.49939889  0.36701879  1
  V  V30  1  0.12959139  0.37998946  0.24932303  1
  V  V31  1  0.62237905  0.25050683  0.37126431  1
  V  V32  1  0.87745356  0.62582591  0.74907177  1
  V  V33  1  0.49805913  0.74903636  0.74963241  1
  V  V34  1  -0.00075212  0.62500199  0.12595372  1
  V  V35  1  0.62404903  0.87413211  0.24948030  1
  V  V36  1  0.62538953  0.37369888  0.74926542  1
  V  V37  1  0.87528585  0.00531601  0.87234206  1
  V  V38  1  0.74824661  0.62424818  0.37415617  1
  V  V39  1  0.74951392  0.37497645  0.12464445  1
  V  V40  1  0.87518864  0.75049012  0.12601463  1
  V  V41  1  0.62292233  0.12410866  0.49909429  1
  V  V42  1  0.62418832  0.12585435  0.00025209  1
  V  V43  1  -0.00006456  0.62336811  0.62446798  1
  V  V44  1  0.00007534  0.87206570  0.37551777  1
  V  V45  1  0.74893123  0.50035526  0.24948364  1
  V  V46  1  0.12677259  0.49790845  0.62473659  1
  V  V47  1  0.75447986  0.00586647  0.74783152  1
  V  V48  1  0.00036836  0.37338768  0.37506453  1
  V  V49  1  0.24978787  0.00152258  0.25207732  1
  V  V50  1  0.87561541  0.37364008  0.49921792  1
  V  V51  1  0.74993361  0.87602142  0.12471522  1
  V  V52  1  0.74986076  0.87470696  0.62433086  1
  V  V53  1  0.62245821  0.37195711  0.24928912  1
  V  V54  1  0.12651419  0.12591356  0.00156630  1
  V  V55  1  0.75083277  0.37422237  0.62368207  1
  V  V56  1  0.87531172  0.87726469  -0.00003907  1
  V  V57  1  0.37293230  0.74184944  0.62998905  1
  V  V58  1  0.49984455  0.88112389  0.87570196  1
  V  V59  1  0.74957279  0.24902064  0.49972259  1
  V  V60  1  0.62320645  0.74742727  0.37453586  1
  V  V61  1  0.00067724  0.12609869  0.12602155  1
  V  V62  1  0.50075699  0.12954464  0.12963057  1
  V  V63  1  0.87455125  0.62461989  0.25002557  1
  V  V64  1  -0.00053366  0.49694200  0.50090909  1
  V  V65  1  0.49692128  0.62278630  0.62748022  1
  V  V66  1  0.25131522  0.25054902  0.00192001  1
  V  V67  1  0.74870758  0.12466857  0.37473278  1
  V  V68  1  0.24865233  0.87428170  0.62439862  1
  V  V69  1  0.75306689  0.12631670  0.87166674  1
  V  V70  1  0.24976793  0.62030085  0.36780899  1
  V  V71  1  0.87669276  0.50010183  0.87577760  1
  V  V72  1  0.25315140  0.37062642  0.62656544  1
  V  V73  1  0.12593133  0.62693533  -0.00611933  1
  V  V74  1  0.37809554  0.25113505  0.13151901  1
  V  V75  1  0.24904895  0.74614255  0.49860691  1
  V  V76  1  0.49845685  -0.00161662  0.50075906  1
  V  V77  1  0.62431315  0.25160353  0.87386793  1
  V  V78  1  0.87538201  0.24479557  0.63239907  1
  V  V79  1  0.38264478  0.37706899  -0.00558751  1
  V  V80  1  0.87441597  -0.00066679  0.37528119  1
  V  V81  1  0.12376507  0.87495224  0.25133722  1
  V  V82  1  0.75323573  0.62711706  0.87455581  1
  V  V83  1  0.49854826  0.37036067  0.36857238  1
  V  V84  1  0.49884312  0.49951305  0.49965190  1
  V  V85  1  0.75025608  0.25061384  -0.00026562  1
  V  V86  1  0.50117186  0.62498766  0.12493174  1
  V  V87  1  0.74928510  -0.00029545  0.25037595  1
  V  V88  1  0.25247174  0.38600158  0.12909359  1
  V  V89  1  0.12514337  0.00123994  0.12654622  1
  V  V90  1  0.87508725  0.12516149  0.25022425  1
  V  V91  1  0.62590020  0.87636041  0.74808579  1
  V  V92  1  0.00120293  0.37404292  0.87482455  1
  Zn  Zn93  1  0.49941306  0.38315965  0.87093311  1
  Zn  Zn94  1  0.37418943  0.87396206  0.49815363  1
  Zn  Zn95  1  -0.00119602  0.24374096  0.75398389  1
  Zn  Zn96  1  0.62421779  0.00127795  0.62496648  1
  Zn  Zn97  1  0.12562313  0.87263021  0.74998776  1
  Zn  Zn98  1  0.87415758  0.87360886  0.50016493  1
  Zn  Zn99  1  0.12491512  0.74517240  0.37300134  1
  Zn  Zn100  1  0.49743622  0.00273799  0.00065042  1
  Zn  Zn101  1  0.12601999  0.24772934  0.37466643  1
  Zn  Zn102  1  0.12799660  0.37193542  0.75212463  1
  Zn  Zn103  1  0.12395621  0.62237677  0.49700312  1
  Zn  Zn104  1  0.00049511  0.74833416  0.25130441  1
  Zn  Zn105  1  0.87548971  0.37587928  0.00133665  1
  Zn  Zn106  1  0.12502725  0.00173814  0.62469615  1
  Zn  Zn107  1  0.00394900  0.75035730  0.74801969  1
  Zn  Zn108  1  0.37671529  0.00408350  0.87740671  1
  Zn  Zn109  1  0.12879084  0.74723084  0.87038931  1
  Zn  Zn110  1  0.12475088  0.12671039  0.49989506  1
  Zn  Zn111  1  0.62255987  0.62394853  0.49897034  1
  Zn  Zn112  1  0.24747945  0.12364735  0.37795403  1
  Zn  Zn113  1  0.62862897  0.62562978  -0.00080851  1
  Zn  Zn114  1  0.87450149  0.49982092  0.37511560  1
  Zn  Zn115  1  0.36463808  0.61729591  0.23693062  1
  Zn  Zn116  1  0.13130199  0.50588562  0.12871200  1
  Zn  Zn117  1  0.40935330  0.57384084  0.81260536  1
  Zn  Zn118  1  0.37201787  -0.00216498  0.37609699  1
  Zn  Zn119  1  0.49769979  0.12696304  0.62241692  1
  Zn  Zn120  1  0.37400810  0.88132304  0.00147853  1
  Zn  Zn121  1  0.47350950  0.53367775  -0.03467552  1
  Zn  Zn122  1  0.18996108  0.19233149  0.18858294  1
  Zn  Zn123  1  0.18219328  0.18668692  0.68693272  1
  Zn  Zn124  1  0.18456235  0.69063487  0.18469581  1
  Zn  Zn125  1  0.18551484  0.68467305  0.69039684  1
  Zn  Zn126  1  0.68738633  0.18906717  0.18879035  1
  Zn  Zn127  1  0.68412241  0.18628035  0.68516290  1
  Zn  Zn128  1  0.68764484  0.68752040  0.18744323  1
  Zn  Zn129  1  0.68656045  0.68685770  0.68635907  1
  Zn  Zn130  1  0.31035292  0.31064910  0.31455909  1
  Zn  Zn131  1  0.31095461  0.31336132  0.81156930  1
  Zn  Zn132  1  0.31324811  0.80972604  0.31130643  1
  Zn  Zn133  1  0.31592793  0.81497417  0.81106544  1
  Zn  Zn134  1  0.81159406  0.31303950  0.31240684  1
  Zn  Zn135  1  0.81336449  0.31359542  0.81345103  1
  Zn  Zn136  1  0.81233154  0.81090131  0.31295339  1
  Zn  Zn137  1  0.81593607  0.81585399  0.80983498  1
  Zn  Zn138  1  0.18665036  0.43491916  0.43680478  1
  Zn  Zn139  1  0.18828152  0.43663439  0.94336838  1
  Zn  Zn140  1  0.18629800  0.93677207  0.43723129  1
  Zn  Zn141  1  0.18773000  0.93903478  0.93783689  1
  Zn  Zn142  1  0.68672502  0.43713142  0.43661221  1
  Zn  Zn143  1  0.68861066  0.43679202  0.93626321  1
  Zn  Zn144  1  0.68477113  0.93548520  0.43767727  1
  Zn  Zn145  1  0.68704750  0.94051694  0.93624730  1
  Zn  Zn146  1  0.31411264  0.06176003  0.06317904  1
  Zn  Zn147  1  0.31571424  0.06186089  0.56451332  1
  Zn  Zn148  1  0.32721830  0.58092816  0.02060999  1
  Zn  Zn149  1  0.31167678  0.55887120  0.55933151  1
  Zn  Zn150  1  0.81211645  0.06399669  0.06103861  1
  Zn  Zn151  1  0.81381696  0.06193959  0.56175725  1
  Zn  Zn152  1  0.81309494  0.56234984  0.06200319  1
  Zn  Zn153  1  0.81257646  0.56300170  0.56024033  1
  Zn  Zn154  1  0.43846455  0.43876186  0.18484228  1
  Zn  Zn155  1  0.43655421  0.43532725  0.68728947  1
  Zn  Zn156  1  0.43733193  0.94008663  0.18806750  1
  Zn  Zn157  1  0.43435108  0.93653819  0.68652523  1
  Zn  Zn158  1  0.93864396  0.43844738  0.18841377  1
  Zn  Zn159  1  0.93773648  0.43446649  0.68827998  1
  Zn  Zn160  1  0.93772173  0.93820495  0.18858028  1
  Zn  Zn161  1  0.93529847  0.93615215  0.68737623  1
  Zn  Zn162  1  0.06454976  0.06373675  0.31603573  1
  Zn  Zn163  1  0.06548731  0.06018145  0.81258064  1
  Zn  Zn164  1  0.06175958  0.56043310  0.31358750  1
  Zn  Zn165  1  0.06483726  0.55931242  0.81014583  1
  Zn  Zn166  1  0.56016856  0.06123479  0.31340479  1
  Zn  Zn167  1  0.56585405  0.06518043  0.81009225  1
  Zn  Zn168  1  0.56021225  0.55930295  0.30961639  1
  Zn  Zn169  1  0.57459325  0.56510700  0.80761701  1
  Zn  Zn170  1  0.43671464  0.18776102  0.43785036  1
  Zn  Zn171  1  0.43890505  0.19129278  0.93551786  1
  Zn  Zn172  1  0.43376114  0.68458262  0.43871448  1
  Zn  Zn173  1  0.43927301  0.70423321  0.94044855  1
  Zn  Zn174  1  0.93728357  0.18737426  0.43977049  1
  Zn  Zn175  1  0.93604133  0.18755136  0.93892261  1
  Zn  Zn176  1  0.93499480  0.68487346  0.43945042  1
  Zn  Zn177  1  0.93911216  0.68879936  0.93856262  1
  Zn  Zn178  1  0.06434885  0.31426093  0.06439252  1
  Zn  Zn179  1  0.06367827  0.31050611  0.56397009  1
  Zn  Zn180  1  0.06230532  0.81245984  0.06294186  1
  Zn  Zn181  1  0.06374883  0.81090009  0.56152199  1
  Zn  Zn182  1  0.56259434  0.31135971  0.06217857  1
  Zn  Zn183  1  0.56243184  0.31249633  0.56019237  1
  Zn  Zn184  1  0.56336017  0.81282317  0.06068479  1
  Zn  Zn185  1  0.56258796  0.81175713  0.56251195  1
  O  O186  1  0.12035573  0.12139966  0.12136386  1
  O  O187  1  0.11263698  0.12226791  0.61943056  1
  O  O188  1  0.11708607  0.62478259  0.11706202  1
  O  O189  1  0.11987218  0.61191338  0.62277753  1
  O  O190  1  0.61791293  0.12287195  0.12244778  1
  O  O191  1  0.62079810  0.12184697  0.61403036  1
  O  O192  1  0.61915177  0.61652952  0.12553507  1
  O  O193  1  0.61594149  0.61705272  0.62506346  1
  O  O194  1  0.38031760  0.38022174  0.38049022  1
  O  O195  1  0.37458747  0.36784504  0.89249116  1
  O  O196  1  0.38323183  0.87544260  0.37636565  1
  O  O197  1  0.38985701  0.87805213  0.87449365  1
  O  O198  1  0.88088191  0.37563760  0.38127236  1
  O  O199  1  0.88409708  0.38113612  0.87748837  1
  O  O200  1  0.88367967  0.88072338  0.37510718  1
  O  O201  1  0.88302929  0.88372085  0.88068735  1
  O  O202  1  0.25223757  0.00235458  0.36854401  1
  O  O203  1  0.25037771  0.00653813  0.86546202  1
  O  O204  1  0.25908886  0.50791248  0.38283771  1
  O  O205  1  0.24372214  0.49250337  0.85954216  1
  O  O206  1  0.75366651  0.00435760  0.36979396  1
  O  O207  1  0.75494445  0.00557857  0.86711981  1
  O  O208  1  0.74931444  0.50564703  0.36753772  1
  O  O209  1  0.75599955  0.50572095  0.86874453  1
  O  O210  1  0.25296263  0.48570747  0.12309373  1
  O  O211  1  0.24236928  0.49040529  0.62736347  1
  O  O212  1  0.24362469  0.99611803  0.13164176  1
  O  O213  1  0.25143411  0.99017471  0.63111193  1
  O  O214  1  0.74122542  0.49530310  0.12884407  1
  O  O215  1  0.74623011  0.49387231  0.62873665  1
  O  O216  1  0.74502966  0.99598089  0.13086262  1
  O  O217  1  0.75053607  0.99458832  0.63194401  1
  O  O218  1  0.00659952  0.36890481  0.25428489  1
  O  O219  1  0.00265228  0.37433661  0.76504627  1
  O  O220  1  0.00412097  0.87629058  0.26088812  1
  O  O221  1  0.00188444  0.87641204  0.76069251  1
  O  O222  1  0.50521280  0.38063036  0.26193586  1
  O  O223  1  0.50623344  0.36676771  0.74897544  1
  O  O224  1  0.50545232  0.86940693  0.25427321  1
  O  O225  1  0.50555544  0.87081323  0.75572776  1
  O  O226  1  0.49026634  0.11958529  0.23903908  1
  O  O227  1  0.49287538  0.13286919  0.74992884  1
  O  O228  1  0.49753671  0.62992743  0.23800611  1
  O  O229  1  0.49619002  0.63096937  0.74678280  1
  O  O230  1  0.99433501  0.12927924  0.24510262  1
  O  O231  1  1.00252430  0.12164433  0.73677691  1
  O  O232  1  0.99297699  0.62559442  0.24493377  1
  O  O233  1  0.99426561  0.62361621  0.74257151  1
  O  O234  1  0.37142227  0.25755607  0.01105790  1
  O  O235  1  0.36749531  0.26240212  0.49595758  1
  O  O236  1  0.36398909  0.75952681  0.00815772  1
  O  O237  1  0.36452950  0.75082453  0.50975347  1
  O  O238  1  0.86782134  0.25140571  0.00799096  1
  O  O239  1  0.86845473  0.25478862  0.50847031  1
  O  O240  1  0.86981925  0.75773877  0.00578335  1
  O  O241  1  0.86603885  0.75031214  0.50675536  1
  O  O242  1  0.13720506  0.25098518  0.49855777  1
  O  O243  1  0.13095159  0.24412059  0.99703373  1
  O  O244  1  0.13822142  0.74599254  0.49875285  1
  O  O245  1  0.13048393  0.74503009  0.99832555  1
  O  O246  1  0.63044147  0.24497624  0.49226741  1
  O  O247  1  0.63097234  0.24535671  0.99467932  1
  O  O248  1  0.62985311  0.74705428  0.49247674  1
  O  O249  1  0.63508242  0.75166997  0.99197946  1
  O  O250  1  0.49082035  0.24035443  0.12247428  1
  O  O251  1  0.50571993  0.24887592  0.63878182  1
  O  O252  1  0.49688920  0.74451183  0.12993649  1
  O  O253  1  0.49177204  0.74457242  0.62943026  1
  O  O254  1  0.99445775  0.24490421  0.13019341  1
  O  O255  1  0.99207091  0.24133914  0.62580584  1
  O  O256  1  0.99167163  0.74452032  0.12616697  1
  O  O257  1  0.99399842  0.74216146  0.62373326  1
  O  O258  1  -0.00082528  0.25586989  0.36874145  1
  O  O259  1  0.00386444  0.25729296  0.87614597  1
  O  O260  1  0.00013059  0.76125910  0.37702999  1
  O  O261  1  -0.00106345  0.76416624  0.87469834  1
  O  O262  1  0.50526003  0.26354155  0.38159461  1
  O  O263  1  0.50817201  0.25356984  0.86402438  1
  O  O264  1  0.50319534  0.75259698  0.37000597  1
  O  O265  1  0.50768109  0.76093318  0.86876999  1
  O  O266  1  0.25295006  0.13681848  0.50432429  1
  O  O267  1  0.24555736  0.13052426  0.99609884  1
  O  O268  1  0.24930097  0.63172701  0.49105810  1
  O  O269  1  0.23550087  0.64167938  1.00731563  1
  O  O270  1  0.74423035  0.12894419  0.49314850  1
  O  O271  1  0.74367396  0.13155139  0.99439076  1
  O  O272  1  0.74621477  0.63033771  0.49278372  1
  O  O273  1  0.75122391  0.63322705  0.99242507  1
  O  O274  1  0.26055008  0.36931922  0.00947762  1
  O  O275  1  0.25705400  0.36846221  0.50639196  1
  O  O276  1  0.24703718  0.87045992  0.00984807  1
  O  O277  1  0.25043336  0.86559044  0.50769129  1
  O  O278  1  0.75135351  0.36831783  0.00679095  1
  O  O279  1  0.75435665  0.36858448  0.50461687  1
  O  O280  1  0.75590827  0.87269602  0.00512564  1
  O  O281  1  0.75029505  0.86800358  0.50538814  1
  O  O282  1  0.11913200  0.48433132  0.24664568  1
  O  O283  1  0.13493653  0.49508682  0.74033157  1
  O  O284  1  0.12943493  0.99566135  0.24485447  1
  O  O285  1  0.14027621  0.99902503  0.74638257  1
  O  O286  1  0.62941571  0.49272011  0.23926283  1
  O  O287  1  0.63475949  0.49316072  0.74120896  1
  O  O288  1  0.63023062  0.99447398  0.24508367  1
  O  O289  1  0.63615299  0.99437216  0.74787643  1
  O  O290  1  0.36826044  0.01067256  0.24983561  1
  O  O291  1  0.36479407  0.00862112  0.75222302  1
  O  O292  1  0.37809487  0.50039191  0.26274884  1
  O  O293  1  0.35996656  0.49722567  0.74588956  1
  O  O294  1  0.86875414  0.00607093  0.25473760  1
  O  O295  1  0.86152566  -0.00534869  0.75627203  1
  O  O296  1  0.86669404  0.50652102  0.25061225  1
  O  O297  1  0.87058129  0.50487005  0.75497131  1
  O  O298  1  0.11937634  0.37216725  0.36616875  1
  O  O299  1  0.11613891  0.36843139  0.87858443  1
  O  O300  1  0.11387664  0.87407729  0.37013787  1
  O  O301  1  0.11238410  0.87677809  0.87554380  1
  O  O302  1  0.61624339  0.37105623  0.37016453  1
  O  O303  1  0.62510647  0.36965069  0.86681542  1
  O  O304  1  0.61846829  0.86762626  0.36783540  1
  O  O305  1  0.61958673  0.87161144  0.86824650  1
  O  O306  1  0.38156095  0.13253542  0.13171441  1
  O  O307  1  0.37714166  0.12348483  0.64083033  1
  O  O308  1  0.38546330  0.63158864  0.11805257  1
  O  O309  1  0.37953208  0.63429798  0.61915152  1
  O  O310  1  0.88046343  0.12983003  0.13063551  1
  O  O311  1  0.88298956  0.13540084  0.61857830  1
  O  O312  1  0.87888127  0.63110468  0.13006381  1
  O  O313  1  0.88010401  0.62852583  0.63014653  1
  O  O314  1  0.26103282  0.25648427  0.11981551  1
  O  O315  1  0.24352417  0.26313925  0.61846118  1
  O  O316  1  0.25444013  0.75816007  0.11837445  1
  O  O317  1  0.25541902  0.75284906  0.61976129  1
  O  O318  1  0.75436282  0.25506607  0.12001450  1
  O  O319  1  0.75633493  0.25368487  0.61971419  1
  O  O320  1  0.75474279  0.75704257  0.11964539  1
  O  O321  1  0.75439622  0.75405852  0.62000026  1
  O  O322  1  0.24918794  0.24796557  0.38877584  1
  O  O323  1  0.24410358  0.24535260  0.88170691  1
  O  O324  1  0.25134877  0.74097307  0.38418005  1
  O  O325  1  0.24944529  0.76263502  0.88974406  1
  O  O326  1  0.74456095  0.24388292  0.38045231  1
  O  O327  1  0.74523522  0.24623611  0.87913325  1
  O  O328  1  0.74298557  0.74467359  0.37917300  1
  O  O329  1  0.74849488  0.74749033  0.87833983  1
  O  O330  1  0.00635777  0.12060310  0.00655445  1
  O  O331  1  -0.00178424  0.11441432  0.50816527  1
  O  O332  1  0.00586892  0.62124181  0.00654064  1
  O  O333  1  0.00064014  0.61558580  0.50674943  1
  O  O334  1  0.50601386  0.12644776  0.01046844  1
  O  O335  1  0.50346785  0.11619192  0.49921648  1
  O  O336  1  0.51022557  0.63252618  0.01432300  1
  O  O337  1  0.50028825  0.61666805  0.50699609  1
  O  O338  1  0.49219645  0.37906380  0.49255397  1
  O  O339  1  0.48734879  0.37000482  0.99780962  1
  O  O340  1  0.49957991  0.88215536  0.49399043  1
  O  O341  1  0.50115438  0.87725443  0.98784980  1
  O  O342  1  0.99499807  0.37748370  0.49569550  1
  O  O343  1  0.99975587  0.38058800  0.99116069  1
  O  O344  1  0.99868698  0.88274079  0.49239352  1
  O  O345  1  0.99475740  0.88254016  0.99398944  1
  O  O346  1  0.49200508  0.49081636  0.37988414  1
  O  O347  1  0.49927526  0.49915983  0.86180812  1
  O  O348  1  0.49853684  0.99251430  0.38386487  1
  O  O349  1  0.50250994  0.99147635  0.87453640  1
  O  O350  1  0.99777671  0.49151569  0.38324116  1
  O  O351  1  0.99664817  0.49226839  0.88086727  1
  O  O352  1  0.99461148  0.99262716  0.38230564  1
  O  O353  1  0.99570599  0.99491846  0.88078987  1
  O  O354  1  0.00489173  0.00644771  0.12036797  1
  O  O355  1  -0.00291223  0.00516294  0.61690783  1
  O  O356  1  0.00032461  0.50723571  0.11795570  1
  O  O357  1  0.00824498  0.50097726  0.62183551  1
  O  O358  1  0.50691583  0.01070195  0.12390669  1
  O  O359  1  0.50061015  -0.00067799  0.61286681  1
  O  O360  1  0.50910599  0.51055708  0.12735547  1
  O  O361  1  0.50443111  0.50315959  0.62052655  1
  O  O362  1  0.24010802  0.36655985  0.24200902  1
  O  O363  1  0.25043026  0.38161147  0.74001430  1
  O  O364  1  0.24363155  0.88073711  0.24625557  1
  O  O365  1  0.25142068  0.88383658  0.74217895  1
  O  O366  1  0.74316231  0.38044033  0.24384201  1
  O  O367  1  0.74606564  0.38021416  0.74327925  1
  O  O368  1  0.74434767  0.88032531  0.24469226  1
  O  O369  1  0.74488904  0.88354620  0.74490348  1
  O  O370  1  0.25984297  0.12006277  0.24854008  1
  O  O371  1  0.25605609  0.12028764  0.75322722  1
  O  O372  1  0.24959857  0.63137133  0.26268815  1
  O  O373  1  0.24716273  0.60717278  0.74825672  1
  O  O374  1  0.75504030  0.11918080  0.25523252  1
  O  O375  1  0.74293730  0.11390757  0.75516993  1
  O  O376  1  0.75457089  0.62004236  0.25431986  1
  O  O377  1  0.75680824  0.61916967  0.75442286  1
  O  O378  1  0.37464389  0.12531323  0.36198329  1
  O  O379  1  0.36851725  0.12602384  0.86541491  1
  O  O380  1  0.36712708  0.61416416  0.37382940  1
  O  O381  1  0.38387799  0.61056945  0.91526458  1
  O  O382  1  0.86883623  0.11964387  0.36955647  1
  O  O383  1  0.86659672  0.11756078  0.88099151  1
  O  O384  1  0.86689929  0.62283965  0.36814522  1
  O  O385  1  0.87224026  0.62002921  0.86937441  1
  O  O386  1  0.13540200  0.37598227  0.13158709  1
  O  O387  1  0.13292120  0.38311531  0.62682556  1
  O  O388  1  0.12802452  0.88246999  0.13137534  1
  O  O389  1  0.13833390  0.87542846  0.62635977  1
  O  O390  1  0.62794000  0.38145829  0.12860664  1
  O  O391  1  0.63189469  0.37940955  0.62877383  1
  O  O392  1  0.63049321  0.88071499  0.13016712  1
  O  O393  1  0.63200947  0.87584597  0.63126621  1
  O  O394  1  0.11750331  0.25980890  0.24964863  1
  O  O395  1  0.12108992  0.25220292  0.76048956  1
  O  O396  1  0.12024929  0.75990029  0.25293235  1
  O  O397  1  0.12242276  0.75335916  0.75489193  1
  O  O398  1  0.63029819  0.25900802  0.25847220  1
  O  O399  1  0.61918859  0.25487460  0.75443672  1
  O  O400  1  0.61872731  0.75545618  0.25419766  1
  O  O401  1  0.61937198  0.75590627  0.75469061  1
  O  O402  1  0.36990852  0.24103002  0.23980031  1
  O  O403  1  0.38511917  0.24323274  0.75638108  1
  O  O404  1  0.38050261  0.74454939  0.24124718  1
  O  O405  1  0.38038808  0.75199922  0.73863479  1
  O  O406  1  0.87913209  0.24389560  0.24450984  1
  O  O407  1  0.87690378  0.25510906  0.73611886  1
  O  O408  1  0.87560732  0.74333020  0.24317612  1
  O  O409  1  0.87758052  0.74289273  0.74258529  1
  O  O410  1  0.37932908  0.48859125  0.49017914  1
  O  O411  1  0.37881150  0.47968871  1.01102222  1
  O  O412  1  0.38548248  0.99756798  0.49752439  1
  O  O413  1  0.37892748  0.99799865  0.99557711  1
  O  O414  1  0.88131584  0.49092363  0.50036398  1
  O  O415  1  0.88238156  0.49928988  0.99294731  1
  O  O416  1  0.88403240  0.99749266  0.49302495  1
  O  O417  1  0.88063043  0.99606896  0.99478382  1
  O  O418  1  0.11994697  0.00729148  0.00695622  1
  O  O419  1  0.11156705  -0.00024093  0.50221396  1
  O  O420  1  0.12091895  0.51015886  0.00424694  1
  O  O421  1  0.11921728  0.49716722  0.51051846  1
  O  O422  1  0.62524952  0.00870753  0.00759664  1
  O  O423  1  0.61468772  0.00545817  0.49889015  1
  O  O424  1  0.62571936  0.50132025  0.01154224  1
  O  O425  1  0.61753393  0.49909916  0.50605999  1
  O  O426  1  0.37220419  0.36612669  0.12229848  1
  O  O427  1  0.36539301  0.38176465  0.61194886  1
  O  O428  1  0.36839016  0.87011247  0.12653090  1
  O  O429  1  0.36363048  0.86341035  0.62318986  1
  O  O430  1  0.86792303  0.36855252  0.12503719  1
  O  O431  1  0.87034756  0.36615932  0.61913752  1
  O  O432  1  0.86940896  0.87210402  0.12015686  1
  O  O433  1  0.86779377  0.86661186  0.62302748  1
  O  O434  1  0.12894989  0.12971806  0.38137752  1
  O  O435  1  0.13027574  0.12991035  0.88233561  1
  O  O436  1  0.13414797  0.62429038  0.37770773  1
  O  O437  1  0.11525121  0.62744727  0.88992912  1
  O  O438  1  0.62930258  0.13027200  0.37834594  1
  O  O439  1  0.63212513  0.13207806  0.88055026  1
  O  O440  1  0.62932567  0.63007346  0.37318714  1
  O  O441  1  0.63572508  0.63441279  0.87538114  1
