# generated using pymatgen
data_V93Zn93O256
_symmetry_space_group_name_H-M   'P 1'
_cell_length_a   17.04701118
_cell_length_b   17.04817708
_cell_length_c   17.05099904
_cell_angle_alpha   89.96520769
_cell_angle_beta   90.00920687
_cell_angle_gamma   89.98752162
_symmetry_Int_Tables_number   1
_chemical_formula_structural   V93Zn93O256
_chemical_formula_sum   'V93 Zn93 O256'
_cell_volume   4955.36817534
_cell_formula_units_Z   1
loop_
 _symmetry_equiv_pos_site_id
 _symmetry_equiv_pos_as_xyz
  1  'x, y, z'
loop_
 _atom_site_type_symbol
 _atom_site_label
 _atom_site_symmetry_multiplicity
 _atom_site_fract_x
 _atom_site_fract_y
 _atom_site_fract_z
 _atom_site_occupancy
  V  V0  1  0.37359038  0.37835329  -0.00285390  1
  V  V1  1  0.75153948  0.75151097  0.50083445  1
  V  V2  1  0.61849763  0.12036807  0.49964657  1
  V  V3  1  0.49718801  0.12470902  0.62930744  1
  V  V4  1  -0.00070725  0.25029075  0.74961383  1
  V  V5  1  0.87644089  0.12523347  0.24848273  1
  V  V6  1  0.00292263  0.12250216  0.12588730  1
  V  V7  1  0.37775275  0.00056708  0.37690342  1
  V  V8  1  0.87433062  0.00092614  0.87455860  1
  V  V9  1  0.37459152  0.24568904  0.63077285  1
  V  V10  1  0.49578810  0.50135800  -0.00357292  1
  V  V11  1  0.62323808  0.62495936  -0.00143496  1
  V  V12  1  0.25020393  0.37377561  0.62481204  1
  V  V13  1  0.12612255  -0.00032365  0.62516903  1
  V  V14  1  0.12610094  0.12277227  0.00336619  1
  V  V15  1  0.50558643  0.62135011  0.62552283  1
  V  V16  1  0.62543227  0.24958607  0.87599287  1
  V  V17  1  0.00135446  0.75045846  0.75078873  1
  V  V18  1  0.37470607  0.00313078  0.86997786  1
  V  V19  1  0.24973526  0.25081170  0.00099541  1
  V  V20  1  0.37591873  0.62142891  0.75117660  1
  V  V21  1  0.25075863  0.75346471  0.00615834  1
  V  V22  1  0.49532228  0.37816426  0.87267769  1
  V  V23  1  0.00007798  -0.00026497  0.49921838  1
  V  V24  1  0.62426485  0.37492336  0.24814755  1
  V  V25  1  0.74911680  0.62488536  0.87420769  1
  V  V26  1  0.12521162  0.75141022  0.37389582  1
  V  V27  1  0.12548625  0.37551383  0.24939847  1
  V  V28  1  0.87413535  0.37468207  0.49936349  1
  V  V29  1  -0.00072857  0.62533906  0.12503236  1
  V  V30  1  0.37317850  0.12633057  0.24963911  1
  V  V31  1  0.62596784  0.87629316  0.74940871  1
  V  V32  1  0.24934151  0.37621959  0.12464171  1
  V  V33  1  0.50120719  0.87692614  0.37969065  1
  V  V34  1  0.00460645  0.75361437  0.24845499  1
  V  V35  1  0.62190514  0.37928277  0.74350681  1
  V  V36  1  0.87386965  0.12442100  0.75029038  1
  V  V37  1  -0.00147119  0.37558396  0.87517561  1
  V  V38  1  0.00239723  -0.00078062  0.00086702  1
  V  V39  1  0.25101386  0.87594501  0.62834801  1
  V  V40  1  0.25463936  0.12482479  0.87030365  1
  V  V41  1  0.25069381  0.75101716  0.50047787  1
  V  V42  1  0.25580745  0.62038398  0.87544968  1
  V  V43  1  0.75110194  -0.00058404  0.24922686  1
  V  V44  1  0.12461962  0.50022603  0.12552298  1
  V  V45  1  0.49902489  0.37563265  0.37511617  1
  V  V46  1  0.62479680  0.00032047  0.12327870  1
  V  V47  1  0.87356723  0.24988645  0.62505832  1
  V  V48  1  0.37262431  0.87512727  0.00586641  1
  V  V49  1  0.74942346  0.12376533  0.37461372  1
  V  V50  1  0.12453910  0.37536397  0.74967413  1
  V  V51  1  0.12536362  0.50039360  0.62472566  1
  V  V52  1  0.37454853  0.50145826  0.37535247  1
  V  V53  1  0.50741632  0.50007840  0.50309785  1
  V  V54  1  0.12575200  0.74999005  0.87428621  1
  V  V55  1  0.74918368  0.49993179  0.24815138  1
  V  V56  1  0.00146483  0.87476759  0.87483935  1
  V  V57  1  0.00551688  0.87541934  0.37235465  1
  V  V58  1  0.62451706  0.75156626  0.87451877  1
  V  V59  1  0.87621356  -0.00056003  0.37528271  1
  V  V60  1  0.49976396  0.87592585  0.87538056  1
  V  V61  1  0.25062174  0.62512065  0.37551325  1
  V  V62  1  0.75032784  0.87444660  0.12568385  1
  V  V63  1  0.49975878  0.12576112  0.12416366  1
  V  V64  1  0.50055621  0.74945054  0.25065258  1
  V  V65  1  0.87512618  0.75090635  0.62499758  1
  V  V66  1  -0.00125487  0.49949002  -0.00087979  1
  V  V67  1  -0.00056151  0.12438328  0.62444318  1
  V  V68  1  0.87445926  0.49965256  0.87461254  1
  V  V69  1  0.87461937  0.49909502  0.37505653  1
  V  V70  1  0.74644180  0.50062389  0.74552374  1
  V  V71  1  -0.00039702  0.37541802  0.37468378  1
  V  V72  1  0.12609415  0.25016323  0.37539342  1
  V  V73  1  -0.00008503  0.24851335  0.24884749  1
  V  V74  1  0.00146857  0.62503928  0.62517758  1
  V  V75  1  0.49851886  0.62656915  0.12526156  1
  V  V76  1  0.12553851  0.12565839  0.49945019  1
  V  V77  1  0.62104302  -0.00053223  0.62189328  1
  V  V78  1  0.12577424  0.62462939  0.50108826  1
  V  V79  1  0.87452512  0.62536294  0.74992444  1
  V  V80  1  0.24993517  0.24927026  0.49991762  1
  V  V81  1  0.12474870  0.24916558  0.87547116  1
  V  V82  1  0.37863321  0.87823877  0.50198728  1
  V  V83  1  0.74883835  0.24943543  0.50015394  1
  V  V84  1  0.75026684  0.62571894  0.37522825  1
  V  V85  1  0.25144874  0.50027947  0.75182380  1
  V  V86  1  0.74604984  0.37843255  0.62419501  1
  V  V87  1  0.62610913  0.74953207  0.37724024  1
  V  V88  1  0.87438500  0.74929057  0.12551861  1
  V  V89  1  0.75001779  0.74922038  0.00136624  1
  V  V90  1  0.12582183  0.62474402  -0.00051176  1
  V  V91  1  0.62305028  0.24915694  0.37461492  1
  V  V92  1  0.24671786  -0.01346559  0.24305716  1
  Zn  Zn93  1  0.87570625  0.62465933  0.25060349  1
  Zn  Zn94  1  0.74952509  0.00290407  0.74915587  1
  Zn  Zn95  1  0.62512046  0.49801349  0.12225119  1
  Zn  Zn96  1  0.87037943  0.37335837  0.00090935  1
  Zn  Zn97  1  0.62585660  0.87563629  0.25128227  1
  Zn  Zn98  1  0.87293717  0.25142497  0.12106231  1
  Zn  Zn99  1  0.37150837  0.75571409  0.12914425  1
  Zn  Zn100  1  0.25197786  0.00433763  0.74833924  1
  Zn  Zn101  1  0.62860709  0.62178537  0.50655592  1
  Zn  Zn102  1  -0.00052452  0.50042092  0.49971241  1
  Zn  Zn103  1  0.49547029  0.24765330  0.75212264  1
  Zn  Zn104  1  0.37541045  0.25198750  0.12669977  1
  Zn  Zn105  1  0.12718366  0.87654116  0.75125002  1
  Zn  Zn106  1  0.37244626  0.62658917  0.24976130  1
  Zn  Zn107  1  0.87502388  0.87541939  -0.00009866  1
  Zn  Zn108  1  0.87627495  0.87595669  0.50181990  1
  Zn  Zn109  1  0.37678120  0.74997127  0.62657697  1
  Zn  Zn110  1  0.49846326  0.00074367  -0.00037691  1
  Zn  Zn111  1  0.49809137  0.25163267  0.25018846  1
  Zn  Zn112  1  0.75180048  0.24960779  0.00144283  1
  Zn  Zn113  1  0.75087045  0.37228023  0.12004819  1
  Zn  Zn114  1  0.62582749  0.12632435  -0.00207060  1
  Zn  Zn115  1  0.12847508  -0.02398150  0.12667643  1
  Zn  Zn116  1  0.74746761  0.12564036  0.87581872  1
  Zn  Zn117  1  0.24980570  0.50277417  0.24973006  1
  Zn  Zn118  1  0.75194196  0.87802923  0.62476627  1
  Zn  Zn119  1  0.37582900  0.37369030  0.50044501  1
  Zn  Zn120  1  0.49949749  0.74844955  0.74813339  1
  Zn  Zn121  1  0.24939799  0.12345255  0.37396049  1
  Zn  Zn122  1  0.18835590  0.18587918  0.18704185  1
  Zn  Zn123  1  0.18645575  0.18756206  0.68722226  1
  Zn  Zn124  1  0.18558988  0.68926537  0.18859681  1
  Zn  Zn125  1  0.18912886  0.68949418  0.68745106  1
  Zn  Zn126  1  0.68839993  0.18857683  0.18623635  1
  Zn  Zn127  1  0.68596789  0.18969703  0.69071554  1
  Zn  Zn128  1  0.68503014  0.68655218  0.18812634  1
  Zn  Zn129  1  0.68710481  0.68923908  0.68760323  1
  Zn  Zn130  1  0.31127415  0.31376351  0.31260782  1
  Zn  Zn131  1  0.31149148  0.31198116  0.81258918  1
  Zn  Zn132  1  0.31487057  0.81043474  0.31486546  1
  Zn  Zn133  1  0.31556590  0.80963024  0.81573985  1
  Zn  Zn134  1  0.81182161  0.31119642  0.31065990  1
  Zn  Zn135  1  0.80999019  0.31388765  0.81249857  1
  Zn  Zn136  1  0.81710337  0.81367963  0.31200648  1
  Zn  Zn137  1  0.81224648  0.81399100  0.81255010  1
  Zn  Zn138  1  0.18813901  0.43711664  0.43877521  1
  Zn  Zn139  1  0.18529670  0.43838383  0.93722251  1
  Zn  Zn140  1  0.19026194  0.93905603  0.43587715  1
  Zn  Zn141  1  0.18842647  0.93746202  0.93912250  1
  Zn  Zn142  1  0.68748539  0.43646185  0.43484669  1
  Zn  Zn143  1  0.68554944  0.43629437  0.93545028  1
  Zn  Zn144  1  0.68810107  0.93693182  0.43807141  1
  Zn  Zn145  1  0.68942155  0.93768446  0.93944649  1
  Zn  Zn146  1  0.31212144  0.06077725  0.06136303  1
  Zn  Zn147  1  0.31306042  0.06257811  0.56132392  1
  Zn  Zn148  1  0.31302223  0.56357205  0.06311428  1
  Zn  Zn149  1  0.31584820  0.56193115  0.56364114  1
  Zn  Zn150  1  0.81214534  0.06768090  0.05904335  1
  Zn  Zn151  1  0.80965396  0.06193943  0.56233405  1
  Zn  Zn152  1  0.81314264  0.56150268  0.06279415  1
  Zn  Zn153  1  0.81292438  0.56249010  0.56260333  1
  Zn  Zn154  1  0.43679251  0.44019366  0.18653108  1
  Zn  Zn155  1  0.43416924  0.43811788  0.68512157  1
  Zn  Zn156  1  0.43760515  0.93893005  0.19075392  1
  Zn  Zn157  1  0.44052969  0.94045355  0.68853894  1
  Zn  Zn158  1  0.93587634  0.43568819  0.18606380  1
  Zn  Zn159  1  0.93543219  0.43834683  0.68712726  1
  Zn  Zn160  1  0.93912373  0.93666146  0.18600160  1
  Zn  Zn161  1  0.93851590  0.93595366  0.68808598  1
  Zn  Zn162  1  0.06585517  0.06187043  0.31130678  1
  Zn  Zn163  1  0.06476445  0.06190663  0.81228173  1
  Zn  Zn164  1  0.06209004  0.56374066  0.31199745  1
  Zn  Zn165  1  0.06408058  0.56338559  0.81262165  1
  Zn  Zn166  1  0.56189907  0.06169943  0.30960514  1
  Zn  Zn167  1  0.55984465  0.06192774  0.81041385  1
  Zn  Zn168  1  0.56414428  0.56353110  0.31578456  1
  Zn  Zn169  1  0.56174661  0.56088002  0.81269216  1
  Zn  Zn170  1  0.43686939  0.18889747  0.43996448  1
  Zn  Zn171  1  0.43774931  0.19003565  0.93929579  1
  Zn  Zn172  1  0.43762396  0.68729611  0.44091732  1
  Zn  Zn173  1  0.43619435  0.69138218  0.93576166  1
  Zn  Zn174  1  0.93756355  0.18754471  0.43614648  1
  Zn  Zn175  1  0.93736968  0.18696578  0.93960843  1
  Zn  Zn176  1  0.93701028  0.68624413  0.43716068  1
  Zn  Zn177  1  0.93672346  0.68754166  0.93812563  1
  Zn  Zn178  1  0.06003849  0.31126951  0.06251264  1
  Zn  Zn179  1  0.06164287  0.31306568  0.56162853  1
  Zn  Zn180  1  0.06322604  0.81449373  0.06138533  1
  Zn  Zn181  1  0.06364343  0.81300768  0.56116248  1
  Zn  Zn182  1  0.56186262  0.31132490  0.06264381  1
  Zn  Zn183  1  0.55996230  0.31039012  0.56092959  1
  Zn  Zn184  1  0.56173767  0.81449782  0.06181421  1
  Zn  Zn185  1  0.56258010  0.80831366  0.56478620  1
  O  O186  1  0.11942624  0.12389849  0.11812010  1
  O  O187  1  0.11889148  0.12033780  0.61950606  1
  O  O188  1  0.11912849  0.62001651  0.11859469  1
  O  O189  1  0.12142718  0.62040673  0.62090522  1
  O  O190  1  0.61555603  0.11620727  0.12752292  1
  O  O191  1  0.61941222  0.12003877  0.61790328  1
  O  O192  1  0.61305358  0.62457877  0.11785836  1
  O  O193  1  0.61071923  0.62709675  0.62699778  1
  O  O194  1  0.38011585  0.38436026  0.37604258  1
  O  O195  1  0.38379558  0.37018446  0.88426039  1
  O  O196  1  0.38250513  0.88093808  0.38308658  1
  O  O197  1  0.38016755  0.88179996  0.88261065  1
  O  O198  1  0.87928631  0.37864838  0.38008830  1
  O  O199  1  0.88218570  0.38328658  0.87172429  1
  O  O200  1  0.88701780  0.88138921  0.37804389  1
  O  O201  1  0.88158779  0.88476834  0.87440058  1
  O  O202  1  0.26211814  0.00127742  0.36601208  1
  O  O203  1  0.25688209  0.00871748  0.87497935  1
  O  O204  1  0.25910077  0.50557033  0.37626580  1
  O  O205  1  0.24299519  0.51292297  0.86913686  1
  O  O206  1  0.75514212  0.00438695  0.36994847  1
  O  O207  1  0.76297495  -0.00026950  0.87325472  1
  O  O208  1  0.75431693  0.50486591  0.36742531  1
  O  O209  1  0.75412845  0.50677984  0.86702089  1
  O  O210  1  0.24288067  0.49508929  0.12543191  1
  O  O211  1  0.24457308  0.49421248  0.63049421  1
  O  O212  1  0.25172963  1.00241500  0.13980540  1
  O  O213  1  0.24659317  0.99221986  0.62581243  1
  O  O214  1  0.74580540  0.50091644  0.13763221  1
  O  O215  1  0.75543467  0.49183952  0.63252838  1
  O  O216  1  0.74325088  0.99588870  0.12921361  1
  O  O217  1  0.73662967  0.99867679  0.62719605  1
  O  O218  1  0.00622949  0.36902327  0.25552144  1
  O  O219  1  0.00515394  0.36990809  0.75422865  1
  O  O220  1  -0.00502854  0.86531977  0.26121863  1
  O  O221  1  0.00310470  0.86716415  0.75643624  1
  O  O222  1  0.50859752  0.37678571  0.25578349  1
  O  O223  1  0.50410034  0.37851569  0.75738230  1
  O  O224  1  0.49980226  0.86549135  0.26061811  1
  O  O225  1  0.51068009  0.87401925  0.75569984  1
  O  O226  1  0.48964839  0.12422958  0.24229159  1
  O  O227  1  0.50510151  0.12921733  0.73361931  1
  O  O228  1  0.50159541  0.63337292  0.24283839  1
  O  O229  1  0.49184543  0.62113363  0.74398939  1
  O  O230  1  0.99645461  0.12854026  0.24612932  1
  O  O231  1  0.99549389  0.13102840  0.74345635  1
  O  O232  1  0.99819720  0.63459427  0.24396261  1
  O  O233  1  0.99469480  0.63077071  0.74539096  1
  O  O234  1  0.36902804  0.26242436  0.00268481  1
  O  O235  1  0.36800538  0.25187229  0.50939460  1
  O  O236  1  0.36740175  0.75821168  0.00004980  1
  O  O237  1  0.36885589  0.76290289  0.49972313  1
  O  O238  1  0.87310504  0.25427644  0.00077110  1
  O  O239  1  0.86851512  0.25408798  0.50469569  1
  O  O240  1  0.86734024  0.75015834  0.00672245  1
  O  O241  1  0.86632023  0.74945126  0.50556070  1
  O  O242  1  0.12948551  0.24492760  0.49561164  1
  O  O243  1  0.13005393  0.24492554  0.99350258  1
  O  O244  1  0.13129658  0.74404664  0.49448032  1
  O  O245  1  0.13300831  0.74271981  0.99316874  1
  O  O246  1  0.63020642  0.24139957  0.49440557  1
  O  O247  1  0.62154175  0.25058991  0.98610147  1
  O  O248  1  0.63612182  0.74863394  0.49571199  1
  O  O249  1  0.62999647  0.74492356  0.99429775  1
  O  O250  1  0.49823766  0.23873578  0.12877845  1
  O  O251  1  0.49052158  0.24352312  0.62515422  1
  O  O252  1  0.50114173  0.74339490  0.13382390  1
  O  O253  1  0.49595899  0.73852124  0.62758075  1
  O  O254  1  1.00046547  0.24111515  0.13304221  1
  O  O255  1  0.99375045  0.24462560  0.62964842  1
  O  O256  1  0.99438364  0.74455428  0.13150006  1
  O  O257  1  0.99623177  0.74475363  0.63031317  1
  O  O258  1  0.00609478  0.25563027  0.36969200  1
  O  O259  1  0.00604674  0.25473333  0.86825235  1
  O  O260  1  0.00377403  0.75629266  0.36861423  1
  O  O261  1  0.00534284  0.75382509  0.87060275  1
  O  O262  1  0.50547571  0.25684450  0.37417806  1
  O  O263  1  0.50396968  0.26092634  0.87247416  1
  O  O264  1  0.50440613  0.75610432  0.36917540  1
  O  O265  1  0.50777492  0.75704731  0.87248319  1
  O  O266  1  0.24304350  0.13079671  0.49773650  1
  O  O267  1  0.24559351  0.13126481  0.99298234  1
  O  O268  1  0.24571400  0.63105762  0.49628301  1
  O  O269  1  0.24731382  0.63004062  0.99174900  1
  O  O270  1  0.74048566  0.13044131  0.49426986  1
  O  O271  1  0.74332516  0.12938025  0.99298947  1
  O  O272  1  0.74915715  0.63445829  0.49553150  1
  O  O273  1  0.74293218  0.62869569  0.99424829  1
  O  O274  1  0.25630762  0.37251346  0.00255184  1
  O  O275  1  0.24988078  0.36712190  0.50800575  1
  O  O276  1  0.26002817  0.86293090  -0.00815006  1
  O  O277  1  0.25866576  0.87182790  0.50815401  1
  O  O278  1  0.75021157  0.37306250  0.00135312  1
  O  O279  1  0.75345141  0.36887215  0.50361520  1
  O  O280  1  0.75157571  0.86672122  0.00740439  1
  O  O281  1  0.75305045  0.86313754  0.50076124  1
  O  O282  1  0.12535989  0.49359959  0.24334062  1
  O  O283  1  0.13075888  0.49489597  0.74429694  1
  O  O284  1  0.14435410  1.00373659  0.25235018  1
  O  O285  1  0.12918410  0.99711977  0.74127522  1
  O  O286  1  0.63254550  0.49171204  0.25230630  1
  O  O287  1  0.63075012  0.48710669  0.75654705  1
  O  O288  1  0.63172268  0.99861587  0.24025509  1
  O  O289  1  0.62586217  0.99174411  0.74194724  1
  O  O290  1  0.36760410  0.00677943  0.25744738  1
  O  O291  1  0.37244021  -0.00535372  0.76540539  1
  O  O292  1  0.37467186  0.50359395  0.26321907  1
  O  O293  1  0.36662375  0.51228343  0.74536047  1
  O  O294  1  0.87075629  0.00545913  0.25603382  1
  O  O295  1  0.87597477  0.00556449  0.75815259  1
  O  O296  1  0.86409198  0.49992812  0.25641994  1
  O  O297  1  0.86850300  0.50688083  0.75502314  1
  O  O298  1  0.11998305  0.37016369  0.37002858  1
  O  O299  1  0.11981135  0.36945481  0.86862662  1
  O  O300  1  0.11346294  0.86839774  0.38241464  1
  O  O301  1  0.12011798  0.86798522  0.87363474  1
  O  O302  1  0.61935624  0.36942046  0.36685641  1
  O  O303  1  0.61321185  0.36874655  0.86621147  1
  O  O304  1  0.61546199  0.87053864  0.37540820  1
  O  O305  1  0.62069155  0.87278735  0.86808926  1
  O  O306  1  0.38312890  0.12384559  0.13308341  1
  O  O307  1  0.38602260  0.13221014  0.61557050  1
  O  O308  1  0.38880263  0.62761240  0.12612364  1
  O  O309  1  0.38290668  0.62729912  0.63361605  1
  O  O310  1  0.88446600  0.12354621  0.13281352  1
  O  O311  1  0.87986110  0.13030579  0.62920736  1
  O  O312  1  0.88162525  0.63095630  0.12683633  1
  O  O313  1  0.88120169  0.63063677  0.63119552  1
  O  O314  1  0.25082033  0.25798155  0.11763837  1
  O  O315  1  0.25568346  0.25272038  0.62057479  1
  O  O316  1  0.25404225  0.73822128  0.10959718  1
  O  O317  1  0.25254319  0.76013563  0.61860601  1
  O  O318  1  0.75290139  0.25321454  0.12264697  1
  O  O319  1  0.75469863  0.25609245  0.61948147  1
  O  O320  1  0.75355278  0.75355649  0.12164628  1
  O  O321  1  0.75559114  0.75016553  0.61589805  1
  O  O322  1  0.24376420  0.24837241  0.38164038  1
  O  O323  1  0.24521630  0.24410177  0.88091867  1
  O  O324  1  0.24510546  0.74598050  0.38083286  1
  O  O325  1  0.24570430  0.73951031  0.88282294  1
  O  O326  1  0.74347908  0.24318159  0.38004003  1
  O  O327  1  0.73528327  0.25080015  0.87292779  1
  O  O328  1  0.74763909  0.74673511  0.38178715  1
  O  O329  1  0.74490790  0.74441600  0.88076538  1
  O  O330  1  0.00723245  0.11851236  0.00532665  1
  O  O331  1  0.00518621  0.12014294  0.50521877  1
  O  O332  1  0.00639030  0.62009961  0.00433441  1
  O  O333  1  0.00744589  0.62424874  0.50704989  1
  O  O334  1  0.50006844  0.12233251  0.01293003  1
  O  O335  1  0.51319885  0.13023597  0.50842755  1
  O  O336  1  0.50191539  0.61983486  0.00434875  1
  O  O337  1  0.50141320  0.61804521  0.50851441  1
  O  O338  1  0.49925473  0.38340891  0.49376066  1
  O  O339  1  0.49304192  0.38226592  0.99391268  1
  O  O340  1  0.49153195  0.86768159  0.48975057  1
  O  O341  1  0.49180919  0.87628828  0.99220129  1
  O  O342  1  0.99249868  0.37584097  0.49319030  1
  O  O343  1  1.00150448  0.38305545  0.99133677  1
  O  O344  1  0.99843882  0.88094391  0.49098546  1
  O  O345  1  0.99657254  0.88059886  0.99120521  1
  O  O346  1  0.49255510  0.49727220  0.38236396  1
  O  O347  1  0.50277653  0.49017418  0.88573204  1
  O  O348  1  0.48979417  0.98797377  0.36605070  1
  O  O349  1  0.49147932  0.99572354  0.87714871  1
  O  O350  1  0.99317811  0.49328913  0.37532799  1
  O  O351  1  0.99542635  0.49614984  0.87863558  1
  O  O352  1  0.99747211  0.99293153  0.37837373  1
  O  O353  1  0.99390232  0.99531742  0.87944127  1
  O  O354  1  0.00399854  0.00489904  0.11938206  1
  O  O355  1  0.00522137  0.00491703  0.61892454  1
  O  O356  1  0.00523649  0.50605609  0.11959038  1
  O  O357  1  0.00676508  0.50685199  0.62501429  1
  O  O358  1  0.50864898  0.00733010  0.12698140  1
  O  O359  1  0.51202677  0.00885819  0.62735000  1
  O  O360  1  0.50171287  0.50933249  0.11561655  1
  O  O361  1  0.49160432  0.50793790  0.61267002  1
  O  O362  1  0.24299772  0.37755653  0.24281631  1
  O  O363  1  0.24371489  0.37991959  0.74590450  1
  O  O364  1  0.25972108  0.88824287  0.25353836  1
  O  O365  1  0.25200267  0.87330794  0.73733254  1
  O  O366  1  0.73940414  0.38436027  0.25361630  1
  O  O367  1  0.74060249  0.38034484  0.74402310  1
  O  O368  1  0.74914602  0.88126076  0.24447702  1
  O  O369  1  0.73663887  0.87649831  0.74797467  1
  O  O370  1  0.26240530  0.11922601  0.25221613  1
  O  O371  1  0.24502042  0.12641720  0.76623923  1
  O  O372  1  0.25218998  0.62437270  0.25911417  1
  O  O373  1  0.25617528  0.62138177  0.75659415  1
  O  O374  1  0.75521877  0.11874697  0.25625911  1
  O  O375  1  0.75828272  0.12399438  0.75369785  1
  O  O376  1  0.74911840  0.61556763  0.25606929  1
  O  O377  1  0.75448910  0.62140693  0.75461952  1
  O  O378  1  0.37852155  0.11579928  0.36838524  1
  O  O379  1  0.36584869  0.11640386  0.88445315  1
  O  O380  1  0.36981905  0.61740703  0.37622645  1
  O  O381  1  0.36483346  0.62919127  0.86681701  1
  O  O382  1  0.86946384  0.11891759  0.36984243  1
  O  O383  1  0.87868062  0.11420167  0.86762585  1
  O  O384  1  0.86825424  0.61780531  0.37327290  1
  O  O385  1  0.86881811  0.62056542  0.86872050  1
  O  O386  1  0.12936120  0.38085168  0.12913215  1
  O  O387  1  0.12959957  0.37918446  0.63109832  1
  O  O388  1  0.12811875  0.86602785  0.13044061  1
  O  O389  1  0.13650675  0.88062298  0.62321086  1
  O  O390  1  0.62289303  0.37693291  0.13814924  1
  O  O391  1  0.62904176  0.36730486  0.63567670  1
  O  O392  1  0.62985633  0.88418214  0.12745793  1
  O  O393  1  0.62294685  0.88304847  0.63151303  1
  O  O394  1  0.12039063  0.25520774  0.25580460  1
  O  O395  1  0.11892827  0.25572629  0.75491411  1
  O  O396  1  0.11190159  0.74412521  0.25822296  1
  O  O397  1  0.11915003  0.75081143  0.75661344  1
  O  O398  1  0.62341968  0.25895775  0.25719414  1
  O  O399  1  0.62004508  0.26225565  0.75745429  1
  O  O400  1  0.61550701  0.75251480  0.25720680  1
  O  O401  1  0.62394284  0.76007118  0.75602604  1
  O  O402  1  0.37627357  0.23955522  0.24918067  1
  O  O403  1  0.37431577  0.25301394  0.73519093  1
  O  O404  1  0.38757561  0.74823524  0.24896480  1
  O  O405  1  0.37739640  0.73625786  0.74890056  1
  O  O406  1  0.88306669  0.24153763  0.25206867  1
  O  O407  1  0.88021592  0.24549593  0.74457488  1
  O  O408  1  0.88601088  0.74713958  0.24468382  1
  O  O409  1  0.88010094  0.74417328  0.74577473  1
  O  O410  1  0.38345704  0.49840562  0.48945096  1
  O  O411  1  0.38426887  0.49040368  1.00365223  1
  O  O412  1  0.37029163  0.98944043  0.48874332  1
  O  O413  1  0.37410015  0.99060287  0.99045788  1
  O  O414  1  0.87548645  0.49227859  0.49315001  1
  O  O415  1  0.88203048  0.50132092  0.99117349  1
  O  O416  1  0.88183887  1.00102483  0.49335461  1
  O  O417  1  0.88260327  1.00011846  0.98946824  1
  O  O418  1  0.12022177  0.00577124  0.00227643  1
  O  O419  1  0.12029324  0.00598116  0.50464205  1
  O  O420  1  0.11904117  0.50600569  0.00529933  1
  O  O421  1  0.12382034  0.50639735  0.50727344  1
  O  O422  1  0.62265542  0.00101369  0.01268385  1
  O  O423  1  0.63050959  0.01048027  0.50796219  1
  O  O424  1  0.61284422  0.50628554  0.00027636  1
  O  O425  1  0.61185520  0.50236583  0.49221475  1
  O  O426  1  0.36952540  0.37519657  0.11554906  1
  O  O427  1  0.36759750  0.36549716  0.62242037  1
  O  O428  1  0.38358158  0.87481841  0.11039383  1
  O  O429  1  0.37016083  0.87819282  0.61685871  1
  O  O430  1  0.87129989  0.37194999  0.12130016  1
  O  O431  1  0.86860882  0.36850172  0.61966155  1
  O  O432  1  0.86802811  0.86796938  0.12335519  1
  O  O433  1  0.87263781  0.86703899  0.62298349  1
  O  O434  1  0.12590413  0.13243452  0.38216400  1
  O  O435  1  0.13261681  0.13002695  0.88259608  1
  O  O436  1  0.13035664  0.63029765  0.38184576  1
  O  O437  1  0.13379738  0.63024043  0.87984452  1
  O  O438  1  0.62798055  0.12701472  0.38133211  1
  O  O439  1  0.62058137  0.13711541  0.87304545  1
  O  O440  1  0.63242614  0.63306041  0.37896248  1
  O  O441  1  0.62941152  0.63084227  0.87881029  1
