# generated using pymatgen
data_V93Zn93O256
_symmetry_space_group_name_H-M   'P 1'
_cell_length_a   17.05003942
_cell_length_b   17.05021385
_cell_length_c   17.05018978
_cell_angle_alpha   89.94969280
_cell_angle_beta   90.02412102
_cell_angle_gamma   89.99302052
_symmetry_Int_Tables_number   1
_chemical_formula_structural   V93Zn93O256
_chemical_formula_sum   'V93 Zn93 O256'
_cell_volume   4956.60403254
_cell_formula_units_Z   1
loop_
 _symmetry_equiv_pos_site_id
 _symmetry_equiv_pos_as_xyz
  1  'x, y, z'
loop_
 _atom_site_type_symbol
 _atom_site_label
 _atom_site_symmetry_multiplicity
 _atom_site_fract_x
 _atom_site_fract_y
 _atom_site_fract_z
 _atom_site_occupancy
  V  V0  1  0.12478365  0.12315866  0.50031137  1
  V  V1  1  0.74867312  0.87900375  0.12647910  1
  V  V2  1  0.50327752  0.00381295  0.00243058  1
  V  V3  1  0.12480681  0.12085397  0.00779210  1
  V  V4  1  -0.00009478  -0.00141976  0.50034203  1
  V  V5  1  -0.00104758  0.49844526  0.50105806  1
  V  V6  1  -0.00663203  0.37605921  0.87718359  1
  V  V7  1  0.50277763  0.61925897  0.62451863  1
  V  V8  1  0.24982551  0.37322727  0.62487188  1
  V  V9  1  0.12482327  0.49885493  0.62579736  1
  V  V10  1  0.87531371  0.62357308  0.24939030  1
  V  V11  1  0.12480020  0.37477476  0.75081122  1
  V  V12  1  -0.00513741  0.24910544  0.25011695  1
  V  V13  1  0.49973385  0.24979057  0.25000772  1
  V  V14  1  0.62512714  -0.00162908  0.62496317  1
  V  V15  1  0.87606178  0.87389634  0.49898798  1
  V  V16  1  0.00005986  0.12365999  0.62681313  1
  V  V17  1  0.12589102  0.62525226  0.00056569  1
  V  V18  1  0.37596611  0.49990536  0.37672745  1
  V  V19  1  0.49886833  0.12411676  0.62671625  1
  V  V20  1  0.25463750  0.61985093  0.87612448  1
  V  V21  1  0.24516226  -0.00049113  0.24370372  1
  V  V22  1  0.74943620  0.87421734  0.62562900  1
  V  V23  1  0.12605894  0.62398091  0.50053966  1
  V  V24  1  0.25115801  0.75039831  0.00140899  1
  V  V25  1  0.62519814  0.61868088  0.50392231  1
  V  V26  1  0.75124171  0.62533878  0.87364309  1
  V  V27  1  0.00375088  -0.00064660  0.00668397  1
  V  V28  1  0.24890626  0.12440729  0.37589996  1
  V  V29  1  0.87467057  0.37436434  0.50072184  1
  V  V30  1  0.49985299  0.62579668  0.12641270  1
  V  V31  1  0.62464598  0.24955018  0.37475232  1
  V  V32  1  0.37504178  0.12571278  0.24937632  1
  V  V33  1  0.75109036  0.75031695  -0.00042258  1
  V  V34  1  0.74983777  0.25020112  0.49950964  1
  V  V35  1  0.37487516  0.74926736  0.62600889  1
  V  V36  1  0.87527050  0.12384282  0.74974780  1
  V  V37  1  0.37425423  0.24857889  0.62501512  1
  V  V38  1  0.62440490  0.62588522  0.00001137  1
  V  V39  1  0.50032610  0.87452241  0.37463297  1
  V  V40  1  0.87588710  0.74886063  0.62473326  1
  V  V41  1  0.37461035  -0.00024557  0.37523323  1
  V  V42  1  -0.00619264  0.49657128  -0.00176719  1
  V  V43  1  0.87545152  0.62323852  0.75109855  1
  V  V44  1  0.49446282  0.50136182  -0.00752771  1
  V  V45  1  0.25017378  0.25002453  0.00077429  1
  V  V46  1  0.74272673  0.50056450  0.74477954  1
  V  V47  1  0.37407750  0.87453214  0.50115384  1
  V  V48  1  0.75042051  0.74810745  0.49956390  1
  V  V49  1  0.37612825  0.25178388  0.12570203  1
  V  V50  1  0.62530338  0.75032793  0.37513854  1
  V  V51  1  0.25082317  0.50008462  0.75209648  1
  V  V52  1  0.25036681  0.62491484  0.37643476  1
  V  V53  1  0.75022598  0.00023175  0.75008435  1
  V  V54  1  0.24902260  0.37539690  0.12538881  1
  V  V55  1  0.37527428  0.62599060  0.25125341  1
  V  V56  1  0.12456466  0.87682558  0.24519870  1
  V  V57  1  0.00041638  0.62400553  0.12459884  1
  V  V58  1  0.75042876  0.49711017  0.24827677  1
  V  V59  1  0.50014069  0.37579713  0.37392363  1
  V  V60  1  0.24696829  0.87425289  0.62877398  1
  V  V61  1  0.50052263  0.75059957  0.25065020  1
  V  V62  1  0.12569210  0.75539438  0.87172920  1
  V  V63  1  0.00014364  0.24858341  0.75006885  1
  V  V64  1  0.37424713  0.12469860  0.75048885  1
  V  V65  1  0.87771119  0.87633806  -0.00355988  1
  V  V66  1  0.74120273  0.37871556  0.62411979  1
  V  V67  1  0.87185853  0.25417912  0.10719511  1
  V  V68  1  0.50001616  -0.00122454  0.50048240  1
  V  V69  1  0.12353433  0.37384113  0.25110880  1
  V  V70  1  0.62561753  0.75205723  0.87496225  1
  V  V71  1  0.12508930  0.24995923  0.87616058  1
  V  V72  1  0.87585742  0.74953001  0.12484909  1
  V  V73  1  0.87420516  0.00166778  0.37231978  1
  V  V74  1  0.00076891  0.62411341  0.62629113  1
  V  V75  1  0.12490799  -0.00492984  0.62824392  1
  V  V76  1  0.37563511  0.87528575  0.00361576  1
  V  V77  1  0.62945099  0.13454490  -0.00136709  1
  V  V78  1  0.87551904  0.49911829  0.37485530  1
  V  V79  1  0.50195939  0.87521428  0.87493563  1
  V  V80  1  0.37419368  0.38017641  -0.00720438  1
  V  V81  1  0.25028383  0.12421836  0.87568399  1
  V  V82  1  0.12392903  0.49934574  0.12530055  1
  V  V83  1  0.00143104  0.74945312  0.25107918  1
  V  V84  1  0.24849714  0.24838778  0.50041806  1
  V  V85  1  0.00430660  0.75593447  0.75080578  1
  V  V86  1  0.37574175  0.62176619  0.75289304  1
  V  V87  1  0.74919504  0.13313338  0.87641257  1
  V  V88  1  0.62552099  0.12468107  0.49970407  1
  V  V89  1  0.24942088  0.74899879  0.50130810  1
  V  V90  1  0.24478149  -0.00602158  0.75241555  1
  V  V91  1  0.75350311  0.37473188  0.10633422  1
  V  V92  1  0.62553814  0.49972001  0.12391642  1
  Zn  Zn93  1  0.50110203  0.25330866  0.75164682  1
  Zn  Zn94  1  0.74888379  0.62436219  0.37482173  1
  Zn  Zn95  1  0.50532993  0.49532835  0.50386864  1
  Zn  Zn96  1  0.61870731  0.37570828  0.74804698  1
  Zn  Zn97  1  0.24845419  0.50113149  0.25059410  1
  Zn  Zn98  1  0.00576099  0.87924561  0.87197263  1
  Zn  Zn99  1  0.62278052  0.25639807  0.87245187  1
  Zn  Zn100  1  0.62478685  0.87476606  0.74961574  1
  Zn  Zn101  1  0.62769938  0.00547767  0.12806755  1
  Zn  Zn102  1  0.37359224  0.74991757  0.12750640  1
  Zn  Zn103  1  0.87190534  0.12618170  0.24654383  1
  Zn  Zn104  1  -0.00099073  0.12372611  0.12639809  1
  Zn  Zn105  1  0.00007430  0.37281429  0.37742871  1
  Zn  Zn106  1  0.62548947  0.87765377  0.24949966  1
  Zn  Zn107  1  0.00161910  0.87323841  0.37486513  1
  Zn  Zn108  1  0.74987296  0.12591742  0.37189184  1
  Zn  Zn109  1  0.50121758  0.75022442  0.74934251  1
  Zn  Zn110  1  0.62667076  0.37231985  0.24591172  1
  Zn  Zn111  1  0.37502217  0.00082128  0.87529667  1
  Zn  Zn112  1  0.74764195  0.00442504  0.25023566  1
  Zn  Zn113  1  0.12287074  0.24881434  0.37572348  1
  Zn  Zn114  1  0.37435910  0.37397436  0.50020509  1
  Zn  Zn115  1  0.87628036  0.00110163  0.87514693  1
  Zn  Zn116  1  0.12407047  0.75008130  0.37574712  1
  Zn  Zn117  1  0.87082662  0.49575820  0.87675195  1
  Zn  Zn118  1  0.50465391  0.12849731  0.12476013  1
  Zn  Zn119  1  0.24683215  0.87659662  0.12375229  1
  Zn  Zn120  1  0.49883561  0.37606304  0.87022226  1
  Zn  Zn121  1  0.87417854  0.24945228  0.62388123  1
  Zn  Zn122  1  0.18815349  0.18871335  0.18883191  1
  Zn  Zn123  1  0.18693858  0.18444203  0.68805862  1
  Zn  Zn124  1  0.18845099  0.68965855  0.18865397  1
  Zn  Zn125  1  0.18764126  0.68706303  0.68839013  1
  Zn  Zn126  1  0.69072409  0.18863937  0.18620209  1
  Zn  Zn127  1  0.68618903  0.19013324  0.68780061  1
  Zn  Zn128  1  0.68730719  0.68868084  0.18762421  1
  Zn  Zn129  1  0.68574983  0.68865883  0.68826455  1
  Zn  Zn130  1  0.31102674  0.31190019  0.31333975  1
  Zn  Zn131  1  0.31296634  0.30995855  0.81180778  1
  Zn  Zn132  1  0.31134689  0.81230632  0.31388721  1
  Zn  Zn133  1  0.31505687  0.81025568  0.81506447  1
  Zn  Zn134  1  0.81251039  0.31364747  0.31175400  1
  Zn  Zn135  1  0.81136621  0.31234101  0.80715908  1
  Zn  Zn136  1  0.81333132  0.81295843  0.31296671  1
  Zn  Zn137  1  0.81396430  0.81179682  0.81077653  1
  Zn  Zn138  1  0.18769680  0.43687447  0.43723847  1
  Zn  Zn139  1  0.18386476  0.43728862  0.93865531  1
  Zn  Zn140  1  0.18595115  0.93572206  0.43504385  1
  Zn  Zn141  1  0.18812642  0.93868980  0.93986309  1
  Zn  Zn142  1  0.68859421  0.43602919  0.43517683  1
  Zn  Zn143  1  0.68199921  0.44152735  0.93030282  1
  Zn  Zn144  1  0.68900707  0.93623975  0.43751413  1
  Zn  Zn145  1  0.68829971  0.94340245  0.93791314  1
  Zn  Zn146  1  0.31597549  0.06389497  0.06314292  1
  Zn  Zn147  1  0.31125578  0.06114709  0.56437756  1
  Zn  Zn148  1  0.31243323  0.56229028  0.06567647  1
  Zn  Zn149  1  0.31452203  0.56099734  0.56385873  1
  Zn  Zn150  1  0.81451727  0.06539169  0.06105217  1
  Zn  Zn151  1  0.81259575  0.06274695  0.56118167  1
  Zn  Zn152  1  0.81233331  0.56269255  0.06221511  1
  Zn  Zn153  1  0.81233395  0.56185086  0.56347739  1
  Zn  Zn154  1  0.43706308  0.43880200  0.18630964  1
  Zn  Zn155  1  0.43446872  0.43780655  0.68769554  1
  Zn  Zn156  1  0.43816428  0.93953796  0.18807307  1
  Zn  Zn157  1  0.43391082  0.93922052  0.68903757  1
  Zn  Zn158  1  0.93605968  0.43367083  0.18496438  1
  Zn  Zn159  1  0.93253428  0.43634679  0.68798609  1
  Zn  Zn160  1  0.93767945  0.93627492  0.18790040  1
  Zn  Zn161  1  0.93522490  0.93773370  0.68640965  1
  Zn  Zn162  1  0.06096701  0.06235446  0.31253488  1
  Zn  Zn163  1  0.06278760  0.06119902  0.81782240  1
  Zn  Zn164  1  0.06178946  0.56140310  0.31442028  1
  Zn  Zn165  1  0.06436539  0.56458321  0.81405373  1
  Zn  Zn166  1  0.56440292  0.06237848  0.31091711  1
  Zn  Zn167  1  0.56438532  0.06361820  0.81312601  1
  Zn  Zn168  1  0.56482159  0.56340583  0.31321182  1
  Zn  Zn169  1  0.56318971  0.56434799  0.81188342  1
  Zn  Zn170  1  0.43652388  0.18687700  0.43863670  1
  Zn  Zn171  1  0.43860821  0.19055770  0.93549083  1
  Zn  Zn172  1  0.43894211  0.68744023  0.43897227  1
  Zn  Zn173  1  0.43763453  0.68961263  0.93869605  1
  Zn  Zn174  1  0.93735201  0.18671545  0.43670321  1
  Zn  Zn175  1  0.93912850  0.18430053  0.93393600  1
  Zn  Zn176  1  0.93789082  0.68528954  0.43563854  1
  Zn  Zn177  1  0.93860172  0.68676876  0.93651831  1
  Zn  Zn178  1  0.06054260  0.31123894  0.06254753  1
  Zn  Zn179  1  0.06230763  0.31058768  0.56358546  1
  Zn  Zn180  1  0.06375210  0.81194761  0.06338973  1
  Zn  Zn181  1  0.06396512  0.81279637  0.56313605  1
  Zn  Zn182  1  0.56202752  0.31627183  0.06161404  1
  Zn  Zn183  1  0.56059641  0.30998395  0.56210286  1
  Zn  Zn184  1  0.56326520  0.81239599  0.06361603  1
  Zn  Zn185  1  0.56237993  0.80847440  0.56233599  1
  O  O186  1  0.12274119  0.13368400  0.11036676  1
  O  O187  1  0.11970485  0.11596579  0.62009354  1
  O  O188  1  0.11954097  0.61967044  0.12067581  1
  O  O189  1  0.12076551  0.61803858  0.62047861  1
  O  O190  1  0.62516992  0.12513629  0.11353393  1
  O  O191  1  0.61898263  0.11747451  0.61879074  1
  O  O192  1  0.62035680  0.62054213  0.11861718  1
  O  O193  1  0.61442484  0.63258640  0.61585102  1
  O  O194  1  0.38243171  0.38262024  0.37458778  1
  O  O195  1  0.37063594  0.37318384  0.89050179  1
  O  O196  1  0.38009272  0.88006315  0.38205435  1
  O  O197  1  0.38438222  0.87508279  0.88686875  1
  O  O198  1  0.87614316  0.38250188  0.38260793  1
  O  O199  1  0.89020953  0.37491783  0.86827376  1
  O  O200  1  0.87730344  0.88294190  0.38166767  1
  O  O201  1  0.87671385  0.87290198  0.88847319  1
  O  O202  1  0.25647845  0.00498780  0.36764401  1
  O  O203  1  0.25024654  0.00491403  0.86773419  1
  O  O204  1  0.25976617  0.50507762  0.37405150  1
  O  O205  1  0.24092858  0.51347676  0.87049343  1
  O  O206  1  0.76222381  -0.00028694  0.37550893  1
  O  O207  1  0.75232920  0.00887906  0.86653751  1
  O  O208  1  0.75574187  0.50058402  0.36334453  1
  O  O209  1  0.75298237  0.50785329  0.86550966  1
  O  O210  1  0.24138068  0.49384450  0.12744997  1
  O  O211  1  0.24450479  0.49408191  0.63119291  1
  O  O212  1  0.25714460  0.99913392  0.14030535  1
  O  O213  1  0.24497423  0.99447912  0.63392539  1
  O  O214  1  0.74724143  0.49387410  0.12979962  1
  O  O215  1  0.75592446  0.49123640  0.63355113  1
  O  O216  1  0.75310581  0.98899220  0.12432602  1
  O  O217  1  0.74487331  0.99385182  0.62908886  1
  O  O218  1  0.00835295  0.36738751  0.24988123  1
  O  O219  1  0.00612368  0.37053400  0.75648172  1
  O  O220  1  0.00797806  0.86848509  0.24974948  1
  O  O221  1  -0.00759994  0.85956599  0.75209883  1
  O  O222  1  0.50045106  0.36994214  0.25945528  1
  O  O223  1  0.49978436  0.37587803  0.75180468  1
  O  O224  1  0.49999349  0.86897042  0.25702353  1
  O  O225  1  0.49802547  0.87541579  0.76416791  1
  O  O226  1  0.49246460  0.13188278  0.24918848  1
  O  O227  1  0.49056772  0.12045818  0.74280049  1
  O  O228  1  0.49547612  0.63048309  0.24612158  1
  O  O229  1  0.49198455  0.62565225  0.74384195  1
  O  O230  1  1.00022523  0.13605063  0.24521840  1
  O  O231  1  0.99626976  0.12855270  0.74716994  1
  O  O232  1  0.99528672  0.62821246  0.24346164  1
  O  O233  1  0.99593575  0.63241986  0.74519957  1
  O  O234  1  0.36891613  0.25906662  0.00637893  1
  O  O235  1  0.36610315  0.24934818  0.50689846  1
  O  O236  1  0.37000571  0.75959776  0.00143462  1
  O  O237  1  0.36906395  0.75475121  0.50616978  1
  O  O238  1  0.88084238  0.25047061  0.00923990  1
  O  O239  1  0.86846974  0.25644137  0.49982118  1
  O  O240  1  0.87199802  0.75658096  0.00516467  1
  O  O241  1  0.87111036  0.75271297  0.50562246  1
  O  O242  1  0.13054988  0.24132753  0.50005895  1
  O  O243  1  0.13057339  0.24371923  0.99498619  1
  O  O244  1  0.13162703  0.74145833  0.50067142  1
  O  O245  1  0.13018894  0.74365975  0.99321121  1
  O  O246  1  0.62947446  0.24392857  0.49424542  1
  O  O247  1  0.61790041  0.23731503  0.99726052  1
  O  O248  1  0.63073004  0.74120982  0.49444650  1
  O  O249  1  0.63121548  0.74471187  0.99483237  1
  O  O250  1  0.49336064  0.25247217  0.13258887  1
  O  O251  1  0.49127487  0.24102899  0.62434354  1
  O  O252  1  0.49912706  0.74336731  0.13154020  1
  O  O253  1  0.49228887  0.74027616  0.62694883  1
  O  O254  1  0.98628671  0.25322721  0.13095969  1
  O  O255  1  1.00037157  0.24135826  0.63298745  1
  O  O256  1  0.99490723  0.74287977  0.12987455  1
  O  O257  1  0.99691336  0.74415532  0.63263080  1
  O  O258  1  0.00263626  0.25228771  0.36469395  1
  O  O259  1  0.00596167  0.25755431  0.87044620  1
  O  O260  1  0.00170149  0.75047783  0.36633624  1
  O  O261  1  0.00938632  0.74872958  0.86748354  1
  O  O262  1  0.50276367  0.25804167  0.37075837  1
  O  O263  1  0.50085042  0.25568256  0.87000219  1
  O  O264  1  0.50480610  0.75568697  0.37079822  1
  O  O265  1  0.50660036  0.76007865  0.87658567  1
  O  O266  1  0.24415594  0.12782357  0.49594067  1
  O  O267  1  0.24402016  0.12896220  0.99632077  1
  O  O268  1  0.24568217  0.62908054  0.49712397  1
  O  O269  1  0.24719940  0.62859995  0.99309148  1
  O  O270  1  0.74268620  0.13211822  0.49903073  1
  O  O271  1  0.74072602  0.11783500  0.98821870  1
  O  O272  1  0.74211114  0.63036980  0.50085545  1
  O  O273  1  0.74510216  0.63052152  0.99499796  1
  O  O274  1  0.25434414  0.37119787  0.00536855  1
  O  O275  1  0.24914199  0.36742830  0.50707514  1
  O  O276  1  0.26003591  0.87161154  0.00106175  1
  O  O277  1  0.25561859  0.86971549  0.50643944  1
  O  O278  1  0.74842896  0.38562898  0.00820763  1
  O  O279  1  0.75443611  0.37164790  0.50603986  1
  O  O280  1  0.75876195  0.87106093  0.00569470  1
  O  O281  1  0.75625433  0.86748647  0.50646475  1
  O  O282  1  0.12296385  0.48961562  0.24385146  1
  O  O283  1  0.13037746  0.49540162  0.74468838  1
  O  O284  1  0.13529944  0.99146664  0.25682119  1
  O  O285  1  0.13706524  1.00539861  0.74580879  1
  O  O286  1  0.63494691  0.50011483  0.24309671  1
  O  O287  1  0.63974620  0.50272390  0.75181183  1
  O  O288  1  0.62835158  0.99506497  0.24573819  1
  O  O289  1  0.63180154  0.99747440  0.74228653  1
  O  O290  1  0.36812199  0.00519681  0.25671996  1
  O  O291  1  0.36306270  0.00699231  0.75235056  1
  O  O292  1  0.37399741  0.50579089  0.26124547  1
  O  O293  1  0.36650811  0.51486508  0.74573357  1
  O  O294  1  0.87617668  0.00117484  0.26081390  1
  O  O295  1  0.86893839  0.00594440  0.75144411  1
  O  O296  1  0.86909154  0.50348475  0.25263873  1
  O  O297  1  0.86618155  0.50732483  0.75265072  1
  O  O298  1  0.12364183  0.37328038  0.36300395  1
  O  O299  1  0.11766968  0.36954895  0.86897216  1
  O  O300  1  0.12269297  0.87089243  0.36330399  1
  O  O301  1  0.12621830  0.85893499  0.88121999  1
  O  O302  1  0.61456433  0.37013476  0.37236746  1
  O  O303  1  0.61938720  0.37398711  0.86936140  1
  O  O304  1  0.61766114  0.86764076  0.37641873  1
  O  O305  1  0.61632423  0.87117817  0.87723891  1
  O  O306  1  0.37757387  0.13444230  0.13143992  1
  O  O307  1  0.37887938  0.12840242  0.63025691  1
  O  O308  1  0.38193032  0.62562215  0.13340139  1
  O  O309  1  0.38063924  0.63052956  0.63269205  1
  O  O310  1  0.87519557  0.14239692  0.12471479  1
  O  O311  1  0.88279727  0.12492974  0.63121673  1
  O  O312  1  0.88102372  0.62985813  0.12950319  1
  O  O313  1  0.88182891  0.63039245  0.63019127  1
  O  O314  1  0.25574772  0.25613767  0.11972385  1
  O  O315  1  0.25355706  0.25354506  0.62046890  1
  O  O316  1  0.25340421  0.75255562  0.11631427  1
  O  O317  1  0.25495453  0.75397587  0.62118309  1
  O  O318  1  0.76395425  0.26093079  0.12643784  1
  O  O319  1  0.75227890  0.25951702  0.61728031  1
  O  O320  1  0.75609342  0.75692851  0.11846478  1
  O  O321  1  0.75668325  0.75402305  0.62021684  1
  O  O322  1  0.24749375  0.24205658  0.38135897  1
  O  O323  1  0.24424433  0.24435791  0.88155847  1
  O  O324  1  0.24988944  0.74222456  0.38436857  1
  O  O325  1  0.24367738  0.74082133  0.87969800  1
  O  O326  1  0.74193696  0.25245245  0.38175268  1
  O  O327  1  0.74933878  0.23594773  0.86777449  1
  O  O328  1  0.74483682  0.74779331  0.38149013  1
  O  O329  1  0.74559540  0.74579801  0.88046705  1
  O  O330  1  0.00878009  0.11710085  -0.00068939  1
  O  O331  1  0.00507844  0.11852635  0.50680760  1
  O  O332  1  0.00642831  0.61792617  0.00471801  1
  O  O333  1  0.00513084  0.61865223  0.50723142  1
  O  O334  1  0.50697271  0.11676631  -0.00110150  1
  O  O335  1  0.50450661  0.11773971  0.50591760  1
  O  O336  1  0.50330830  0.62002176  0.00576904  1
  O  O337  1  0.50805779  0.62488330  0.50778660  1
  O  O338  1  0.49765854  0.37608325  0.48759509  1
  O  O339  1  0.48975330  0.38580340  1.00094616  1
  O  O340  1  0.49340881  0.87912628  0.49562275  1
  O  O341  1  0.49529671  0.88196582  0.99389241  1
  O  O342  1  0.99417652  0.38092401  0.50116359  1
  O  O343  1  1.00949366  0.38556696  0.98879808  1
  O  O344  1  0.99353754  0.88060917  0.50038267  1
  O  O345  1  0.99326086  0.88064476  1.00089056  1
  O  O346  1  0.49298377  0.49180723  0.37403676  1
  O  O347  1  0.50191813  0.50406638  0.89042066  1
  O  O348  1  0.49398950  0.99464278  0.38123425  1
  O  O349  1  0.49972457  0.99140273  0.88511045  1
  O  O350  1  0.99332784  0.49781116  0.38325804  1
  O  O351  1  1.00104351  0.49309595  0.88145767  1
  O  O352  1  0.99107847  0.99812642  0.38242165  1
  O  O353  1  0.99758758  0.99572775  0.88681954  1
  O  O354  1  -0.00679862  0.00370349  0.11109240  1
  O  O355  1  0.00540775  0.00379780  0.62107364  1
  O  O356  1  0.00390473  0.50349896  0.11702758  1
  O  O357  1  0.00505669  0.50445893  0.62153252  1
  O  O358  1  0.50127235  0.00261276  0.11271508  1
  O  O359  1  0.50421020  0.00296058  0.61909057  1
  O  O360  1  0.50621677  0.50623670  0.11844717  1
  O  O361  1  0.49204188  0.51528204  0.62121001  1
  O  O362  1  0.23918715  0.37468994  0.24427978  1
  O  O363  1  0.24449520  0.37978715  0.74598307  1
  O  O364  1  0.24397370  0.88264785  0.25009962  1
  O  O365  1  0.25907592  0.88569415  0.74597885  1
  O  O366  1  0.75034812  0.38780134  0.24218786  1
  O  O367  1  0.75051021  0.38439770  0.74017030  1
  O  O368  1  0.75124640  0.87474263  0.23653517  1
  O  O369  1  0.75039085  0.88118937  0.74327110  1
  O  O370  1  0.25367472  0.11850031  0.25528233  1
  O  O371  1  0.25440069  0.11594113  0.75566168  1
  O  O372  1  0.25617477  0.62357510  0.25778124  1
  O  O373  1  0.25618718  0.62107074  0.75730585  1
  O  O374  1  0.75453958  0.12275724  0.25425499  1
  O  O375  1  0.75562570  0.11869982  0.75455875  1
  O  O376  1  0.75641681  0.61280691  0.24663917  1
  O  O377  1  0.75522653  0.61976969  0.75271640  1
  O  O378  1  0.36922444  0.11932150  0.36950259  1
  O  O379  1  0.36655110  0.12369707  0.86987301  1
  O  O380  1  0.37174224  0.61749802  0.37160999  1
  O  O381  1  0.36439952  0.63295045  0.86673016  1
  O  O382  1  0.87353454  0.11273176  0.37513524  1
  O  O383  1  0.86672368  0.12324415  0.86862233  1
  O  O384  1  0.87190125  0.61708573  0.36734711  1
  O  O385  1  0.86799701  0.62562423  0.86854164  1
  O  O386  1  0.12876759  0.37881084  0.13210593  1
  O  O387  1  0.13002894  0.37953939  0.63198010  1
  O  O388  1  0.12734133  0.87121757  0.13967161  1
  O  O389  1  0.13434754  0.88231114  0.62125417  1
  O  O390  1  0.63527914  0.38122293  0.12543334  1
  O  O391  1  0.63809083  0.37375758  0.62160693  1
  O  O392  1  0.63815789  0.87669936  0.12284480  1
  O  O393  1  0.63105971  0.87973584  0.62491225  1
  O  O394  1  0.11511809  0.25907139  0.24755962  1
  O  O395  1  0.12040587  0.25414632  0.75631254  1
  O  O396  1  0.11929739  0.75701393  0.25267408  1
  O  O397  1  0.11565245  0.74240292  0.75924640  1
  O  O398  1  0.61800960  0.25173453  0.25644851  1
  O  O399  1  0.61984003  0.25435606  0.75103075  1
  O  O400  1  0.61876674  0.75159382  0.25701897  1
  O  O401  1  0.62180547  0.75429821  0.75900445  1
  O  O402  1  0.37909012  0.24523939  0.24585242  1
  O  O403  1  0.37245585  0.24086530  0.74152835  1
  O  O404  1  0.38216314  0.74381554  0.25089623  1
  O  O405  1  0.37573687  0.73812594  0.74484960  1
  O  O406  1  0.88560773  0.25134048  0.24683583  1
  O  O407  1  0.88348101  0.24176187  0.74745948  1
  O  O408  1  0.88056841  0.74386620  0.24386745  1
  O  O409  1  0.88300727  0.74281708  0.74436808  1
  O  O410  1  0.37798422  0.49864989  0.48694035  1
  O  O411  1  0.38312335  0.49172538  1.00803794  1
  O  O412  1  0.37961446  0.99441382  0.49559070  1
  O  O413  1  0.38379952  0.99298854  0.99817894  1
  O  O414  1  0.87976463  0.49518386  0.49517360  1
  O  O415  1  0.89008433  0.50606647  0.99742889  1
  O  O416  1  0.88038878  0.99378212  0.49410231  1
  O  O417  1  0.88309757  0.99100077  0.99802640  1
  O  O418  1  0.11727476  0.00938695  -0.00411163  1
  O  O419  1  0.11983040  0.00390512  0.50613092  1
  O  O420  1  0.11622214  0.50636252  0.00568788  1
  O  O421  1  0.11968762  0.50386510  0.50686394  1
  O  O422  1  0.61624955  0.00959606  0.00178419  1
  O  O423  1  0.61939712  0.00407497  0.50492093  1
  O  O424  1  0.61548376  0.50781444  0.00538837  1
  O  O425  1  0.62494379  0.51478346  0.49284806  1
  O  O426  1  0.36810038  0.37105367  0.11819117  1
  O  O427  1  0.36647143  0.36832629  0.62233783  1
  O  O428  1  0.37598690  0.87376887  0.11251828  1
  O  O429  1  0.36891168  0.86946925  0.62001304  1
  O  O430  1  0.86803898  0.36382923  0.12452964  1
  O  O431  1  0.86539453  0.37219249  0.61763064  1
  O  O432  1  0.86911847  0.86910505  0.11502933  1
  O  O433  1  0.86939827  0.86809382  0.61872148  1
  O  O434  1  0.13139449  0.12478622  0.38267866  1
  O  O435  1  0.13077628  0.13148182  0.88524096  1
  O  O436  1  0.13205032  0.62355181  0.38309848  1
  O  O437  1  0.13450200  0.63412945  0.88060760  1
  O  O438  1  0.62413156  0.13205661  0.38321098  1
  O  O439  1  0.63358965  0.12559441  0.88186162  1
  O  O440  1  0.62637666  0.63268488  0.38417916  1
  O  O441  1  0.63120044  0.63197911  0.88109778  1
