# generated using pymatgen
data_V93Zn93O256
_symmetry_space_group_name_H-M   'P 1'
_cell_length_a   17.04616116
_cell_length_b   17.05079656
_cell_length_c   17.04963928
_cell_angle_alpha   90.02512174
_cell_angle_beta   89.96667316
_cell_angle_gamma   89.98171446
_symmetry_Int_Tables_number   1
_chemical_formula_structural   V93Zn93O256
_chemical_formula_sum   'V93 Zn93 O256'
_cell_volume   4955.48676274
_cell_formula_units_Z   1
loop_
 _symmetry_equiv_pos_site_id
 _symmetry_equiv_pos_as_xyz
  1  'x, y, z'
loop_
 _atom_site_type_symbol
 _atom_site_label
 _atom_site_symmetry_multiplicity
 _atom_site_fract_x
 _atom_site_fract_y
 _atom_site_fract_z
 _atom_site_occupancy
  V  V0  1  0.37485854  0.86821895  0.00478202  1
  V  V1  1  0.62572311  0.49989999  0.62492218  1
  V  V2  1  0.62381829  0.75003379  0.87526807  1
  V  V3  1  0.74955942  0.62533945  0.37456414  1
  V  V4  1  0.49159935  0.00116917  -0.00268298  1
  V  V5  1  0.74769893  0.00138359  0.25031866  1
  V  V6  1  0.74885249  0.87569026  0.12453075  1
  V  V7  1  0.87563550  0.12434552  0.75015507  1
  V  V8  1  0.25492660  -0.00026069  0.75682083  1
  V  V9  1  0.87524709  0.87497250  -0.00065902  1
  V  V10  1  0.62374097  0.75118688  0.37414177  1
  V  V11  1  0.12533705  0.87467513  0.75011496  1
  V  V12  1  0.37668200  0.49916215  0.87500772  1
  V  V13  1  0.87932102  0.50550594  0.87194538  1
  V  V14  1  0.75529674  0.50643880  0.74958602  1
  V  V15  1  0.37479451  0.75054338  0.62503643  1
  V  V16  1  0.74866522  0.75056341  -0.00095705  1
  V  V17  1  0.37550284  0.50019293  0.37613295  1
  V  V18  1  0.75048788  0.25014296  0.49989899  1
  V  V19  1  0.62478486  0.12562340  0.50190923  1
  V  V20  1  0.62514008  0.12555050  -0.00105102  1
  V  V21  1  0.87413749  0.74524833  0.63171743  1
  V  V22  1  0.62538870  0.62622380  -0.00080435  1
  V  V23  1  0.25292195  0.87025955  0.12656021  1
  V  V24  1  0.74910540  0.75030808  0.50020959  1
  V  V25  1  0.49401029  0.75166682  0.24661110  1
  V  V26  1  0.62583465  0.50190521  0.12467573  1
  V  V27  1  0.74942119  0.00040896  0.74910886  1
  V  V28  1  0.87673499  0.25014065  0.62428422  1
  V  V29  1  0.12465170  0.37431614  0.25330790  1
  V  V30  1  0.12512088  -0.00123754  0.12512583  1
  V  V31  1  0.12444940  0.87545255  0.24962169  1
  V  V32  1  0.00066083  0.62428007  0.12381974  1
  V  V33  1  0.25140215  0.24889099  0.00036694  1
  V  V34  1  0.36811637  0.00874362  0.37492643  1
  V  V35  1  0.37649712  0.12341761  0.75508489  1
  V  V36  1  0.36886910  0.37531970  0.50571378  1
  V  V37  1  0.62262113  0.00068301  0.12542785  1
  V  V38  1  0.62331337  0.87548132  0.25057520  1
  V  V39  1  0.00029958  -0.00101280  -0.00091213  1
  V  V40  1  0.25060180  0.50062091  0.24993840  1
  V  V41  1  -0.00337600  0.62495287  0.63090836  1
  V  V42  1  -0.00082713  0.87446857  0.37652839  1
  V  V43  1  0.13109022  0.49320030  0.62779999  1
  V  V44  1  0.49448707  0.62790147  0.12358847  1
  V  V45  1  0.87531785  0.37494328  0.49872398  1
  V  V46  1  0.74852564  0.87524834  0.62547604  1
  V  V47  1  0.87528651  0.49956225  0.37539302  1
  V  V48  1  0.37556072  0.25109953  0.12483171  1
  V  V49  1  0.12978417  0.12318041  0.49383644  1
  V  V50  1  0.75032881  0.37516195  0.62516972  1
  V  V51  1  0.37712177  0.37470376  -0.00089100  1
  V  V52  1  0.00168644  0.12352454  0.62372079  1
  V  V53  1  0.12573093  0.12438793  0.00049238  1
  V  V54  1  0.62259943  0.36988409  0.75045418  1
  V  V55  1  0.49375275  0.87957677  0.87457093  1
  V  V56  1  0.37580954  0.62461489  0.75060836  1
  V  V57  1  0.50207863  0.36984196  0.87194124  1
  V  V58  1  0.49972535  0.62539376  0.62517523  1
  V  V59  1  0.87520931  0.87479909  0.50040577  1
  V  V60  1  0.74939715  0.12502975  0.37493511  1
  V  V61  1  0.62410815  0.62497844  0.49933069  1
  V  V62  1  0.62431424  0.00082472  0.62459285  1
  V  V63  1  0.49928713  0.25122258  0.25153827  1
  V  V64  1  0.87403991  0.62563743  0.24979055  1
  V  V65  1  0.25046757  0.62287943  0.87408641  1
  V  V66  1  0.00029149  -0.00088028  0.50140758  1
  V  V67  1  0.87426815  0.74974600  0.12456104  1
  V  V68  1  0.37157140  0.25215518  0.63052015  1
  V  V69  1  0.12739316  0.24823998  0.87471059  1
  V  V70  1  0.74949457  0.50071418  0.24879745  1
  V  V71  1  0.49998247  0.13077092  0.63022228  1
  V  V72  1  0.37578239  0.87547491  0.49902522  1
  V  V73  1  0.74971439  0.12688303  0.87538323  1
  V  V74  1  0.24926869  0.62645340  0.37447441  1
  V  V75  1  0.75154243  0.37445410  0.12185143  1
  V  V76  1  0.49924406  0.49954739  0.49961388  1
  V  V77  1  0.37454395  0.62712328  0.24811729  1
  V  V78  1  0.00039811  0.87445506  0.87484187  1
  V  V79  1  0.62349647  0.25080922  0.37558612  1
  V  V80  1  0.00316817  0.25113786  0.75080896  1
  V  V81  1  -0.00060658  0.49879594  0.49955640  1
  V  V82  1  0.12506516  0.62506060  0.49975211  1
  V  V83  1  0.49829052  0.12637097  0.12598218  1
  V  V84  1  0.25035855  0.87383652  0.62769200  1
  V  V85  1  -0.00084796  0.12566103  0.12529206  1
  V  V86  1  -0.00145966  0.75058961  0.25044364  1
  V  V87  1  0.25070982  0.24534594  0.49621683  1
  V  V88  1  0.87477091  0.12732725  0.24856219  1
  V  V89  1  0.12437501  0.74911466  0.37566284  1
  V  V90  1  0.12630290  0.74882784  0.87593285  1
  V  V91  1  0.12505319  0.49997515  0.12213148  1
  V  V92  1  0.50025895  0.75105657  0.75093309  1
  Zn  Zn93  1  0.00021781  0.37068772  0.37472308  1
  Zn  Zn94  1  0.50036299  0.37579467  0.37550206  1
  Zn  Zn95  1  0.25821932  0.11940912  0.87950874  1
  Zn  Zn96  1  0.00165788  0.25070155  0.25059814  1
  Zn  Zn97  1  0.25705988  0.49050632  0.74402982  1
  Zn  Zn98  1  0.25139994  0.37564070  0.12479829  1
  Zn  Zn99  1  0.12636878  -0.00064109  0.62584536  1
  Zn  Zn100  1  0.12508018  0.62328986  -0.00116409  1
  Zn  Zn101  1  0.25453494  0.74585486  0.00541974  1
  Zn  Zn102  1  0.36472547  0.13188663  0.25633038  1
  Zn  Zn103  1  0.49874899  0.87774962  0.37444071  1
  Zn  Zn104  1  -0.00526486  0.74774569  0.75324820  1
  Zn  Zn105  1  0.50175394  0.49950615  0.00014425  1
  Zn  Zn106  1  0.13648249  0.36651850  0.74443090  1
  Zn  Zn107  1  0.62340530  0.87621719  0.75056315  1
  Zn  Zn108  1  0.12839995  0.24467363  0.37098091  1
  Zn  Zn109  1  0.87396419  -0.00009661  0.37566222  1
  Zn  Zn110  1  0.00013525  0.37357718  0.87771077  1
  Zn  Zn111  1  0.75445657  0.62888352  0.87034062  1
  Zn  Zn112  1  -0.00085861  0.49764935  -0.00067626  1
  Zn  Zn113  1  0.62473650  0.37649287  0.25077755  1
  Zn  Zn114  1  0.49964320  0.00164435  0.49904487  1
  Zn  Zn115  1  0.62358421  0.24923799  0.87333010  1
  Zn  Zn116  1  0.87486950  -0.00115974  0.87446389  1
  Zn  Zn117  1  0.75063286  0.25089610  0.00029858  1
  Zn  Zn118  1  0.24950372  0.75024852  0.50036448  1
  Zn  Zn119  1  0.87775413  0.37133465  -0.00375244  1
  Zn  Zn120  1  0.87715912  0.25247578  0.12115164  1
  Zn  Zn121  1  0.24396570  0.00732823  0.25533383  1
  Zn  Zn122  1  0.18973310  0.18739577  0.18674862  1
  Zn  Zn123  1  0.19160726  0.18373772  0.68292333  1
  Zn  Zn124  1  0.18621603  0.68758109  0.18878848  1
  Zn  Zn125  1  0.18676092  0.68500536  0.68846779  1
  Zn  Zn126  1  0.68577742  0.18954047  0.18703593  1
  Zn  Zn127  1  0.68903272  0.18761030  0.68748778  1
  Zn  Zn128  1  0.68440861  0.68828965  0.18666859  1
  Zn  Zn129  1  0.68518531  0.68888681  0.68767526  1
  Zn  Zn130  1  0.31201769  0.31500090  0.31546386  1
  Zn  Zn131  1  0.31202320  0.31160007  0.81219134  1
  Zn  Zn132  1  0.31090607  0.81602537  0.31321205  1
  Zn  Zn133  1  0.31337897  0.81217155  0.81473698  1
  Zn  Zn134  1  0.81079918  0.31325866  0.31040558  1
  Zn  Zn135  1  0.81392175  0.31613186  0.81222560  1
  Zn  Zn136  1  0.81143971  0.81370344  0.31286498  1
  Zn  Zn137  1  0.81058460  0.81474077  0.81284178  1
  Zn  Zn138  1  0.18929300  0.43741137  0.43910561  1
  Zn  Zn139  1  0.18978205  0.43319488  0.93503250  1
  Zn  Zn140  1  0.18766814  0.93659122  0.43983849  1
  Zn  Zn141  1  0.18917752  0.93589959  0.93901320  1
  Zn  Zn142  1  0.68714168  0.43644101  0.43587488  1
  Zn  Zn143  1  0.68944215  0.44070808  0.93654266  1
  Zn  Zn144  1  0.68691096  0.93848053  0.43777296  1
  Zn  Zn145  1  0.68340933  0.93920465  0.93667463  1
  Zn  Zn146  1  0.31074178  0.06196705  0.06867479  1
  Zn  Zn147  1  0.31159141  0.06127881  0.56622822  1
  Zn  Zn148  1  0.31232037  0.56057631  0.06010948  1
  Zn  Zn149  1  0.31215834  0.56509927  0.56076027  1
  Zn  Zn150  1  0.81298366  0.06154268  0.06202423  1
  Zn  Zn151  1  0.81350830  0.06219989  0.56272458  1
  Zn  Zn152  1  0.81270250  0.56171463  0.05805424  1
  Zn  Zn153  1  0.81236918  0.56260143  0.56197058  1
  Zn  Zn154  1  0.43819688  0.43835230  0.18661189  1
  Zn  Zn155  1  0.43861937  0.43677429  0.68820195  1
  Zn  Zn156  1  0.43481748  0.93943941  0.18855775  1
  Zn  Zn157  1  0.43793258  0.94111722  0.68640450  1
  Zn  Zn158  1  0.93812195  0.43723529  0.18746677  1
  Zn  Zn159  1  0.94054350  0.43654431  0.68783406  1
  Zn  Zn160  1  0.93668454  0.93946839  0.18765384  1
  Zn  Zn161  1  0.93726036  0.93601491  0.68778455  1
  Zn  Zn162  1  0.05988706  0.06016570  0.31330013  1
  Zn  Zn163  1  0.06552709  0.06122682  0.81254356  1
  Zn  Zn164  1  0.06113903  0.56101912  0.31156420  1
  Zn  Zn165  1  0.06347010  0.56314232  0.80924127  1
  Zn  Zn166  1  0.55669294  0.06345569  0.31549589  1
  Zn  Zn167  1  0.56268350  0.06219239  0.81159364  1
  Zn  Zn168  1  0.56175443  0.56378085  0.31134114  1
  Zn  Zn169  1  0.56398843  0.55952865  0.81282740  1
  Zn  Zn170  1  0.43908927  0.18861239  0.44219948  1
  Zn  Zn171  1  0.43960654  0.18969982  0.93732064  1
  Zn  Zn172  1  0.43718480  0.68904913  0.43553073  1
  Zn  Zn173  1  0.43821250  0.68880021  0.93740760  1
  Zn  Zn174  1  0.94138859  0.18784196  0.43360479  1
  Zn  Zn175  1  0.93564988  0.18754930  0.93884502  1
  Zn  Zn176  1  0.93739375  0.68660165  0.44111301  1
  Zn  Zn177  1  0.93883220  0.68469792  0.93861756  1
  Zn  Zn178  1  0.06042136  0.31351350  0.06287564  1
  Zn  Zn179  1  0.06336830  0.31029128  0.55907965  1
  Zn  Zn180  1  0.06395923  0.81161980  0.06162802  1
  Zn  Zn181  1  0.06225441  0.81090296  0.56389100  1
  Zn  Zn182  1  0.56553706  0.31328989  0.06081037  1
  Zn  Zn183  1  0.55896824  0.31309477  0.56315529  1
  Zn  Zn184  1  0.56162724  0.81296498  0.06260962  1
  Zn  Zn185  1  0.56143113  0.81373030  0.56274651  1
  O  O186  1  0.11855912  0.11858083  0.11902642  1
  O  O187  1  0.11805886  0.12293656  0.61447116  1
  O  O188  1  0.12011999  0.61585779  0.12576168  1
  O  O189  1  0.11623570  0.61824661  0.61931452  1
  O  O190  1  0.61856940  0.11963356  0.11970218  1
  O  O191  1  0.61855347  0.12259321  0.62241343  1
  O  O192  1  0.61638818  0.62144171  0.11964596  1
  O  O193  1  0.61917947  0.62014450  0.61846820  1
  O  O194  1  0.37758534  0.38284414  0.38656119  1
  O  O195  1  0.38441089  0.37890029  0.87846100  1
  O  O196  1  0.37611915  0.88156058  0.38544814  1
  O  O197  1  0.38717222  0.87201677  0.88505404  1
  O  O198  1  0.87340827  0.38213299  0.38084104  1
  O  O199  1  0.87792331  0.38737125  0.87454384  1
  O  O200  1  0.88067387  0.87454603  0.38228335  1
  O  O201  1  0.88144400  0.87549494  0.88177346  1
  O  O202  1  0.26450753  -0.00624361  0.37573436  1
  O  O203  1  0.24615889  0.00074656  0.86194625  1
  O  O204  1  0.25589607  0.50734436  0.37016638  1
  O  O205  1  0.25556696  0.51028883  0.87445376  1
  O  O206  1  0.75021204  0.00720141  0.36818299  1
  O  O207  1  0.74904327  0.00986005  0.86862577  1
  O  O208  1  0.75474740  0.50665441  0.36992828  1
  O  O209  1  0.76036015  0.50235199  0.86571048  1
  O  O210  1  0.24133199  0.50049099  0.13152479  1
  O  O211  1  0.23391411  0.50834209  0.62419728  1
  O  O212  1  0.24165978  0.98738253  0.12513333  1
  O  O213  1  0.24866505  0.99119849  0.63640544  1
  O  O214  1  0.74568738  0.49545224  0.12970531  1
  O  O215  1  0.74612869  0.49481802  0.62993443  1
  O  O216  1  0.74240887  0.99484959  0.13008007  1
  O  O217  1  0.74463377  0.99551950  0.62955175  1
  O  O218  1  0.01133906  0.37529114  0.25145653  1
  O  O219  1  0.00587596  0.35882982  0.74865047  1
  O  O220  1  0.00321430  0.86931466  0.25540210  1
  O  O221  1  0.00646493  0.87210095  0.75661227  1
  O  O222  1  0.50168464  0.36344490  0.25155326  1
  O  O223  1  0.51233399  0.38313120  0.75878700  1
  O  O224  1  0.50481897  0.86624355  0.24797603  1
  O  O225  1  0.49838978  0.87144846  0.75908963  1
  O  O226  1  0.49587242  0.13676803  0.24502116  1
  O  O227  1  0.49177967  0.11850043  0.73927438  1
  O  O228  1  0.49529486  0.63289684  0.24268483  1
  O  O229  1  0.49588321  0.63029641  0.74471926  1
  O  O230  1  0.98956067  0.12212951  0.24422332  1
  O  O231  1  0.99629094  0.13211279  0.74487467  1
  O  O232  1  0.99318972  0.63135323  0.24498431  1
  O  O233  1  1.00353165  0.62823364  0.73449725  1
  O  O234  1  0.37159205  0.25510613  0.00490438  1
  O  O235  1  0.36951287  0.25629112  0.50716137  1
  O  O236  1  0.37567712  0.76375377  0.00022475  1
  O  O237  1  0.37400750  0.75832710  0.50554932  1
  O  O238  1  0.86850672  0.25232814  0.00347334  1
  O  O239  1  0.87010218  0.25436162  0.50466061  1
  O  O240  1  0.86929984  0.75506646  0.00558812  1
  O  O241  1  0.86812652  0.75491541  0.50835277  1
  O  O242  1  0.13451899  0.24167598  0.50062554  1
  O  O243  1  0.13028922  0.24399288  0.99348131  1
  O  O244  1  0.12584948  0.74344807  0.49310638  1
  O  O245  1  0.12772486  0.74838679  0.98610427  1
  O  O246  1  0.63090040  0.24559315  0.49671021  1
  O  O247  1  0.62910864  0.24012700  0.99646871  1
  O  O248  1  0.62913015  0.74463696  0.49505138  1
  O  O249  1  0.62957159  0.74665153  0.99515853  1
  O  O250  1  0.49661957  0.24631014  0.13262177  1
  O  O251  1  0.48949400  0.23875099  0.62043658  1
  O  O252  1  0.50659249  0.73992080  0.13593304  1
  O  O253  1  0.49492743  0.74458071  0.63087561  1
  O  O254  1  0.99856061  0.24029960  0.12967890  1
  O  O255  1  0.99643434  0.24399232  0.63176659  1
  O  O256  1  0.99437875  0.74539668  0.13049582  1
  O  O257  1  0.99055845  0.74214865  0.62501154  1
  O  O258  1  0.00784405  0.25347096  0.36923008  1
  O  O259  1  0.00884473  0.24590937  0.86509419  1
  O  O260  1  0.00408458  0.75413617  0.37033098  1
  O  O261  1  0.00838414  0.75363013  0.87357583  1
  O  O262  1  0.50417219  0.24952491  0.36722274  1
  O  O263  1  0.50296511  0.26565660  0.87663185  1
  O  O264  1  0.50650243  0.75066615  0.36395361  1
  O  O265  1  0.50410556  0.75897747  0.87020376  1
  O  O266  1  0.24031287  0.13107041  0.50674442  1
  O  O267  1  0.24466193  0.12908878  0.99962291  1
  O  O268  1  0.24379947  0.62786595  0.49179473  1
  O  O269  1  0.24937813  0.62776635  0.98839124  1
  O  O270  1  0.74550162  0.13142823  0.49578717  1
  O  O271  1  0.74341221  0.12094722  0.99008325  1
  O  O272  1  0.74351493  0.63023077  0.49451355  1
  O  O273  1  0.74305974  0.63419882  0.99839746  1
  O  O274  1  0.25946363  0.36681207  -0.00012420  1
  O  O275  1  0.26288879  0.36819261  0.49943421  1
  O  O276  1  0.25957804  0.87411396  0.00674755  1
  O  O277  1  0.25984521  0.87250123  0.50805006  1
  O  O278  1  0.75003728  0.37568989  0.01105670  1
  O  O279  1  0.75502326  0.36979266  0.50600548  1
  O  O280  1  0.75387334  0.87110476  0.00510963  1
  O  O281  1  0.75432170  0.86918608  0.50555249  1
  O  O282  1  0.13038785  0.49489798  0.24234332  1
  O  O283  1  0.12323938  0.49811893  0.73390733  1
  O  O284  1  0.12229416  0.99173806  0.24359321  1
  O  O285  1  0.13439916  0.99302561  0.74754710  1
  O  O286  1  0.63196578  0.50153287  0.24346920  1
  O  O287  1  0.63397845  0.49173541  0.74384554  1
  O  O288  1  0.62726993  0.99602223  0.24518352  1
  O  O289  1  0.63146021  0.99866844  0.74194862  1
  O  O290  1  0.37577054  0.00042390  0.26719442  1
  O  O291  1  0.36597363  0.01031794  0.74419172  1
  O  O292  1  0.37056984  0.50607872  0.25577793  1
  O  O293  1  0.37662159  0.50789810  0.75588572  1
  O  O294  1  0.86683643  0.00940694  0.25091559  1
  O  O295  1  0.86796032  0.00656740  0.75043478  1
  O  O296  1  0.86940594  0.50736427  0.25543487  1
  O  O297  1  0.86651428  0.49331885  0.75845290  1
  O  O298  1  0.12519059  0.37811682  0.36354737  1
  O  O299  1  0.12269695  0.35842389  0.87336095  1
  O  O300  1  0.11903417  0.86922013  0.37043108  1
  O  O301  1  0.12117414  0.86621376  0.87098387  1
  O  O302  1  0.62198132  0.36689750  0.37270049  1
  O  O303  1  0.61983219  0.37669531  0.86719234  1
  O  O304  1  0.62292754  0.86919250  0.36886323  1
  O  O305  1  0.61223368  0.86867153  0.87546475  1
  O  O306  1  0.38325617  0.13328312  0.12524165  1
  O  O307  1  0.38253336  0.13161575  0.63123642  1
  O  O308  1  0.38644908  0.61886914  0.13075979  1
  O  O309  1  0.38072025  0.63008550  0.62972769  1
  O  O310  1  0.87936920  0.12351065  0.13414898  1
  O  O311  1  0.88046099  0.13152919  0.63007256  1
  O  O312  1  0.87927899  0.63032953  0.13005868  1
  O  O313  1  0.88402239  0.63428109  0.61613360  1
  O  O314  1  0.25777864  0.25329336  0.11669319  1
  O  O315  1  0.26276943  0.24548816  0.61293515  1
  O  O316  1  0.24133698  0.76487410  0.12329457  1
  O  O317  1  0.25775743  0.75509718  0.62597625  1
  O  O318  1  0.74977455  0.26277418  0.12571680  1
  O  O319  1  0.75704202  0.25517264  0.61962489  1
  O  O320  1  0.75417304  0.75631911  0.12012228  1
  O  O321  1  0.75503586  0.75348673  0.61946548  1
  O  O322  1  0.24995070  0.25204333  0.39113760  1
  O  O323  1  0.24202456  0.24430486  0.88180332  1
  O  O324  1  0.24182954  0.74379043  0.37426980  1
  O  O325  1  0.24341046  0.74033985  0.87573442  1
  O  O326  1  0.74405927  0.24463155  0.38050132  1
  O  O327  1  0.74946376  0.23619522  0.87279933  1
  O  O328  1  0.74409412  0.74482118  0.38012272  1
  O  O329  1  0.74326003  0.74947503  0.88039504  1
  O  O330  1  0.00534893  0.11841071  0.00520492  1
  O  O331  1  0.00632741  0.11943497  0.50534562  1
  O  O332  1  0.00421766  0.61950446  0.00856237  1
  O  O333  1  0.00557133  0.61866676  0.50794290  1
  O  O334  1  0.50414887  0.11779820  0.00339254  1
  O  O335  1  0.50733727  0.12438821  0.51180670  1
  O  O336  1  0.50485109  0.62658867  0.00957222  1
  O  O337  1  0.50454066  0.62045104  0.50530663  1
  O  O338  1  0.48996292  0.38189300  0.49871930  1
  O  O339  1  0.49596529  0.37757493  0.99125381  1
  O  O340  1  0.48716264  0.87679788  0.50038498  1
  O  O341  1  0.49344982  0.88180059  0.99643009  1
  O  O342  1  0.99231317  0.38085163  0.49891247  1
  O  O343  1  0.99720877  0.38057521  0.99636669  1
  O  O344  1  0.99519276  0.87878697  0.49614682  1
  O  O345  1  0.99496029  0.87899355  0.99500923  1
  O  O346  1  0.49341868  0.50171650  0.38181842  1
  O  O347  1  0.49479152  0.49095666  0.87766170  1
  O  O348  1  0.48783754  0.99635004  0.38002476  1
  O  O349  1  0.50682846  0.99066916  0.88614862  1
  O  O350  1  0.99215854  0.49962654  0.38200464  1
  O  O351  1  0.98903372  0.49897190  0.86964483  1
  O  O352  1  0.99669747  0.99100949  0.38309838  1
  O  O353  1  0.99996107  0.99273931  0.88143419  1
  O  O354  1  0.00561028  0.00412897  0.11844265  1
  O  O355  1  0.00115738  0.00544142  0.61910431  1
  O  O356  1  0.01010347  0.50679382  0.12695550  1
  O  O357  1  0.00635102  0.50743587  0.61968900  1
  O  O358  1  0.50371363  0.00582755  0.11810277  1
  O  O359  1  0.50601370  0.01075201  0.62164020  1
  O  O360  1  0.50694303  0.51169763  0.12531344  1
  O  O361  1  0.50597511  0.50653320  0.61944536  1
  O  O362  1  0.24287227  0.38316036  0.24892466  1
  O  O363  1  0.24776347  0.37918099  0.75234840  1
  O  O364  1  0.24305436  0.87842623  0.24234732  1
  O  O365  1  0.24757098  0.88100419  0.74761333  1
  O  O366  1  0.74792851  0.38303863  0.24092377  1
  O  O367  1  0.74312775  0.38466496  0.74351457  1
  O  O368  1  0.74372835  0.88052195  0.24431169  1
  O  O369  1  0.74708406  0.88224375  0.74317623  1
  O  O370  1  0.25338942  0.11937542  0.24606411  1
  O  O371  1  0.25878726  0.11549825  0.74984372  1
  O  O372  1  0.25532424  0.62081142  0.25457853  1
  O  O373  1  0.25683482  0.62165427  0.75995236  1
  O  O374  1  0.75513269  0.12052550  0.25407569  1
  O  O375  1  0.75513912  0.12033663  0.75607079  1
  O  O376  1  0.75489239  0.62192088  0.25472505  1
  O  O377  1  0.74349391  0.61067069  0.74913589  1
  O  O378  1  0.37785996  0.11102506  0.38064510  1
  O  O379  1  0.37707618  0.13263444  0.85997758  1
  O  O380  1  0.36931680  0.61981067  0.36940727  1
  O  O381  1  0.36937819  0.62108267  0.87082158  1
  O  O382  1  0.86811000  0.12343483  0.36582570  1
  O  O383  1  0.86611726  0.12161710  0.86869670  1
  O  O384  1  0.86875417  0.62096647  0.37044402  1
  O  O385  1  0.87441504  0.61150526  0.87446380  1
  O  O386  1  0.12731902  0.38488228  0.13414189  1
  O  O387  1  0.12039248  0.39073542  0.62139540  1
  O  O388  1  0.13009852  0.87982222  0.12980354  1
  O  O389  1  0.13231597  0.87266555  0.63256172  1
  O  O390  1  0.63318771  0.38364914  0.12675015  1
  O  O391  1  0.62924816  0.38044236  0.63045573  1
  O  O392  1  0.62963142  0.88075027  0.13030079  1
  O  O393  1  0.63111838  0.88140866  0.62543152  1
  O  O394  1  0.12787485  0.26296164  0.25007781  1
  O  O395  1  0.11951580  0.24395943  0.75602726  1
  O  O396  1  0.11697274  0.75538795  0.25597998  1
  O  O397  1  0.12485483  0.75481951  0.76198363  1
  O  O398  1  0.61452344  0.25007315  0.25665008  1
  O  O399  1  0.63261892  0.26634548  0.75017081  1
  O  O400  1  0.61671710  0.75554254  0.25492094  1
  O  O401  1  0.61740758  0.75289637  0.75591585  1
  O  O402  1  0.38323792  0.25220001  0.24571960  1
  O  O403  1  0.36770315  0.23899624  0.73822274  1
  O  O404  1  0.38670330  0.74491401  0.25691534  1
  O  O405  1  0.38140805  0.74440065  0.74542840  1
  O  O406  1  0.87371516  0.23641860  0.24749753  1
  O  O407  1  0.88404353  0.24497925  0.74470177  1
  O  O408  1  0.87863106  0.74541132  0.24420949  1
  O  O409  1  0.87312574  0.75337978  0.73532480  1
  O  O410  1  0.37881616  0.49364238  0.49778982  1
  O  O411  1  0.37760964  0.49259265  0.99248999  1
  O  O412  1  0.37401248  0.99204216  0.49282037  1
  O  O413  1  0.38727252  0.99268995  1.00496273  1
  O  O414  1  0.87869856  0.49436280  0.49495772  1
  O  O415  1  0.87449197  0.49784100  0.98334336  1
  O  O416  1  0.88092922  0.99254518  0.49934357  1
  O  O417  1  0.88205194  0.99199446  0.99910938  1
  O  O418  1  0.11967790  0.00407661  0.00482715  1
  O  O419  1  0.11957885  0.00592914  0.50328997  1
  O  O420  1  0.12701754  0.49911660  0.01218479  1
  O  O421  1  0.12018240  0.50491447  0.50883066  1
  O  O422  1  0.61399867  0.00478472  0.00686398  1
  O  O423  1  0.62531531  0.00826107  0.50711404  1
  O  O424  1  0.62451415  0.50912597  0.00659347  1
  O  O425  1  0.62064785  0.50537399  0.50514137  1
  O  O426  1  0.37548713  0.36956232  0.11741040  1
  O  O427  1  0.38410978  0.36483325  0.61649557  1
  O  O428  1  0.36456207  0.88109592  0.11772423  1
  O  O429  1  0.37102754  0.87033652  0.61846670  1
  O  O430  1  0.86316960  0.37673739  0.12446613  1
  O  O431  1  0.87024028  0.36952256  0.61936356  1
  O  O432  1  0.86891953  0.86928440  0.12018028  1
  O  O433  1  0.86894233  0.86584170  0.61923373  1
  O  O434  1  0.11969795  0.12347011  0.38980161  1
  O  O435  1  0.12657815  0.13410769  0.88182832  1
  O  O436  1  0.12907756  0.62903685  0.37892564  1
  O  O437  1  0.13337677  0.63079052  0.87342907  1
  O  O438  1  0.62967365  0.13067725  0.38145482  1
  O  O439  1  0.63264060  0.12629229  0.87854605  1
  O  O440  1  0.63032705  0.63070682  0.38006239  1
  O  O441  1  0.62450633  0.63233426  0.88156230  1
