# generated using pymatgen
data_V93Zn93O256
_symmetry_space_group_name_H-M   'P 1'
_cell_length_a   17.04527664
_cell_length_b   17.04808892
_cell_length_c   17.04695142
_cell_angle_alpha   89.92518924
_cell_angle_beta   90.00038807
_cell_angle_gamma   89.95583489
_symmetry_Int_Tables_number   1
_chemical_formula_structural   V93Zn93O256
_chemical_formula_sum   'V93 Zn93 O256'
_cell_volume   4953.65755062
_cell_formula_units_Z   1
loop_
 _symmetry_equiv_pos_site_id
 _symmetry_equiv_pos_as_xyz
  1  'x, y, z'
loop_
 _atom_site_type_symbol
 _atom_site_label
 _atom_site_symmetry_multiplicity
 _atom_site_fract_x
 _atom_site_fract_y
 _atom_site_fract_z
 _atom_site_occupancy
  V  V0  1  0.37358996  0.62317581  0.75376672  1
  V  V1  1  0.87450741  0.37430833  0.50245068  1
  V  V2  1  0.00015029  0.62466303  0.12584998  1
  V  V3  1  0.00715451  0.25359461  0.24951442  1
  V  V4  1  0.87532361  0.12622141  0.74880128  1
  V  V5  1  0.49936786  0.62578482  0.12656836  1
  V  V6  1  0.74261574  0.49910895  0.74309571  1
  V  V7  1  0.12977069  0.87425277  0.24557515  1
  V  V8  1  0.12493177  0.49712935  0.12804094  1
  V  V9  1  0.62478766  0.74985743  0.37481289  1
  V  V10  1  0.62208670  0.25391373  0.87085101  1
  V  V11  1  0.00673928  0.37408875  0.37139763  1
  V  V12  1  0.49811463  0.12580748  0.62558067  1
  V  V13  1  0.49344869  0.00024008  0.49542337  1
  V  V14  1  0.74965046  0.74996970  -0.00078639  1
  V  V15  1  0.00058251  0.62607876  0.62546272  1
  V  V16  1  0.37452661  0.49993292  0.37544071  1
  V  V17  1  0.62527425  0.87519375  0.74741657  1
  V  V18  1  0.75170651  0.00127634  0.24843341  1
  V  V19  1  0.00101170  0.87594704  0.37318275  1
  V  V20  1  0.62447100  0.87530080  0.24927475  1
  V  V21  1  0.49459777  0.87915300  0.37478406  1
  V  V22  1  0.24925836  0.37438397  0.62630588  1
  V  V23  1  0.87453451  0.87558937  0.49908729  1
  V  V24  1  0.24599313  0.49486378  0.25138503  1
  V  V25  1  0.25341926  0.11960979  0.37572809  1
  V  V26  1  0.00104215  0.12511177  0.62492858  1
  V  V27  1  0.12635061  0.62520456  0.50087991  1
  V  V28  1  0.87550994  0.00087545  0.37330829  1
  V  V29  1  0.12731935  0.00239673  0.12259743  1
  V  V30  1  0.25007018  0.74920085  0.50009815  1
  V  V31  1  0.87447334  0.75218483  0.62383621  1
  V  V32  1  0.00254621  0.12552527  0.12142406  1
  V  V33  1  0.24868400  0.24847925  0.50021653  1
  V  V34  1  0.00149568  0.75095624  0.24982085  1
  V  V35  1  0.87413435  0.37579468  0.00062617  1
  V  V36  1  0.25105801  0.87478757  0.62534824  1
  V  V37  1  0.37342452  0.24883980  0.12548362  1
  V  V38  1  0.62442612  0.62649889  -0.00018963  1
  V  V39  1  0.12532117  0.37440845  0.75075904  1
  V  V40  1  0.75053357  0.24930675  0.49968233  1
  V  V41  1  0.87288714  0.50232434  0.87347993  1
  V  V42  1  0.00051301  0.87616838  0.87518992  1
  V  V43  1  0.24899877  0.11974227  0.87869191  1
  V  V44  1  0.37576411  0.12047596  0.25257025  1
  V  V45  1  0.24473906  0.24369260  0.00194058  1
  V  V46  1  0.37259315  0.75385716  0.12548016  1
  V  V47  1  0.62425277  0.00152799  0.12205621  1
  V  V48  1  0.12561755  -0.00012053  0.62438382  1
  V  V49  1  0.24957295  0.75371343  0.00454400  1
  V  V50  1  0.74980887  0.00028363  0.74849616  1
  V  V51  1  0.87604852  0.00110353  0.87444480  1
  V  V52  1  0.50389259  0.62064186  0.62569099  1
  V  V53  1  0.87557299  0.25064883  0.12509391  1
  V  V54  1  0.37469593  0.37436038  0.50107334  1
  V  V55  1  0.74951699  0.37561876  0.12602650  1
  V  V56  1  0.00128728  0.00128759  0.49916674  1
  V  V57  1  0.12503034  0.74919257  0.87706680  1
  V  V58  1  0.62563789  0.37618351  0.24946094  1
  V  V59  1  0.87533447  0.75060593  0.12461023  1
  V  V60  1  0.49925545  0.25006189  0.24963957  1
  V  V61  1  0.25071392  0.62348640  0.37625587  1
  V  V62  1  0.12629657  0.87444677  0.75065095  1
  V  V63  1  0.25309572  -0.00154475  0.75402135  1
  V  V64  1  0.12520955  0.49933408  0.62734940  1
  V  V65  1  0.12560275  0.62528960  0.00105363  1
  V  V66  1  0.00028171  0.49986139  0.00095223  1
  V  V67  1  0.37607999  0.75099493  0.62489364  1
  V  V68  1  0.37553997  0.12051547  0.75514099  1
  V  V69  1  0.87479366  0.62559847  0.25073349  1
  V  V70  1  0.74971039  0.87626240  0.12353447  1
  V  V71  1  0.74909046  0.25016238  -0.00150731  1
  V  V72  1  0.50045895  0.12384717  0.12449305  1
  V  V73  1  0.12473356  0.24620537  0.87805965  1
  V  V74  1  0.00386723  0.00374376  0.00021014  1
  V  V75  1  0.49674385  0.49793770  -0.00194706  1
  V  V76  1  0.25429070  -0.00345278  0.25008536  1
  V  V77  1  0.49946606  0.37416936  0.37450613  1
  V  V78  1  0.49585680  0.88254339  0.87383307  1
  V  V79  1  0.62570682  0.75206758  0.87556017  1
  V  V80  1  0.62572230  0.62157002  0.50203576  1
  V  V81  1  0.00046545  0.37426011  0.87541029  1
  V  V82  1  0.87325424  0.50191756  0.37370158  1
  V  V83  1  0.24550529  0.37259415  0.12878798  1
  V  V84  1  -0.00072861  0.24962321  0.74998971  1
  V  V85  1  0.50274849  0.49824377  0.50197122  1
  V  V86  1  0.00016735  0.50013483  0.50078310  1
  V  V87  1  0.74950313  0.12696144  0.87403189  1
  V  V88  1  0.87547151  0.87573545  -0.00084129  1
  V  V89  1  0.87590161  0.12530235  0.24984728  1
  V  V90  1  0.37481855  0.87937914  -0.00271810  1
  V  V91  1  0.62529253  0.12455815  0.49797829  1
  V  V92  1  -0.00008689  0.75012812  0.75030169  1
  Zn  Zn93  1  0.37461686  0.62545950  0.25063203  1
  Zn  Zn94  1  0.37362521  0.37388383  -0.00203387  1
  Zn  Zn95  1  0.74880474  0.50253663  0.24784011  1
  Zn  Zn96  1  0.62561760  0.50069800  0.12368824  1
  Zn  Zn97  1  0.12785235  0.25071970  0.37132539  1
  Zn  Zn98  1  0.73991987  0.38017646  0.62011652  1
  Zn  Zn99  1  0.87316568  0.62601573  0.74923660  1
  Zn  Zn100  1  0.61536274  0.38025467  0.73929789  1
  Zn  Zn101  1  0.49742472  0.75046514  0.25086034  1
  Zn  Zn102  1  0.62151949  0.12478836  -0.00238741  1
  Zn  Zn103  1  0.37081010  0.49415641  0.87566497  1
  Zn  Zn104  1  0.50079946  0.75004698  0.75084801  1
  Zn  Zn105  1  0.74974565  0.75078068  0.49979991  1
  Zn  Zn106  1  0.74841452  0.62521390  0.87398392  1
  Zn  Zn107  1  0.62547823  0.24998288  0.37415103  1
  Zn  Zn108  1  0.74991397  0.12496812  0.37341316  1
  Zn  Zn109  1  0.37378658  0.25023969  0.62839307  1
  Zn  Zn110  1  0.49744163  0.25291695  0.75075534  1
  Zn  Zn111  1  0.49572263  0.00307310  -0.00274866  1
  Zn  Zn112  1  0.25052074  0.62233072  0.87666658  1
  Zn  Zn113  1  0.74839537  0.87613101  0.62187477  1
  Zn  Zn114  1  0.74891483  0.62630250  0.37406590  1
  Zn  Zn115  1  0.12530779  0.12463866  0.49787985  1
  Zn  Zn116  1  0.37223015  0.87879298  0.49531858  1
  Zn  Zn117  1  0.87505101  0.25135023  0.62583248  1
  Zn  Zn118  1  0.49582430  0.37464052  0.87183328  1
  Zn  Zn119  1  0.12642282  0.74971135  0.37434308  1
  Zn  Zn120  1  0.24897653  0.49854607  0.75538462  1
  Zn  Zn121  1  0.62662273  -0.00153283  0.62274476  1
  Zn  Zn122  1  0.18740661  0.18218635  0.18837744  1
  Zn  Zn123  1  0.18719263  0.18663804  0.68955443  1
  Zn  Zn124  1  0.18922836  0.68445200  0.18830484  1
  Zn  Zn125  1  0.18867958  0.68687634  0.68870183  1
  Zn  Zn126  1  0.68703855  0.18812779  0.18604328  1
  Zn  Zn127  1  0.68676828  0.19002383  0.68488293  1
  Zn  Zn128  1  0.68741336  0.68802595  0.18825921  1
  Zn  Zn129  1  0.68966401  0.68664523  0.68903701  1
  Zn  Zn130  1  0.31319980  0.31031665  0.31333625  1
  Zn  Zn131  1  0.31420579  0.30903236  0.81424238  1
  Zn  Zn132  1  0.31205151  0.81032617  0.31191935  1
  Zn  Zn133  1  0.31210144  0.80892399  0.81534851  1
  Zn  Zn134  1  0.81452921  0.31211386  0.31352166  1
  Zn  Zn135  1  0.81034102  0.31554666  0.81152346  1
  Zn  Zn136  1  0.81160875  0.81340105  0.31202885  1
  Zn  Zn137  1  0.81164329  0.81354068  0.81154594  1
  Zn  Zn138  1  0.18770202  0.43771048  0.44021791  1
  Zn  Zn139  1  0.18983630  0.43554259  0.93946750  1
  Zn  Zn140  1  0.18743795  0.93622894  0.43566900  1
  Zn  Zn141  1  0.18878105  0.93605472  0.93917141  1
  Zn  Zn142  1  0.68700431  0.43749675  0.43608301  1
  Zn  Zn143  1  0.68441508  0.43745798  0.93565178  1
  Zn  Zn144  1  0.68719819  0.93771212  0.43661019  1
  Zn  Zn145  1  0.68588188  0.93930581  0.93605122  1
  Zn  Zn146  1  0.31144372  0.06203012  0.06629355  1
  Zn  Zn147  1  0.31318467  0.06238660  0.56531719  1
  Zn  Zn148  1  0.31270465  0.56426100  0.06325532  1
  Zn  Zn149  1  0.31394565  0.56095822  0.56520154  1
  Zn  Zn150  1  0.81391801  0.06432824  0.06095725  1
  Zn  Zn151  1  0.81312879  0.06220387  0.56352071  1
  Zn  Zn152  1  0.81072752  0.56279995  0.06297872  1
  Zn  Zn153  1  0.81239027  0.56649747  0.56123444  1
  Zn  Zn154  1  0.43389396  0.43757512  0.18594885  1
  Zn  Zn155  1  0.43624362  0.43755220  0.68825400  1
  Zn  Zn156  1  0.43840369  0.93636255  0.18555739  1
  Zn  Zn157  1  0.43935411  0.94030258  0.68600857  1
  Zn  Zn158  1  0.93705280  0.43714573  0.18875374  1
  Zn  Zn159  1  0.93603080  0.43843630  0.68872857  1
  Zn  Zn160  1  0.93994064  0.93786649  0.18667054  1
  Zn  Zn161  1  0.93814664  0.93800555  0.68710884  1
  Zn  Zn162  1  0.06558507  0.06449308  0.31096333  1
  Zn  Zn163  1  0.06549972  0.06298228  0.81169377  1
  Zn  Zn164  1  0.06353638  0.56241830  0.31347836  1
  Zn  Zn165  1  0.06169646  0.56323655  0.81289012  1
  Zn  Zn166  1  0.56372049  0.06149797  0.31172094  1
  Zn  Zn167  1  0.56476387  0.06340498  0.81226496  1
  Zn  Zn168  1  0.56104097  0.56159265  0.31321721  1
  Zn  Zn169  1  0.56000981  0.56489513  0.81522175  1
  Zn  Zn170  1  0.43520350  0.18805566  0.43634648  1
  Zn  Zn171  1  0.43431529  0.18744225  0.93866469  1
  Zn  Zn172  1  0.43828367  0.68769903  0.43829020  1
  Zn  Zn173  1  0.44011733  0.69161386  0.93761649  1
  Zn  Zn174  1  0.93814525  0.18728363  0.43586456  1
  Zn  Zn175  1  0.93674514  0.18681032  0.93803824  1
  Zn  Zn176  1  0.93991527  0.68902534  0.43729269  1
  Zn  Zn177  1  0.93803231  0.68697600  0.93791729  1
  Zn  Zn178  1  0.06399120  0.31277053  0.06248868  1
  Zn  Zn179  1  0.06320325  0.31160386  0.56217864  1
  Zn  Zn180  1  0.06273574  0.81552683  0.06372907  1
  Zn  Zn181  1  0.06298317  0.81343285  0.56146041  1
  Zn  Zn182  1  0.56327726  0.31157524  0.06143343  1
  Zn  Zn183  1  0.56406587  0.31147086  0.56406325  1
  Zn  Zn184  1  0.56002281  0.81366051  0.06111609  1
  Zn  Zn185  1  0.56086655  0.81032593  0.56051327  1
  O  O186  1  0.11638752  0.11172813  0.13170550  1
  O  O187  1  0.11929015  0.11705167  0.62486719  1
  O  O188  1  0.11888785  0.61818961  0.12044976  1
  O  O189  1  0.11997583  0.61994417  0.62063419  1
  O  O190  1  0.61842525  0.11985102  0.12342125  1
  O  O191  1  0.61632716  0.12485408  0.61413262  1
  O  O192  1  0.61508348  0.62606402  0.11971055  1
  O  O193  1  0.61409670  0.63557156  0.61463833  1
  O  O194  1  0.37966606  0.38028559  0.38074447  1
  O  O195  1  0.37769409  0.37553544  0.88059996  1
  O  O196  1  0.39073904  0.86599982  0.37656303  1
  O  O197  1  0.38513609  0.86627499  0.88392588  1
  O  O198  1  0.88350803  0.38310650  0.38341663  1
  O  O199  1  0.88031988  0.38372532  0.88075690  1
  O  O200  1  0.88148362  0.88078342  0.37819809  1
  O  O201  1  0.88103878  0.88126797  0.87922508  1
  O  O202  1  0.24506474  0.00848978  0.36387258  1
  O  O203  1  0.24220112  0.01008936  0.86960852  1
  O  O204  1  0.25405546  0.50202999  0.36959932  1
  O  O205  1  0.25234339  0.50494343  0.87421386  1
  O  O206  1  0.75724928  0.00047829  0.36623002  1
  O  O207  1  0.75651349  0.00600110  0.86906414  1
  O  O208  1  0.76410256  0.50058523  0.37329572  1
  O  O209  1  0.75990329  0.50030219  0.86818073  1
  O  O210  1  0.24634225  0.49226344  0.13206973  1
  O  O211  1  0.24240147  0.49212481  0.62647817  1
  O  O212  1  0.23836355  1.00711074  0.13792688  1
  O  O213  1  0.24549062  0.99354685  0.63167208  1
  O  O214  1  0.74742879  0.49163740  0.12754946  1
  O  O215  1  0.75738071  0.50285755  0.64039295  1
  O  O216  1  0.74620324  0.99518821  0.12875058  1
  O  O217  1  0.74767973  0.99710078  0.63284544  1
  O  O218  1  -0.00785731  0.36517531  0.26007722  1
  O  O219  1  0.00432674  0.36948937  0.75583507  1
  O  O220  1  0.00804066  0.87036525  0.25405006  1
  O  O221  1  0.00633430  0.87040621  0.75585776  1
  O  O222  1  0.50625238  0.37063260  0.25310638  1
  O  O223  1  0.49991982  0.37093380  0.75311124  1
  O  O224  1  0.50678271  0.87515474  0.25858761  1
  O  O225  1  0.50792740  0.87463948  0.75552370  1
  O  O226  1  0.49534485  0.12961149  0.24583951  1
  O  O227  1  0.49269744  0.12193863  0.74156329  1
  O  O228  1  0.49770286  0.62588200  0.23908419  1
  O  O229  1  0.49402826  0.62739359  0.74107579  1
  O  O230  1  0.99441702  0.13336948  0.24372268  1
  O  O231  1  0.99491750  0.13001333  0.74576252  1
  O  O232  1  0.99575468  0.63061134  0.24484238  1
  O  O233  1  0.99807541  0.63248324  0.74327768  1
  O  O234  1  0.36203577  0.24947758  0.00856677  1
  O  O235  1  0.36310239  0.25508635  0.50098495  1
  O  O236  1  0.36764318  0.75547078  0.00620044  1
  O  O237  1  0.36978187  0.74987728  0.51163280  1
  O  O238  1  0.87017836  0.25717770  0.00482153  1
  O  O239  1  0.86906217  0.25881328  0.49892310  1
  O  O240  1  0.87087912  0.75590223  0.00507834  1
  O  O241  1  0.87659261  0.75633373  0.50807178  1
  O  O242  1  0.13780611  0.24814693  0.49783439  1
  O  O243  1  0.13655349  0.25214366  0.99546169  1
  O  O244  1  0.13206610  0.74346279  0.49970499  1
  O  O245  1  0.13127110  0.74718031  0.99873048  1
  O  O246  1  0.63297985  0.24078924  0.49708709  1
  O  O247  1  0.63187763  0.24843706  0.99069518  1
  O  O248  1  0.62455849  0.74121968  0.49078560  1
  O  O249  1  0.63079894  0.74749569  0.99527586  1
  O  O250  1  0.49404822  0.24453731  0.13047946  1
  O  O251  1  0.49690412  0.23476963  0.62376475  1
  O  O252  1  0.49239095  0.74058113  0.12429897  1
  O  O253  1  0.49019548  0.74061970  0.62464402  1
  O  O254  1  0.99537367  0.24752240  0.13072796  1
  O  O255  1  0.99905934  0.24402702  0.63174368  1
  O  O256  1  0.99467361  0.74483832  0.12954355  1
  O  O257  1  0.99338668  0.74678033  0.62985893  1
  O  O258  1  0.00088698  0.25741043  0.36688282  1
  O  O259  1  0.00410648  0.25472124  0.87109323  1
  O  O260  1  0.00273052  0.75690100  0.36719259  1
  O  O261  1  0.00440343  0.75673962  0.87114639  1
  O  O262  1  0.49973096  0.25686818  0.36751115  1
  O  O263  1  0.51073429  0.24829214  0.87563256  1
  O  O264  1  0.51000087  0.75745920  0.37495655  1
  O  O265  1  0.50854877  0.76201347  0.87294546  1
  O  O266  1  0.25159194  0.13085398  0.49311390  1
  O  O267  1  0.25558601  0.13250163  0.99201986  1
  O  O268  1  0.24552917  0.62849900  0.49665170  1
  O  O269  1  0.24322517  0.63522618  1.00035632  1
  O  O270  1  0.74229605  0.13090781  0.49903726  1
  O  O271  1  0.75146135  0.13314673  0.99181014  1
  O  O272  1  0.73891567  0.62808053  0.49692377  1
  O  O273  1  0.74310756  0.63250978  0.99942346  1
  O  O274  1  0.25107718  0.36374949  0.01149773  1
  O  O275  1  0.25422177  0.36693584  0.50468761  1
  O  O276  1  0.25878774  0.86152307  -0.00609186  1
  O  O277  1  0.25252585  0.86932600  0.50588081  1
  O  O278  1  0.75500081  0.37024829  0.00511702  1
  O  O279  1  0.75868137  0.36851443  0.49752478  1
  O  O280  1  0.75612323  0.87062717  0.00408693  1
  O  O281  1  0.75788545  0.87274715  0.50192337  1
  O  O282  1  0.13724878  0.50425436  0.24479722  1
  O  O283  1  0.12376120  0.49257126  0.74451041  1
  O  O284  1  0.13152920  0.99238385  0.24312588  1
  O  O285  1  0.13135248  0.99254209  0.74414141  1
  O  O286  1  0.62576703  0.48762158  0.24897226  1
  O  O287  1  0.64073732  0.50214754  0.75839219  1
  O  O288  1  0.63216782  0.99501367  0.24307148  1
  O  O289  1  0.63089937  0.99046977  0.74849427  1
  O  O290  1  0.36244041  0.00385114  0.24099909  1
  O  O291  1  0.36803057  0.01086222  0.74480576  1
  O  O292  1  0.36364090  0.50092155  0.25636075  1
  O  O293  1  0.37258981  0.51273502  0.75089583  1
  O  O294  1  0.87143648  0.00498003  0.25320218  1
  O  O295  1  0.87115507  0.00524167  0.75594039  1
  O  O296  1  0.87669195  0.50634262  0.25952563  1
  O  O297  1  0.86839994  0.50124918  0.75998952  1
  O  O298  1  0.10996885  0.37480351  0.38112098  1
  O  O299  1  0.11895712  0.36787349  0.87136222  1
  O  O300  1  0.11887071  0.87372397  0.36322103  1
  O  O301  1  0.11953602  0.86902426  0.87025548  1
  O  O302  1  0.61849950  0.37371991  0.36594439  1
  O  O303  1  0.62304381  0.36378127  0.87091779  1
  O  O304  1  0.61733082  0.86776926  0.37021845  1
  O  O305  1  0.61836851  0.87129999  0.86629773  1
  O  O306  1  0.38006200  0.12992467  0.13294353  1
  O  O307  1  0.38296811  0.12564869  0.63343697  1
  O  O308  1  0.38385143  0.63508213  0.12457938  1
  O  O309  1  0.38190668  0.63281419  0.63165736  1
  O  O310  1  0.88173949  0.13164830  0.13018585  1
  O  O311  1  0.88321906  0.12596850  0.63169442  1
  O  O312  1  0.88097591  0.63078240  0.12975865  1
  O  O313  1  0.88283113  0.63627865  0.62372824  1
  O  O314  1  0.25120366  0.25295839  0.12144724  1
  O  O315  1  0.24947925  0.25436012  0.61581293  1
  O  O316  1  0.25949009  0.74366353  0.11544530  1
  O  O317  1  0.25756171  0.75487803  0.62056554  1
  O  O318  1  0.75660203  0.25571584  0.11928284  1
  O  O319  1  0.75454171  0.25130969  0.61019928  1
  O  O320  1  0.75587862  0.75686159  0.11944742  1
  O  O321  1  0.76374525  0.75153904  0.62424515  1
  O  O322  1  0.24825810  0.24269610  0.38266440  1
  O  O323  1  0.24447258  0.24162577  0.88447921  1
  O  O324  1  0.24926018  0.74209169  0.38203839  1
  O  O325  1  0.24239413  0.74578851  0.88568836  1
  O  O326  1  0.74999853  0.24748270  0.38730938  1
  O  O327  1  0.74342241  0.24682752  0.87857973  1
  O  O328  1  0.73706931  0.75017501  0.37609896  1
  O  O329  1  0.74475137  0.74975153  0.88180542  1
  O  O330  1  -0.00609879  0.11680985  0.00817593  1
  O  O331  1  0.00227346  0.11923059  0.50552062  1
  O  O332  1  0.00485402  0.61972016  0.00735784  1
  O  O333  1  0.00602090  0.61959046  0.50553157  1
  O  O334  1  0.49850844  0.12141235  0.00862529  1
  O  O335  1  0.50491961  0.11963483  0.50377105  1
  O  O336  1  0.50415767  0.62003040  0.00827439  1
  O  O337  1  0.50670394  0.61977400  0.50661370  1
  O  O338  1  0.49455163  0.37830569  0.49450608  1
  O  O339  1  0.49815193  0.38717332  1.00282516  1
  O  O340  1  0.50103616  0.88399768  0.49268442  1
  O  O341  1  0.49187821  0.87611076  0.99078096  1
  O  O342  1  0.99217074  0.37902944  0.49295552  1
  O  O343  1  0.99437068  0.38038539  0.99537373  1
  O  O344  1  0.99551652  0.88132627  0.49328361  1
  O  O345  1  0.99416494  0.88136084  0.99439434  1
  O  O346  1  0.49360866  0.49362259  0.38088752  1
  O  O347  1  0.49668034  0.50071943  0.88755032  1
  O  O348  1  0.50654367  0.99028110  0.38316908  1
  O  O349  1  0.50441373  0.98676320  0.87649867  1
  O  O350  1  0.99231218  0.49346748  0.37942380  1
  O  O351  1  0.99243361  0.49432451  0.88059814  1
  O  O352  1  0.99565616  0.99602058  0.37839973  1
  O  O353  1  0.99664562  0.99575277  0.87921523  1
  O  O354  1  0.00690971  0.00563248  0.12059150  1
  O  O355  1  0.00571382  0.00471914  0.61957851  1
  O  O356  1  0.00399385  0.50416674  0.12096011  1
  O  O357  1  0.00437514  0.50523131  0.61993067  1
  O  O358  1  0.50744284  0.00655003  0.12495575  1
  O  O359  1  0.50387195  0.01027524  0.61526744  1
  O  O360  1  0.49922435  0.51021780  0.11809042  1
  O  O361  1  0.49318378  0.51435624  0.61804265  1
  O  O362  1  0.25368311  0.38303790  0.24208566  1
  O  O363  1  0.24252629  0.37275467  0.74394271  1
  O  O364  1  0.24065690  0.88380112  0.25748213  1
  O  O365  1  0.24562522  0.87806895  0.74639791  1
  O  O366  1  0.74177512  0.37419907  0.24593071  1
  O  O367  1  0.75078863  0.39048782  0.74697111  1
  O  O368  1  0.74530002  0.88098289  0.24242562  1
  O  O369  1  0.74024017  0.88129418  0.74962753  1
  O  O370  1  0.25511242  0.11722078  0.25760697  1
  O  O371  1  0.25708189  0.11934446  0.75717764  1
  O  O372  1  0.25227499  0.61375608  0.25674238  1
  O  O373  1  0.26011682  0.62350231  0.75175417  1
  O  O374  1  0.75723881  0.11990878  0.24989772  1
  O  O375  1  0.75562613  0.12065364  0.75385743  1
  O  O376  1  0.75832263  0.62296411  0.25287948  1
  O  O377  1  0.75385986  0.61385324  0.75396766  1
  O  O378  1  0.36254638  0.12868673  0.36790664  1
  O  O379  1  0.36257268  0.12866333  0.86602591  1
  O  O380  1  0.36933740  0.61777822  0.37548008  1
  O  O381  1  0.37712971  0.63005472  0.86208200  1
  O  O382  1  0.87452616  0.11799618  0.36774009  1
  O  O383  1  0.87013025  0.12012646  0.86810396  1
  O  O384  1  0.87678890  0.61650890  0.37115637  1
  O  O385  1  0.87494338  0.61323222  0.87483029  1
  O  O386  1  0.13686372  0.38100934  0.12179750  1
  O  O387  1  0.12848041  0.38008406  0.63071985  1
  O  O388  1  0.11910543  0.88490337  0.13828237  1
  O  O389  1  0.13116159  0.87915921  0.63128451  1
  O  O390  1  0.63026972  0.37479348  0.13486758  1
  O  O391  1  0.62781736  0.37573020  0.62634142  1
  O  O392  1  0.63016734  0.87976077  0.12930957  1
  O  O393  1  0.62427623  0.87379302  0.63574327  1
  O  O394  1  0.11053115  0.24603946  0.24936325  1
  O  O395  1  0.11849537  0.25533585  0.75686830  1
  O  O396  1  0.12129533  0.75810429  0.24854593  1
  O  O397  1  0.11995701  0.75538105  0.75560405  1
  O  O398  1  0.61916372  0.25975168  0.25118839  1
  O  O399  1  0.62330100  0.24950622  0.76050957  1
  O  O400  1  0.62266386  0.75633092  0.25839854  1
  O  O401  1  0.62557043  0.75981359  0.75559553  1
  O  O402  1  0.37982043  0.24249287  0.24450976  1
  O  O403  1  0.37599426  0.23442325  0.74746681  1
  O  O404  1  0.37592824  0.74770173  0.23888761  1
  O  O405  1  0.37553010  0.74280913  0.73922166  1
  O  O406  1  0.88365381  0.24535811  0.24437630  1
  O  O407  1  0.88082705  0.24532183  0.74924684  1
  O  O408  1  0.88099182  0.74614920  0.24401438  1
  O  O409  1  0.88144482  0.75078690  0.74127965  1
  O  O410  1  0.38095566  0.49366785  0.49502325  1
  O  O411  1  0.38477336  0.50039513  1.00035183  1
  O  O412  1  0.38902658  0.99858363  0.50407648  1
  O  O413  1  0.37242155  0.98262164  1.00928820  1
  O  O414  1  0.87993095  0.49453972  0.49257180  1
  O  O415  1  0.87996883  0.49574907  0.99299055  1
  O  O416  1  0.88149175  0.99550423  0.49368746  1
  O  O417  1  0.88121030  0.99442085  0.99348560  1
  O  O418  1  0.11941873  -0.01086619  0.01415840  1
  O  O419  1  0.11913006  -0.00030745  0.50670432  1
  O  O420  1  0.11875294  0.50462476  0.00716062  1
  O  O421  1  0.11912732  0.50505622  0.50709853  1
  O  O422  1  0.62276744  0.00285994  0.00784307  1
  O  O423  1  0.61705752  0.00944289  0.50052795  1
  O  O424  1  0.61548021  0.50723800  0.00134036  1
  O  O425  1  0.61887681  0.51345913  0.49147049  1
  O  O426  1  0.36239703  0.36701210  0.12462389  1
  O  O427  1  0.36780962  0.37273115  0.61803166  1
  O  O428  1  0.38481441  0.86024922  0.11452998  1
  O  O429  1  0.37091898  0.86509424  0.62524084  1
  O  O430  1  0.87038606  0.37004674  0.11981075  1
  O  O431  1  0.87378458  0.37629113  0.61026625  1
  O  O432  1  0.87055101  0.87033599  0.11913836  1
  O  O433  1  0.87732129  0.86610462  0.61880302  1
  O  O434  1  0.13845681  0.12803938  0.37621914  1
  O  O435  1  0.13829808  0.13251675  0.86767261  1
  O  O436  1  0.13179201  0.62530796  0.38332789  1
  O  O437  1  0.12182206  0.63259749  0.88388082  1
  O  O438  1  0.62636646  0.12720669  0.38596940  1
  O  O439  1  0.63229621  0.13357420  0.87577762  1
  O  O440  1  0.62289573  0.63391195  0.38213573  1
  O  O441  1  0.62458314  0.63520747  0.88239987  1
