# generated using pymatgen
data_V93Zn93O256
_symmetry_space_group_name_H-M   'P 1'
_cell_length_a   17.05084427
_cell_length_b   17.05044158
_cell_length_c   17.05005711
_cell_angle_alpha   90.02168009
_cell_angle_beta   90.03657569
_cell_angle_gamma   90.04926715
_symmetry_Int_Tables_number   1
_chemical_formula_structural   V93Zn93O256
_chemical_formula_sum   'V93 Zn93 O256'
_cell_volume   4956.86483830
_cell_formula_units_Z   1
loop_
 _symmetry_equiv_pos_site_id
 _symmetry_equiv_pos_as_xyz
  1  'x, y, z'
loop_
 _atom_site_type_symbol
 _atom_site_label
 _atom_site_symmetry_multiplicity
 _atom_site_fract_x
 _atom_site_fract_y
 _atom_site_fract_z
 _atom_site_occupancy
  V  V0  1  -0.00001249  0.75073326  0.24864288  1
  V  V1  1  0.36781116  0.24999764  0.12196780  1
  V  V2  1  0.24776541  0.12920391  0.89161699  1
  V  V3  1  0.87548191  0.37547873  0.50008425  1
  V  V4  1  0.87600270  0.49954978  0.37485641  1
  V  V5  1  0.25083140  0.12351904  0.37510264  1
  V  V6  1  0.62607369  0.24993515  0.37590647  1
  V  V7  1  0.00038296  0.24847300  0.24967545  1
  V  V8  1  0.62391796  0.50075024  0.12476030  1
  V  V9  1  0.37490866  0.50015373  0.37423349  1
  V  V10  1  0.37405075  0.49804374  0.87594523  1
  V  V11  1  0.50086742  0.24935588  0.24996602  1
  V  V12  1  -0.00148501  0.75027012  0.74666743  1
  V  V13  1  0.87631623  0.12661069  0.75087986  1
  V  V14  1  0.12561063  0.87595462  0.74915586  1
  V  V15  1  0.50166344  0.87425940  0.37514437  1
  V  V16  1  0.37099525  0.12665493  0.75081522  1
  V  V17  1  0.75077258  0.37473665  0.62596619  1
  V  V18  1  0.75185599  0.25051284  0.50244622  1
  V  V19  1  0.12476905  0.00082213  0.12274780  1
  V  V20  1  0.87215355  0.87491622  0.50058819  1
  V  V21  1  0.74981527  0.49851854  0.75012620  1
  V  V22  1  0.24977350  -0.00247891  0.25018127  1
  V  V23  1  0.74857904  0.62474228  0.87478640  1
  V  V24  1  0.24871960  0.74928040  -0.00021698  1
  V  V25  1  0.75081565  0.11963333  0.87050749  1
  V  V26  1  0.25200518  0.24956411  0.49859261  1
  V  V27  1  0.37430278  0.62422973  0.74978654  1
  V  V28  1  0.74981934  0.50015954  0.24977634  1
  V  V29  1  0.74841579  0.88064512  0.63935510  1
  V  V30  1  0.24844197  0.74896735  0.49859749  1
  V  V31  1  0.12166479  0.36474581  0.74892573  1
  V  V32  1  0.37320941  0.00131802  0.87595170  1
  V  V33  1  0.12513285  0.74995481  0.87465944  1
  V  V34  1  0.24599587  0.49690425  0.74725503  1
  V  V35  1  0.37493530  0.62389340  0.24914470  1
  V  V36  1  0.24865420  0.62457396  0.87414234  1
  V  V37  1  0.62382504  0.62490325  -0.00047788  1
  V  V38  1  0.62901236  -0.00100958  0.63959914  1
  V  V39  1  0.50236089  0.87648822  0.87159919  1
  V  V40  1  0.75030731  0.00020899  0.24944892  1
  V  V41  1  0.87421736  0.62548018  0.24855875  1
  V  V42  1  0.87559999  0.62491928  0.74764289  1
  V  V43  1  0.62530338  0.37518027  0.25016695  1
  V  V44  1  0.37348262  0.74846156  0.12348537  1
  V  V45  1  0.24936166  0.87324575  0.12491622  1
  V  V46  1  0.87516848  0.00067996  0.37582654  1
  V  V47  1  0.88070902  0.49882865  0.88125294  1
  V  V48  1  0.12567883  0.24954879  0.37357453  1
  V  V49  1  0.49962595  0.00036706  0.00029289  1
  V  V50  1  0.36731429  0.37111245  0.00029105  1
  V  V51  1  0.37564579  0.24943040  0.62378957  1
  V  V52  1  -0.00029893  0.37556773  0.37499776  1
  V  V53  1  0.50095112  0.12415124  0.62712279  1
  V  V54  1  0.00220650  0.12534183  0.12097933  1
  V  V55  1  0.37627514  0.12454485  0.25059096  1
  V  V56  1  0.62693970  0.12402109  0.50231932  1
  V  V57  1  0.00108495  0.00038719  0.50126160  1
  V  V58  1  0.12527000  0.12444380  0.50002820  1
  V  V59  1  0.37623234  -0.00052555  0.37548369  1
  V  V60  1  0.50058144  0.75054281  0.24966527  1
  V  V61  1  0.74990356  0.87601862  0.12411562  1
  V  V62  1  0.62501138  0.75286980  0.87140188  1
  V  V63  1  0.62530355  0.62736899  0.50021679  1
  V  V64  1  0.37501041  0.37411405  0.49997829  1
  V  V65  1  0.50068059  0.12422505  0.12460197  1
  V  V66  1  0.00047133  0.37369817  0.87703526  1
  V  V67  1  0.49959092  0.62438333  0.12409823  1
  V  V68  1  0.75089277  0.12556876  0.37571713  1
  V  V69  1  0.11928443  0.49872361  0.12078610  1
  V  V70  1  0.50056242  0.37327165  0.87449614  1
  V  V71  1  0.37619527  0.87490070  0.50098637  1
  V  V72  1  0.62566310  0.87509944  0.25008798  1
  V  V73  1  0.11678747  0.61899612  -0.00196014  1
  V  V74  1  0.12597650  0.37528340  0.24828221  1
  V  V75  1  0.00147720  0.00329674  -0.00213432  1
  V  V76  1  0.62561550  0.50033858  0.62613757  1
  V  V77  1  0.49996141  0.50058990  0.50137324  1
  V  V78  1  0.87504905  0.87544441  -0.00065096  1
  V  V79  1  0.50027817  0.37480819  0.37544818  1
  V  V80  1  0.00107354  0.13327049  0.62995740  1
  V  V81  1  0.75017267  0.37424383  0.12410778  1
  V  V82  1  0.00059004  0.87776770  0.87451780  1
  V  V83  1  0.74944207  0.62600045  0.37586895  1
  V  V84  1  0.49973193  0.75046309  0.74989284  1
  V  V85  1  0.50281449  -0.00120859  0.50174077  1
  V  V86  1  0.87595871  0.12527258  0.24993737  1
  V  V87  1  0.25055248  0.87647634  0.62601119  1
  V  V88  1  0.24774269  0.62485579  0.37397016  1
  V  V89  1  0.75254288  0.25146787  -0.00108148  1
  V  V90  1  0.87385403  0.74984556  0.12303523  1
  V  V91  1  0.62564595  0.12576411  0.00004550  1
  V  V92  1  0.12492964  0.24467094  0.88944100  1
  Zn  Zn93  1  0.88003483  0.25397984  0.63151178  1
  Zn  Zn94  1  0.00258395  0.62255267  0.62164623  1
  Zn  Zn95  1  0.74886225  0.75222784  -0.00132049  1
  Zn  Zn96  1  0.87669389  0.25215745  0.12422915  1
  Zn  Zn97  1  0.87175079  0.75139767  0.62453573  1
  Zn  Zn98  1  0.62634203  0.75114442  0.37600849  1
  Zn  Zn99  1  0.49818150  0.49890566  0.00062497  1
  Zn  Zn100  1  0.12120536  0.49891757  0.62181298  1
  Zn  Zn101  1  0.74982517  0.75261573  0.50075536  1
  Zn  Zn102  1  -0.00465718  0.62069196  0.11895032  1
  Zn  Zn103  1  0.24659448  0.37285116  0.12231077  1
  Zn  Zn104  1  0.24804279  0.37394399  0.62336127  1
  Zn  Zn105  1  0.62477420  0.37359203  0.75068456  1
  Zn  Zn106  1  0.62578344  0.25099990  0.87206200  1
  Zn  Zn107  1  0.88031667  0.37972475  0.00383695  1
  Zn  Zn108  1  0.62467948  -0.00055274  0.12466701  1
  Zn  Zn109  1  0.37436497  0.87388464  -0.00083086  1
  Zn  Zn110  1  0.24984283  0.49807208  0.24671855  1
  Zn  Zn111  1  0.37656560  0.74923111  0.62538497  1
  Zn  Zn112  1  0.00183501  0.87408337  0.37465647  1
  Zn  Zn113  1  0.49898046  0.62571786  0.62559280  1
  Zn  Zn114  1  0.12582845  0.00179867  0.62720568  1
  Zn  Zn115  1  0.24746749  0.00064183  0.75318693  1
  Zn  Zn116  1  0.12419311  0.87277748  0.25222684  1
  Zn  Zn117  1  0.50146793  0.25121919  0.75025350  1
  Zn  Zn118  1  0.12139610  0.62184293  0.50180375  1
  Zn  Zn119  1  0.00163698  0.50247299  0.50231427  1
  Zn  Zn120  1  0.12157779  0.75008757  0.37362440  1
  Zn  Zn121  1  0.86993640  -0.00173759  0.86887448  1
  Zn  Zn122  1  0.18653349  0.18414335  0.18734185  1
  Zn  Zn123  1  0.18848135  0.18821321  0.68710890  1
  Zn  Zn124  1  0.18496707  0.68426683  0.18545327  1
  Zn  Zn125  1  0.18622990  0.68655200  0.68477087  1
  Zn  Zn126  1  0.68788541  0.18755248  0.18559339  1
  Zn  Zn127  1  0.68825421  0.19007238  0.69101414  1
  Zn  Zn128  1  0.68747311  0.68954059  0.18733345  1
  Zn  Zn129  1  0.68839689  0.69032890  0.68633733  1
  Zn  Zn130  1  0.31186401  0.31282607  0.31020514  1
  Zn  Zn131  1  0.30902310  0.31000259  0.81396365  1
  Zn  Zn132  1  0.31384001  0.81159355  0.31172046  1
  Zn  Zn133  1  0.31449162  0.81283958  0.81326779  1
  Zn  Zn134  1  0.81351232  0.31196949  0.31219052  1
  Zn  Zn135  1  0.81543362  0.30957490  0.81156211  1
  Zn  Zn136  1  0.81280174  0.81211361  0.31395437  1
  Zn  Zn137  1  0.81415218  0.81247155  0.81554401  1
  Zn  Zn138  1  0.18671332  0.43825437  0.43689200  1
  Zn  Zn139  1  0.18605289  0.43591650  0.93527849  1
  Zn  Zn140  1  0.18552517  0.93443705  0.43586478  1
  Zn  Zn141  1  0.18800932  0.93918744  0.93797736  1
  Zn  Zn142  1  0.68864836  0.43901806  0.43901031  1
  Zn  Zn143  1  0.68773183  0.43858719  0.93762513  1
  Zn  Zn144  1  0.68770678  0.93874368  0.44004142  1
  Zn  Zn145  1  0.68521461  0.93826344  0.93784858  1
  Zn  Zn146  1  0.31508782  0.06016151  0.06457600  1
  Zn  Zn147  1  0.31355872  0.06134296  0.56255433  1
  Zn  Zn148  1  0.30767818  0.55939002  0.06130093  1
  Zn  Zn149  1  0.31312808  0.56339572  0.56381146  1
  Zn  Zn150  1  0.81454507  0.06277695  0.06091245  1
  Zn  Zn151  1  0.81429664  0.06273947  0.56711670  1
  Zn  Zn152  1  0.80886482  0.56431471  0.06134716  1
  Zn  Zn153  1  0.81282010  0.56074218  0.56195016  1
  Zn  Zn154  1  0.43706124  0.43675565  0.18659005  1
  Zn  Zn155  1  0.43650098  0.43755518  0.68742946  1
  Zn  Zn156  1  0.43677410  0.93577739  0.18652040  1
  Zn  Zn157  1  0.43731792  0.93919125  0.68939781  1
  Zn  Zn158  1  0.93811927  0.43725242  0.18755567  1
  Zn  Zn159  1  0.94035803  0.43654407  0.68938439  1
  Zn  Zn160  1  0.93606919  0.93647823  0.18665095  1
  Zn  Zn161  1  0.93557769  0.94329944  0.68762056  1
  Zn  Zn162  1  0.06298552  0.06119307  0.31160445  1
  Zn  Zn163  1  0.06431552  0.06509127  0.81065485  1
  Zn  Zn164  1  0.06209795  0.56226250  0.30936637  1
  Zn  Zn165  1  0.06133155  0.55963596  0.81085595  1
  Zn  Zn166  1  0.56425891  0.06130712  0.31287707  1
  Zn  Zn167  1  0.56089906  0.06689634  0.81619033  1
  Zn  Zn168  1  0.56190608  0.56283134  0.31326283  1
  Zn  Zn169  1  0.56127203  0.56163621  0.81277047  1
  Zn  Zn170  1  0.44002736  0.18606009  0.43887130  1
  Zn  Zn171  1  0.43689251  0.18894972  0.93822877  1
  Zn  Zn172  1  0.43665101  0.68832750  0.43730797  1
  Zn  Zn173  1  0.43633718  0.68597648  0.93761122  1
  Zn  Zn174  1  0.93799393  0.18884288  0.43984707  1
  Zn  Zn175  1  0.93750728  0.19052128  0.93416609  1
  Zn  Zn176  1  0.93716597  0.68754954  0.43652984  1
  Zn  Zn177  1  0.93627370  0.68995293  0.93408405  1
  Zn  Zn178  1  0.06150931  0.31378825  0.06095825  1
  Zn  Zn179  1  0.06481227  0.31564721  0.56049544  1
  Zn  Zn180  1  0.06214092  0.81217028  0.06315095  1
  Zn  Zn181  1  0.06405406  0.81226955  0.56241944  1
  Zn  Zn182  1  0.56055373  0.31179531  0.06025549  1
  Zn  Zn183  1  0.56335315  0.31241838  0.56450838  1
  Zn  Zn184  1  0.56231512  0.81284388  0.06046140  1
  Zn  Zn185  1  0.56618383  0.81456667  0.56615212  1
  O  O186  1  0.11364025  0.11356311  0.13034144  1
  O  O187  1  0.11915045  0.12375373  0.61834949  1
  O  O188  1  0.12267538  0.61656430  0.11415360  1
  O  O189  1  0.12219060  0.62020258  0.62217426  1
  O  O190  1  0.61789821  0.12337646  0.11908190  1
  O  O191  1  0.62193895  0.11807465  0.62097603  1
  O  O192  1  0.61976936  0.62086241  0.12024620  1
  O  O193  1  0.62478343  0.61986281  0.61572829  1
  O  O194  1  0.38137168  0.37920624  0.37941819  1
  O  O195  1  0.37978589  0.37692753  0.88213199  1
  O  O196  1  0.38124448  0.88096485  0.38047342  1
  O  O197  1  0.38346780  0.88172665  0.87739595  1
  O  O198  1  0.87966041  0.38011311  0.37888945  1
  O  O199  1  0.88349715  0.38253032  0.87287692  1
  O  O200  1  0.87621925  0.88245938  0.38508803  1
  O  O201  1  0.88235678  0.87894549  0.88023022  1
  O  O202  1  0.25666543  0.00417414  0.37104688  1
  O  O203  1  0.25422354  0.01004324  0.87470295  1
  O  O204  1  0.25721312  0.51007975  0.37330921  1
  O  O205  1  0.25424423  0.50426167  0.86572326  1
  O  O206  1  0.75543400  0.00672590  0.37001531  1
  O  O207  1  0.75190298  0.01521375  0.88449363  1
  O  O208  1  0.75494833  0.50507546  0.36835059  1
  O  O209  1  0.75734133  0.50509526  0.86855906  1
  O  O210  1  0.23618520  0.49702468  0.12730457  1
  O  O211  1  0.25111945  0.49723485  0.63825714  1
  O  O212  1  0.24280350  0.99574936  0.12923718  1
  O  O213  1  0.24929980  0.98706851  0.62506973  1
  O  O214  1  0.74335314  0.49501171  0.13088529  1
  O  O215  1  0.74546340  0.49442826  0.63086797  1
  O  O216  1  0.75021332  0.99442818  0.13185813  1
  O  O217  1  0.74285619  0.98968638  0.62212128  1
  O  O218  1  0.00574441  0.36725587  0.25497433  1
  O  O219  1  0.01153585  0.37819051  0.76264582  1
  O  O220  1  -0.00170584  0.86364231  0.25006470  1
  O  O221  1  0.00342876  0.86929168  0.75397632  1
  O  O222  1  0.50581648  0.36937059  0.25604292  1
  O  O223  1  0.49808597  0.37453165  0.76219990  1
  O  O224  1  0.50490999  0.87041294  0.25517480  1
  O  O225  1  0.49326415  0.86550810  0.76241210  1
  O  O226  1  0.49538972  0.12946177  0.24641007  1
  O  O227  1  0.48645290  0.12623582  0.74650955  1
  O  O228  1  0.49511069  0.63044690  0.24464729  1
  O  O229  1  0.49287504  0.63397189  0.75118888  1
  O  O230  1  0.99576468  0.12855713  0.24212879  1
  O  O231  1  0.99633638  0.12165380  0.73690118  1
  O  O232  1  0.99169111  0.63390180  0.24703249  1
  O  O233  1  0.99101298  0.63489551  0.75299726  1
  O  O234  1  0.38120463  0.25790561  0.01242464  1
  O  O235  1  0.37142531  0.25364280  0.50317188  1
  O  O236  1  0.36642058  0.74857361  0.00578468  1
  O  O237  1  0.36584524  0.75654595  0.50152041  1
  O  O238  1  0.86381931  0.25295633  0.00188451  1
  O  O239  1  0.86741880  0.25764299  0.49993604  1
  O  O240  1  0.87356840  0.75741932  0.00381881  1
  O  O241  1  0.87540027  0.76343817  0.50387329  1
  O  O242  1  0.13212215  0.24437483  0.49223706  1
  O  O243  1  0.12791051  0.25250156  0.98799749  1
  O  O244  1  0.13894146  0.74919719  0.49736450  1
  O  O245  1  0.12942291  0.74225540  0.99409701  1
  O  O246  1  0.63088256  0.24393739  0.49513030  1
  O  O247  1  0.63533591  0.24417213  0.99951322  1
  O  O248  1  0.62470948  0.73829295  0.49945539  1
  O  O249  1  0.62410150  0.74410826  0.98738595  1
  O  O250  1  0.49253573  0.24404812  0.13176882  1
  O  O251  1  0.49355827  0.24160956  0.62468087  1
  O  O252  1  0.49409759  0.74436685  0.12948861  1
  O  O253  1  0.50057235  0.75165024  0.63876969  1
  O  O254  1  1.00100566  0.24024962  0.12926215  1
  O  O255  1  0.99929937  0.23653234  0.61390328  1
  O  O256  1  0.99192961  0.74782803  0.13172928  1
  O  O257  1  0.99646572  0.75223682  0.63879142  1
  O  O258  1  0.00647437  0.25372881  0.36942918  1
  O  O259  1  0.01605116  0.25460462  0.87623167  1
  O  O260  1  -0.00135503  0.75134554  0.36146649  1
  O  O261  1  0.00500552  0.75738477  0.86501304  1
  O  O262  1  0.50660292  0.25451364  0.37052223  1
  O  O263  1  0.50030699  0.26107481  0.87440016  1
  O  O264  1  0.50030075  0.75700323  0.36774840  1
  O  O265  1  0.50497947  0.75655200  0.86924178  1
  O  O266  1  0.24612049  0.12853611  0.49392322  1
  O  O267  1  0.25368301  0.12281551  0.99039892  1
  O  O268  1  0.25400234  0.63415363  0.49033575  1
  O  O269  1  0.24010679  0.63022408  0.99262964  1
  O  O270  1  0.74658999  0.12946608  0.49521795  1
  O  O271  1  0.74678661  0.13338708  0.99528348  1
  O  O272  1  0.74071201  0.62550909  0.49565702  1
  O  O273  1  0.74195645  0.62937992  0.99190328  1
  O  O274  1  0.26370577  0.37675806  -0.00022116  1
  O  O275  1  0.25798807  0.36707048  0.49809316  1
  O  O276  1  0.25000494  0.86725553  0.00636711  1
  O  O277  1  0.25563778  0.86827904  0.50587617  1
  O  O278  1  0.74983129  0.36614378  0.00531660  1
  O  O279  1  0.75536064  0.37050012  0.50527630  1
  O  O280  1  0.75654089  0.87502069  0.00508139  1
  O  O281  1  0.76114080  0.87651240  0.50551569  1
  O  O282  1  0.12621917  0.49329644  0.24050973  1
  O  O283  1  0.13516528  0.48939389  0.75388625  1
  O  O284  1  0.13075784  0.99813982  0.24002046  1
  O  O285  1  0.12783876  0.99142685  0.74737414  1
  O  O286  1  0.63009985  0.49464535  0.24555429  1
  O  O287  1  0.63245151  0.50019087  0.74395914  1
  O  O288  1  0.63228361  0.99366224  0.24863307  1
  O  O289  1  0.61931016  1.00553281  0.73798778  1
  O  O290  1  0.37041158  0.00507916  0.25568184  1
  O  O291  1  0.37351815  0.01034229  0.75747371  1
  O  O292  1  0.37427725  0.50583168  0.25622962  1
  O  O293  1  0.36552944  0.50361221  0.75596045  1
  O  O294  1  0.87049124  0.00556733  0.25602567  1
  O  O295  1  0.88044310  0.01766840  0.75346831  1
  O  O296  1  0.86845617  0.50522915  0.25432260  1
  O  O297  1  0.86987453  0.50925408  0.75869088  1
  O  O298  1  0.11982843  0.36802312  0.36824432  1
  O  O299  1  0.12069321  0.36412376  0.87051254  1
  O  O300  1  0.12015688  0.86952261  0.37019901  1
  O  O301  1  0.12050037  0.86930595  0.86960606  1
  O  O302  1  0.62030563  0.37003126  0.37054868  1
  O  O303  1  0.61239918  0.37604571  0.87567021  1
  O  O304  1  0.61916725  0.87475822  0.36959703  1
  O  O305  1  0.61446093  0.86554971  0.87926142  1
  O  O306  1  0.38052859  0.13134087  0.13108625  1
  O  O307  1  0.38025038  0.12791885  0.63201675  1
  O  O308  1  0.37887019  0.62846493  0.12924399  1
  O  O309  1  0.37825459  0.62890464  0.63355406  1
  O  O310  1  0.88664412  0.12496354  0.13203485  1
  O  O311  1  0.88329348  0.12747295  0.63182844  1
  O  O312  1  0.87465925  0.63023612  0.12966877  1
  O  O313  1  0.87236908  0.62807033  0.63916500  1
  O  O314  1  0.26457353  0.24876096  0.13214948  1
  O  O315  1  0.25821524  0.24975956  0.61554323  1
  O  O316  1  0.25399529  0.75315732  0.11999339  1
  O  O317  1  0.25221601  0.76003475  0.61660856  1
  O  O318  1  0.75168855  0.25535835  0.11654655  1
  O  O319  1  0.75114434  0.25685934  0.61806833  1
  O  O320  1  0.75617055  0.75758133  0.12262230  1
  O  O321  1  0.75005427  0.76658829  0.62267909  1
  O  O322  1  0.24599821  0.24229081  0.37848227  1
  O  O323  1  0.23699501  0.24183255  0.87258053  1
  O  O324  1  0.25253188  0.74163038  0.38266930  1
  O  O325  1  0.24380506  0.74465008  0.87853375  1
  O  O326  1  0.74438189  0.24499604  0.38069801  1
  O  O327  1  0.74962152  0.24276283  0.88550049  1
  O  O328  1  0.74721304  0.74194937  0.37885808  1
  O  O329  1  0.73946496  0.74559829  0.87339048  1
  O  O330  1  -0.00709012  0.11575644  0.01044121  1
  O  O331  1  0.00473199  0.11718414  0.50543986  1
  O  O332  1  0.01304172  0.63091842  -0.00281284  1
  O  O333  1  0.00139022  0.62382364  0.50256502  1
  O  O334  1  0.50497289  0.12034389  0.00435022  1
  O  O335  1  0.50656471  0.11861793  0.50680078  1
  O  O336  1  0.50548394  0.62292644  0.00646275  1
  O  O337  1  0.50828665  0.61966941  0.50031922  1
  O  O338  1  0.49542869  0.38001347  0.49395409  1
  O  O339  1  0.48946578  0.37697474  0.99189252  1
  O  O340  1  0.49658472  0.87927971  0.49617471  1
  O  O341  1  0.49770698  0.88018031  0.98890964  1
  O  O342  1  0.99279216  0.37447947  0.49081968  1
  O  O343  1  0.99785824  0.37121640  0.98350207  1
  O  O344  1  0.99078794  0.88449780  0.50339986  1
  O  O345  1  0.99555099  0.88258605  0.99468903  1
  O  O346  1  0.49497354  0.49418444  0.38084243  1
  O  O347  1  0.49177128  0.49149361  0.87623824  1
  O  O348  1  0.49558761  0.99471105  0.38123928  1
  O  O349  1  0.49512117  0.99337947  0.87937487  1
  O  O350  1  0.99213099  0.49238580  0.37183680  1
  O  O351  1  0.98926875  0.49152466  0.86984157  1
  O  O352  1  0.99435494  1.00122811  0.38607777  1
  O  O353  1  1.00398681  0.99676989  0.88574775  1
  O  O354  1  0.00612650  0.00555426  0.11909376  1
  O  O355  1  0.00145247  0.00901641  0.61303282  1
  O  O356  1  0.01344766  0.50126506  0.12731376  1
  O  O357  1  0.00147257  0.50335414  0.62308268  1
  O  O358  1  0.49898755  0.00668844  0.11893536  1
  O  O359  1  0.50840210  0.00347705  0.62069986  1
  O  O360  1  0.50674950  0.50672882  0.12511155  1
  O  O361  1  0.50647741  0.50163347  0.61870149  1
  O  O362  1  0.24084845  0.37622511  0.24730574  1
  O  O363  1  0.24267330  0.38299699  0.75071703  1
  O  O364  1  0.25059413  0.88087260  0.24303668  1
  O  O365  1  0.24568610  0.87355513  0.74110726  1
  O  O366  1  0.74403078  0.37970716  0.24531881  1
  O  O367  1  0.75075663  0.38139880  0.74427607  1
  O  O368  1  0.74596356  0.88090117  0.24513756  1
  O  O369  1  0.75690507  0.87567654  0.73768861  1
  O  O370  1  0.25646295  0.11755413  0.25591187  1
  O  O371  1  0.26113509  0.12313294  0.75371299  1
  O  O372  1  0.25682630  0.62598858  0.25901673  1
  O  O373  1  0.25336816  0.61737444  0.75557800  1
  O  O374  1  0.75532532  0.12098185  0.25585004  1
  O  O375  1  0.75795779  0.13068174  0.76270587  1
  O  O376  1  0.75387082  0.61939991  0.25486314  1
  O  O377  1  0.75768954  0.62136164  0.75516613  1
  O  O378  1  0.37143845  0.11902260  0.37047850  1
  O  O379  1  0.36676188  0.12340320  0.86903489  1
  O  O380  1  0.36831258  0.62010843  0.36925692  1
  O  O381  1  0.36811267  0.61864153  0.87013760  1
  O  O382  1  0.87004874  0.12052837  0.37042929  1
  O  O383  1  0.86875732  0.12414032  0.86934578  1
  O  O384  1  0.86769960  0.61917930  0.36834346  1
  O  O385  1  0.87030245  0.61929869  0.86697890  1
  O  O386  1  0.12527040  0.38093143  0.12837910  1
  O  O387  1  0.12820452  0.37568440  0.63515863  1
  O  O388  1  0.13035260  0.88449664  0.12788617  1
  O  O389  1  0.13527593  0.87587651  0.62991309  1
  O  O390  1  0.62879981  0.37996174  0.13115747  1
  O  O391  1  0.63209484  0.38353531  0.62479578  1
  O  O392  1  0.63096410  0.87619477  0.13111224  1
  O  O393  1  0.64026234  0.88431123  0.62116420  1
  O  O394  1  0.11970478  0.25321523  0.25451691  1
  O  O395  1  0.13171010  0.26160121  0.75570967  1
  O  O396  1  0.11228296  0.74939764  0.24743251  1
  O  O397  1  0.11658867  0.75510506  0.75507394  1
  O  O398  1  0.62071661  0.25513975  0.25602171  1
  O  O399  1  0.61945618  0.25529671  0.75379432  1
  O  O400  1  0.61782948  0.75676258  0.25195073  1
  O  O401  1  0.61373809  0.74213701  0.76245747  1
  O  O402  1  0.38209162  0.24434208  0.24402254  1
  O  O403  1  0.37464471  0.24074696  0.74350959  1
  O  O404  1  0.38111681  0.74378502  0.24321952  1
  O  O405  1  0.38421959  0.74307467  0.75156316  1
  O  O406  1  0.88244718  0.24307402  0.24881949  1
  O  O407  1  0.87622403  0.23503096  0.74908668  1
  O  O408  1  0.88012314  0.74511073  0.24327694  1
  O  O409  1  0.88280309  0.74179610  0.75245040  1
  O  O410  1  0.38024127  0.49462585  0.49444359  1
  O  O411  1  0.37531696  0.49078507  0.99415119  1
  O  O412  1  0.38271682  0.99493084  0.49504610  1
  O  O413  1  0.38234629  0.99858529  0.99323618  1
  O  O414  1  0.87394562  0.49240385  0.49118300  1
  O  O415  1  0.86737173  0.49980177  0.98500550  1
  O  O416  1  0.88279628  0.99482470  0.49611350  1
  O  O417  1  0.88779772  0.99352764  0.99973041  1
  O  O418  1  0.11366322  -0.00561028  0.01194627  1
  O  O419  1  0.11615950  0.00531871  0.49978632  1
  O  O420  1  0.13081428  0.50948072  0.00533462  1
  O  O421  1  0.12214691  0.50196402  0.50201277  1
  O  O422  1  0.61661398  0.00735248  0.00236381  1
  O  O423  1  0.62018514  0.00654969  0.50768323  1
  O  O424  1  0.62365804  0.50722754  0.00749242  1
  O  O425  1  0.62034861  0.50884865  0.50490115  1
  O  O426  1  0.37469710  0.36679138  0.11819387  1
  O  O427  1  0.37413163  0.36779543  0.61699247  1
  O  O428  1  0.36829485  0.86674213  0.12248519  1
  O  O429  1  0.36709901  0.87431791  0.61994164  1
  O  O430  1  0.86733099  0.37390856  0.12273391  1
  O  O431  1  0.86922110  0.37343283  0.61951118  1
  O  O432  1  0.86893764  0.86982347  0.11868731  1
  O  O433  1  0.86319194  0.87973297  0.61841971  1
  O  O434  1  0.13109341  0.12950929  0.37934331  1
  O  O435  1  0.13182400  0.13789936  0.87089059  1
  O  O436  1  0.13862350  0.62708406  0.37391192  1
  O  O437  1  0.12890743  0.62919100  0.87945834  1
  O  O438  1  0.63086451  0.13017021  0.38127315  1
  O  O439  1  0.63337160  0.12756090  0.88209914  1
  O  O440  1  0.63015216  0.62421330  0.38513619  1
  O  O441  1  0.62880297  0.63197035  0.87968897  1
