# generated using pymatgen
data_V93Zn93O256
_symmetry_space_group_name_H-M   'P 1'
_cell_length_a   17.06104614
_cell_length_b   17.07453897
_cell_length_c   17.07002404
_cell_angle_alpha   89.96871016
_cell_angle_beta   90.01903632
_cell_angle_gamma   89.97667072
_symmetry_Int_Tables_number   1
_chemical_formula_structural   V93Zn93O256
_chemical_formula_sum   'V93 Zn93 O256'
_cell_volume   4972.65869507
_cell_formula_units_Z   1
loop_
 _symmetry_equiv_pos_site_id
 _symmetry_equiv_pos_as_xyz
  1  'x, y, z'
loop_
 _atom_site_type_symbol
 _atom_site_label
 _atom_site_symmetry_multiplicity
 _atom_site_fract_x
 _atom_site_fract_y
 _atom_site_fract_z
 _atom_site_occupancy
  V  V0  1  0.24861139  0.87392938  0.62494189  1
  V  V1  1  0.62270623  0.62466013  0.00259909  1
  V  V2  1  0.37085134  0.87655510  0.00348150  1
  V  V3  1  -0.00350391  0.88144958  0.87537194  1
  V  V4  1  0.50019411  0.74960455  0.25027163  1
  V  V5  1  0.00090949  0.62310554  0.12173907  1
  V  V6  1  0.74989317  0.24956790  -0.00139861  1
  V  V7  1  0.87573763  0.24915758  0.62492680  1
  V  V8  1  0.75045308  0.87504984  0.12540626  1
  V  V9  1  0.25041587  0.62542214  0.87497334  1
  V  V10  1  0.50058059  0.24932136  0.75050165  1
  V  V11  1  0.87579041  -0.00346077  0.37733763  1
  V  V12  1  0.37531189  0.50065398  0.87574190  1
  V  V13  1  0.25224443  0.62503146  0.37349025  1
  V  V14  1  0.12581008  0.37542308  0.74951525  1
  V  V15  1  0.12320261  0.62108194  0.00309072  1
  V  V16  1  0.00178448  0.50116111  0.00253268  1
  V  V17  1  0.87250597  0.12124894  0.75886107  1
  V  V18  1  0.50158941  0.87577640  0.37785539  1
  V  V19  1  0.12556865  -0.00152305  0.62432821  1
  V  V20  1  0.00159002  0.75039180  0.24729491  1
  V  V21  1  0.37501599  0.25059078  0.12590810  1
  V  V22  1  0.37562435  0.24864468  0.62622962  1
  V  V23  1  0.25221749  0.00314104  0.75221650  1
  V  V24  1  -0.00577727  0.00189198  -0.00211711  1
  V  V25  1  0.24680553  0.75058981  0.50042456  1
  V  V26  1  0.62342546  0.49840735  0.62439860  1
  V  V27  1  -0.00094601  0.12550263  0.62383532  1
  V  V28  1  0.50037179  0.37443352  0.37589490  1
  V  V29  1  0.12625941  0.62214614  0.49809617  1
  V  V30  1  0.49956398  0.50042755  0.00080729  1
  V  V31  1  0.87264569  0.50096192  0.87075240  1
  V  V32  1  -0.00236860  -0.00570616  0.49912304  1
  V  V33  1  0.62458598  0.00003831  0.12610732  1
  V  V34  1  0.62692707  0.74938610  0.37643179  1
  V  V35  1  0.87265899  0.87859677  -0.00188527  1
  V  V36  1  0.25075380  0.12312207  0.37476658  1
  V  V37  1  0.00023687  0.37735593  0.87422628  1
  V  V38  1  0.12606571  0.25066752  0.87419250  1
  V  V39  1  0.62621049  0.62726114  0.50165308  1
  V  V40  1  0.37464551  0.49948063  0.37434216  1
  V  V41  1  0.87520472  0.62404872  0.24709589  1
  V  V42  1  0.50161064  -0.00072065  0.50240959  1
  V  V43  1  0.75066709  0.37453552  0.12415056  1
  V  V44  1  0.12481851  0.87908335  0.75227700  1
  V  V45  1  0.76324581  0.86926407  0.61994472  1
  V  V46  1  0.37490319  0.37524470  0.00080149  1
  V  V47  1  0.00162991  0.87368773  0.37151342  1
  V  V48  1  0.74800933  0.62185507  0.87142570  1
  V  V49  1  0.75061984  0.62462053  0.37366575  1
  V  V50  1  0.00222171  0.50077004  0.50162210  1
  V  V51  1  0.50068845  0.37426608  0.87465190  1
  V  V52  1  0.62612719  0.87470301  0.25151588  1
  V  V53  1  0.13090579  -0.00728221  0.12645012  1
  V  V54  1  0.49863339  0.62617860  0.62478484  1
  V  V55  1  0.12285018  0.75236285  0.87413956  1
  V  V56  1  0.62596539  0.24963022  0.37553621  1
  V  V57  1  0.24867301  0.75484342  0.00546547  1
  V  V58  1  0.75118782  0.00014463  0.25134916  1
  V  V59  1  0.37349951  0.62566003  0.75063911  1
  V  V60  1  0.62381162  0.49992732  0.12497818  1
  V  V61  1  0.12721647  0.12684282  -0.00066627  1
  V  V62  1  0.74874407  0.37360511  0.62536205  1
  V  V63  1  0.49999025  0.87424188  0.87472032  1
  V  V64  1  0.62347476  0.12550503  -0.00100053  1
  V  V65  1  0.75098948  0.24885078  0.49927218  1
  V  V66  1  0.50161011  0.12319096  0.62690930  1
  V  V67  1  0.25035553  0.50039842  0.75058627  1
  V  V68  1  0.24754859  0.50046459  0.24703348  1
  V  V69  1  0.37371131  0.75256879  0.12765526  1
  V  V70  1  0.62551503  0.12394781  0.50204067  1
  V  V71  1  -0.00058104  0.12822950  0.12738065  1
  V  V72  1  0.37451802  0.12489452  0.25075864  1
  V  V73  1  0.49921599  0.24951193  0.25090704  1
  V  V74  1  0.37610226  0.00000395  0.37604453  1
  V  V75  1  0.87525971  0.49912221  0.37218296  1
  V  V76  1  0.37141683  0.74913116  0.62602923  1
  V  V77  1  0.62164790  0.75040870  0.87217695  1
  V  V78  1  0.75125108  0.12365287  0.37520635  1
  V  V79  1  0.87553867  0.74956845  0.12067374  1
  V  V80  1  0.00130496  0.37293672  0.37321481  1
  V  V81  1  0.62502266  0.37532581  0.25025862  1
  V  V82  1  0.74742840  0.75062672  0.00104045  1
  V  V83  1  0.24955505  0.24902239  0.49932459  1
  V  V84  1  0.24936340  0.37589245  0.62489117  1
  V  V85  1  0.12583342  0.12413811  0.49870650  1
  V  V86  1  0.62539295  0.37552190  0.75018966  1
  V  V87  1  0.24682783  0.37904482  0.12376948  1
  V  V88  1  0.12444793  0.37493845  0.24747009  1
  V  V89  1  0.49918899  0.49986724  0.49904636  1
  V  V90  1  0.49894926  0.00019813  0.00184167  1
  V  V91  1  0.87571079  0.37410029  0.49888968  1
  V  V92  1  0.37448559  0.37459039  0.50027559  1
  Zn  Zn93  1  0.87707429  0.37306111  0.00023967  1
  Zn  Zn94  1  0.75039988  0.49975332  0.24830481  1
  Zn  Zn95  1  -0.00121465  0.24993829  0.25042106  1
  Zn  Zn96  1  0.49789990  0.75097513  0.74868366  1
  Zn  Zn97  1  0.49924887  0.62463799  0.12713329  1
  Zn  Zn98  1  0.12219254  0.50124144  0.62898352  1
  Zn  Zn99  1  0.12851634  0.75128707  0.37056092  1
  Zn  Zn100  1  -0.02756729  0.62918522  0.63059665  1
  Zn  Zn101  1  0.37448529  0.00298346  0.87666526  1
  Zn  Zn102  1  0.75398875  0.50360597  0.74399510  1
  Zn  Zn103  1  -0.00075850  0.25132235  0.74902732  1
  Zn  Zn104  1  0.74950181  -0.00580466  0.75752598  1
  Zn  Zn105  1  -0.02409973  0.75311759  0.74002350  1
  Zn  Zn106  1  0.62732852  0.87629556  0.74439581  1
  Zn  Zn107  1  0.12432037  0.24741838  0.37312849  1
  Zn  Zn108  1  0.37596325  0.87447168  0.50124111  1
  Zn  Zn109  1  0.13377258  0.86801252  0.24327145  1
  Zn  Zn110  1  0.75637913  0.11403588  0.88160930  1
  Zn  Zn111  1  0.25199426  0.25056466  -0.00017418  1
  Zn  Zn112  1  0.63090804  -0.00320339  0.62812417  1
  Zn  Zn113  1  0.87587766  0.12778623  0.25003501  1
  Zn  Zn114  1  0.25506467  -0.00674537  0.24666821  1
  Zn  Zn115  1  0.37749548  0.12483190  0.75409938  1
  Zn  Zn116  1  0.62634001  0.24845835  0.87359501  1
  Zn  Zn117  1  0.49852587  0.12494359  0.12627451  1
  Zn  Zn118  1  0.25313673  0.12670152  0.87445419  1
  Zn  Zn119  1  0.37649551  0.62448791  0.24871220  1
  Zn  Zn120  1  0.87633979  0.25078207  0.12678127  1
  Zn  Zn121  1  0.76927568  0.75189125  0.50186229  1
  Zn  Zn122  1  0.18917864  0.18807988  0.18801192  1
  Zn  Zn123  1  0.18677227  0.18727124  0.68610512  1
  Zn  Zn124  1  0.18767364  0.68640340  0.18654087  1
  Zn  Zn125  1  0.11397113  0.69960148  0.67603397  1
  Zn  Zn126  1  0.68693865  0.18717446  0.18734766  1
  Zn  Zn127  1  0.68794323  0.18750182  0.68808435  1
  Zn  Zn128  1  0.68765860  0.68687063  0.18815429  1
  Zn  Zn129  1  0.80854214  0.69021202  0.69677836  1
  Zn  Zn130  1  0.31146695  0.31130942  0.31313699  1
  Zn  Zn131  1  0.31318382  0.31273504  0.81199559  1
  Zn  Zn132  1  0.31255473  0.81662557  0.31309692  1
  Zn  Zn133  1  0.31057960  0.81303960  0.81366159  1
  Zn  Zn134  1  0.81485744  0.31053232  0.30971337  1
  Zn  Zn135  1  0.81304837  0.31127738  0.81261434  1
  Zn  Zn136  1  0.81486707  0.81043064  0.31328115  1
  Zn  Zn137  1  0.80740337  0.82145881  0.81418178  1
  Zn  Zn138  1  0.18738634  0.43600111  0.43386257  1
  Zn  Zn139  1  0.18746587  0.43753029  0.93653620  1
  Zn  Zn140  1  0.18725385  0.93659578  0.43569046  1
  Zn  Zn141  1  0.18607913  0.94020046  0.93836815  1
  Zn  Zn142  1  0.68877700  0.43836258  0.43715112  1
  Zn  Zn143  1  0.68549042  0.43686640  0.93787838  1
  Zn  Zn144  1  0.68873893  0.93618667  0.44250703  1
  Zn  Zn145  1  0.68687928  0.94065671  0.93576228  1
  Zn  Zn146  1  0.31264822  0.06461123  0.06306792  1
  Zn  Zn147  1  0.31510431  0.06253119  0.56305885  1
  Zn  Zn148  1  0.31272968  0.56536496  0.06286522  1
  Zn  Zn149  1  0.31079965  0.56271466  0.56381334  1
  Zn  Zn150  1  0.81201262  0.06375278  0.06473507  1
  Zn  Zn151  1  0.81280819  0.05893728  0.56659326  1
  Zn  Zn152  1  0.81361858  0.56141698  0.05691791  1
  Zn  Zn153  1  0.80978478  0.56012176  0.55823012  1
  Zn  Zn154  1  0.43636783  0.43666842  0.18768414  1
  Zn  Zn155  1  0.43732949  0.43726279  0.68779543  1
  Zn  Zn156  1  0.43797509  0.93669142  0.18877568  1
  Zn  Zn157  1  0.43626290  0.93708139  0.68721193  1
  Zn  Zn158  1  0.93732411  0.43783985  0.18544895  1
  Zn  Zn159  1  0.93714153  0.43764291  0.68711705  1
  Zn  Zn160  1  0.93922241  0.93879128  0.18776951  1
  Zn  Zn161  1  0.93819760  0.94192401  0.69150533  1
  Zn  Zn162  1  0.06460717  0.06189504  0.31093209  1
  Zn  Zn163  1  0.06121618  0.06576603  0.81097686  1
  Zn  Zn164  1  0.06359296  0.56157623  0.31179794  1
  Zn  Zn165  1  0.06011555  0.56465991  0.81173335  1
  Zn  Zn166  1  0.56228253  0.06295774  0.31387331  1
  Zn  Zn167  1  0.56486525  0.05883749  0.81250213  1
  Zn  Zn168  1  0.56244219  0.56295806  0.31133017  1
  Zn  Zn169  1  0.56291213  0.56300259  0.81040337  1
  Zn  Zn170  1  0.43770428  0.18596105  0.43915405  1
  Zn  Zn171  1  0.43714910  0.18761396  0.93679150  1
  Zn  Zn172  1  0.43623133  0.68837131  0.43672673  1
  Zn  Zn173  1  0.43687512  0.68750580  0.94039014  1
  Zn  Zn174  1  0.93857153  0.18550989  0.43590361  1
  Zn  Zn175  1  0.93952190  0.19236634  0.94055086  1
  Zn  Zn176  1  0.94120313  0.68349311  0.43101192  1
  Zn  Zn177  1  0.91618570  0.70558876  0.90098344  1
  Zn  Zn178  1  0.06462748  0.31377769  0.06173170  1
  Zn  Zn179  1  0.06378149  0.31178128  0.56196657  1
  Zn  Zn180  1  0.05932416  0.81152407  0.05890831  1
  Zn  Zn181  1  -0.05404129  0.80977543  0.56237787  1
  Zn  Zn182  1  0.56215304  0.31211655  0.06312856  1
  Zn  Zn183  1  0.56209998  0.31020567  0.56333947  1
  Zn  Zn184  1  0.56046752  0.81328024  0.06286332  1
  Zn  Zn185  1  0.56713020  0.81221836  0.56615334  1
  O  O186  1  0.11832949  0.11999503  0.11574354  1
  O  O187  1  0.11927949  0.11840757  0.61883102  1
  O  O188  1  0.11937167  0.63151411  0.10937806  1
  O  O189  1  0.13424832  0.61630885  0.60316687  1
  O  O190  1  0.62320465  0.11903723  0.11586474  1
  O  O191  1  0.61924552  0.12516152  0.61797472  1
  O  O192  1  0.62413753  0.61834762  0.11969099  1
  O  O193  1  0.61623532  0.61577981  0.60993164  1
  O  O194  1  0.38055741  0.37923164  0.38098159  1
  O  O195  1  0.37993667  0.38099886  0.88106960  1
  O  O196  1  0.38514880  0.88194895  0.37816537  1
  O  O197  1  0.38287520  0.87368800  0.88734741  1
  O  O198  1  0.88053126  0.37941359  0.37960044  1
  O  O199  1  0.88118220  0.38153333  0.87920860  1
  O  O200  1  0.88704931  0.88654839  0.36721240  1
  O  O201  1  0.88889937  0.87137079  0.88325914  1
  O  O202  1  0.25835691  0.00763686  0.37700474  1
  O  O203  1  0.24888918  0.00197558  0.86447961  1
  O  O204  1  0.25627305  0.50335030  0.36625163  1
  O  O205  1  0.25690514  0.50451996  0.87158387  1
  O  O206  1  0.75841890  0.00246791  0.37228292  1
  O  O207  1  0.75377272  0.00149211  0.87296710  1
  O  O208  1  0.75742335  0.50548803  0.37264174  1
  O  O209  1  0.75563381  0.50551396  0.87774915  1
  O  O210  1  0.25794417  0.49025230  0.13477844  1
  O  O211  1  0.25027955  0.49167576  0.63215081  1
  O  O212  1  0.23294217  1.00502540  0.12175184  1
  O  O213  1  0.24595861  0.99521536  0.63168704  1
  O  O214  1  0.74356458  0.48964036  0.12244952  1
  O  O215  1  0.74063272  0.48960321  0.62364309  1
  O  O216  1  0.74489943  0.99400065  0.13108140  1
  O  O217  1  0.75159556  0.98711311  0.62891296  1
  O  O218  1  0.01066021  0.37811858  0.25239803  1
  O  O219  1  0.00756239  0.37438692  0.75644449  1
  O  O220  1  0.00424538  0.86926103  0.25480907  1
  O  O221  1  0.00522257  0.87612091  0.76129979  1
  O  O222  1  0.50485052  0.36948725  0.25696834  1
  O  O223  1  0.50514278  0.36962879  0.75468464  1
  O  O224  1  0.50753287  0.86986420  0.25720503  1
  O  O225  1  0.49819992  0.87241644  0.76481239  1
  O  O226  1  0.49400804  0.13253993  0.24986927  1
  O  O227  1  0.50069555  0.13163353  0.74491683  1
  O  O228  1  0.49733089  0.63357463  0.24815173  1
  O  O229  1  0.49165845  0.62657062  0.74345446  1
  O  O230  1  1.00243706  0.12618845  0.23802449  1
  O  O231  1  0.99099198  0.12813282  0.74290067  1
  O  O232  1  0.99588797  0.62846032  0.24218256  1
  O  O233  1  1.02551327  0.63961254  0.73779144  1
  O  O234  1  0.37327711  0.25788464  0.00663093  1
  O  O235  1  0.37001177  0.25551035  0.50594449  1
  O  O236  1  0.36723689  0.75667401  0.00720998  1
  O  O237  1  0.36380400  0.74878605  0.50576249  1
  O  O238  1  0.86390930  0.25205686  0.00485296  1
  O  O239  1  0.87013226  0.25451439  0.50396388  1
  O  O240  1  0.86692467  0.75770558  0.00132561  1
  O  O241  1  0.88104721  0.74363202  0.49984459  1
  O  O242  1  0.13238597  0.24226616  0.49870817  1
  O  O243  1  0.12646796  0.24248620  0.99175686  1
  O  O244  1  0.14023450  0.73648023  0.49325416  1
  O  O245  1  0.13139490  0.74601765  0.99304353  1
  O  O246  1  0.63104836  0.24475989  0.49430629  1
  O  O247  1  0.63138397  0.24115217  1.00136855  1
  O  O248  1  0.62400768  0.73727958  0.49350971  1
  O  O249  1  0.62812270  0.74480400  0.99576384  1
  O  O250  1  0.49284633  0.25089782  0.13348242  1
  O  O251  1  0.49474556  0.24416200  0.63044134  1
  O  O252  1  0.49094782  0.74993479  0.13124657  1
  O  O253  1  0.49107523  0.74371131  0.62588467  1
  O  O254  1  1.00090495  0.23955469  0.12281238  1
  O  O255  1  0.99387262  0.24354723  0.62390752  1
  O  O256  1  0.99376102  0.74394209  0.12641512  1
  O  O257  1  1.00979480  0.74440531  0.63011328  1
  O  O258  1  0.00306172  0.25770136  0.37306592  1
  O  O259  1  0.01203943  0.25811493  0.87612090  1
  O  O260  1  0.00195444  0.75917173  0.36546595  1
  O  O261  1  0.01228828  0.76391386  0.88009388  1
  O  O262  1  0.50595499  0.25548925  0.37157810  1
  O  O263  1  0.50167004  0.25782091  0.86901454  1
  O  O264  1  0.50619359  0.75552636  0.37026699  1
  O  O265  1  0.50474328  0.75800864  0.87946957  1
  O  O266  1  0.24539360  0.12960039  0.49582488  1
  O  O267  1  0.23689577  0.12696370  0.99820442  1
  O  O268  1  0.24657710  0.62832132  0.49194055  1
  O  O269  1  0.24237029  0.63204870  0.99535821  1
  O  O270  1  0.74616918  0.12996970  0.49481976  1
  O  O271  1  0.74203451  0.13302722  1.00342206  1
  O  O272  1  0.73878690  0.62463123  0.49187457  1
  O  O273  1  0.74107542  0.63032922  0.99420029  1
  O  O274  1  0.25481371  0.37712453  0.00943874  1
  O  O275  1  0.25542983  0.36985584  0.50376967  1
  O  O276  1  0.25863342  0.86580137  -0.00637960  1
  O  O277  1  0.24965862  0.86598748  0.50424955  1
  O  O278  1  0.74611336  0.36567154  0.00907775  1
  O  O279  1  0.75590618  0.36854127  0.50401460  1
  O  O280  1  0.75338154  0.87088071  0.00703952  1
  O  O281  1  0.75076561  0.87266255  0.51409190  1
  O  O282  1  0.13801743  0.48940502  0.25456327  1
  O  O283  1  0.13256687  0.49265060  0.75121544  1
  O  O284  1  0.12355127  1.00039311  0.23193429  1
  O  O285  1  0.13143617  0.99798214  0.74544632  1
  O  O286  1  0.62667835  0.49259140  0.24398904  1
  O  O287  1  0.62527005  0.49257778  0.74186338  1
  O  O288  1  0.63070252  0.99416275  0.24667604  1
  O  O289  1  0.62911629  0.99508616  0.74665389  1
  O  O290  1  0.37677530  0.00714480  0.25674748  1
  O  O291  1  0.36325731  0.00072539  0.75222561  1
  O  O292  1  0.36463510  0.49902928  0.25591812  1
  O  O293  1  0.37081163  0.50449950  0.75699113  1
  O  O294  1  0.86980735  0.00276908  0.25894813  1
  O  O295  1  0.87668790  0.01956666  0.74879598  1
  O  O296  1  0.87442824  0.50640727  0.25444277  1
  O  O297  1  0.87296207  0.49382892  0.76625852  1
  O  O298  1  0.12036033  0.37238353  0.36421398  1
  O  O299  1  0.12122586  0.36820492  0.87010789  1
  O  O300  1  0.11053106  0.87558713  0.37235683  1
  O  O301  1  0.11703149  0.87052219  0.87445851  1
  O  O302  1  0.62047545  0.36920227  0.37079528  1
  O  O303  1  0.61751856  0.37384976  0.86881910  1
  O  O304  1  0.62202937  0.86949066  0.37058616  1
  O  O305  1  0.61242893  0.86580499  0.88379302  1
  O  O306  1  0.37558678  0.13247440  0.13167123  1
  O  O307  1  0.38300953  0.13220231  0.62733095  1
  O  O308  1  0.37697108  0.63906606  0.12584941  1
  O  O309  1  0.37934849  0.62924871  0.63045521  1
  O  O310  1  0.88831278  0.12476849  0.12597260  1
  O  O311  1  0.88033367  0.13115110  0.63185168  1
  O  O312  1  0.87972393  0.63060501  0.12671376  1
  O  O313  1  0.86316688  0.61196327  0.63857424  1
  O  O314  1  0.25644759  0.26184457  0.12417193  1
  O  O315  1  0.25529400  0.25581246  0.61940495  1
  O  O316  1  0.25772400  0.74558625  0.11294918  1
  O  O317  1  0.25342776  0.75684149  0.61372717  1
  O  O318  1  0.74768633  0.25881533  0.11678480  1
  O  O319  1  0.75539779  0.25509342  0.61752241  1
  O  O320  1  0.75559152  0.75562247  0.12035466  1
  O  O321  1  0.75718451  0.76503718  0.62482762  1
  O  O322  1  0.24973736  0.24193621  0.38228586  1
  O  O323  1  0.23734070  0.25047698  0.87716047  1
  O  O324  1  0.25218600  0.74325716  0.38278671  1
  O  O325  1  0.24313698  0.74635857  0.88711868  1
  O  O326  1  0.74546846  0.24458455  0.38012840  1
  O  O327  1  0.74776406  0.24712686  0.88876816  1
  O  O328  1  0.74453139  0.74316991  0.37675568  1
  O  O329  1  0.73910358  0.74338162  0.88414000  1
  O  O330  1  0.00790472  0.11944229  0.00508438  1
  O  O331  1  0.00590803  0.11538377  0.50331016  1
  O  O332  1  0.00837056  0.61716048  0.00255620  1
  O  O333  1  0.01019062  0.61294451  0.49593914  1
  O  O334  1  0.50765484  0.11964376  0.00334990  1
  O  O335  1  0.50641418  0.12025026  0.50615789  1
  O  O336  1  0.50499964  0.61774591  0.00276383  1
  O  O337  1  0.50596193  0.61895138  0.50251964  1
  O  O338  1  0.49479570  0.37968247  0.49508844  1
  O  O339  1  0.49452993  0.38066921  0.99518923  1
  O  O340  1  0.50104848  0.88076469  0.49442612  1
  O  O341  1  0.49033258  0.87952832  0.99432113  1
  O  O342  1  0.99602212  0.38221760  0.49421135  1
  O  O343  1  1.00364275  0.38577406  0.99411292  1
  O  O344  1  0.99873507  0.88920715  0.48930567  1
  O  O345  1  0.99461818  0.88450285  0.99423722  1
  O  O346  1  0.49512493  0.49334632  0.37953115  1
  O  O347  1  0.49421437  0.49458595  0.88058133  1
  O  O348  1  0.49636105  0.99525883  0.38176646  1
  O  O349  1  0.49840952  0.98937388  0.88386311  1
  O  O350  1  0.99507555  0.49356683  0.38186684  1
  O  O351  1  0.99222673  0.49789419  0.88193529  1
  O  O352  1  0.99485348  0.99467349  0.37916587  1
  O  O353  1  1.00999969  0.99170701  0.88668021  1
  O  O354  1  0.00909028  0.00883506  0.11595621  1
  O  O355  1  0.00495544  0.00424486  0.61587110  1
  O  O356  1  -0.00596810  0.50647144  0.11048046  1
  O  O357  1  0.00008060  0.50092924  0.61068496  1
  O  O358  1  0.50697235  0.00050846  0.11952616  1
  O  O359  1  0.50043645  0.00584557  0.61900376  1
  O  O360  1  0.50530368  0.49975276  0.11897738  1
  O  O361  1  0.50302961  0.50491199  0.61785703  1
  O  O362  1  0.24465209  0.38131982  0.24380195  1
  O  O363  1  0.24573493  0.38060969  0.74497829  1
  O  O364  1  0.24492214  0.88105888  0.25384157  1
  O  O365  1  0.24568363  0.88578578  0.74749873  1
  O  O366  1  0.74346913  0.37487906  0.23994531  1
  O  O367  1  0.74322842  0.37503636  0.74264904  1
  O  O368  1  0.74554648  0.87977603  0.24504392  1
  O  O369  1  0.74874977  0.87610835  0.73732729  1
  O  O370  1  0.25662044  0.12104599  0.25625406  1
  O  O371  1  0.24967183  0.11379733  0.74975025  1
  O  O372  1  0.25050621  0.61501277  0.25346852  1
  O  O373  1  0.25774802  0.61583224  0.76074666  1
  O  O374  1  0.74888586  0.11734222  0.25738584  1
  O  O375  1  0.76553985  0.12928940  0.75218708  1
  O  O376  1  0.75714311  0.62276223  0.25514533  1
  O  O377  1  0.74134739  0.62118760  0.76943136  1
  O  O378  1  0.37088097  0.11992132  0.37031631  1
  O  O379  1  0.37041064  0.12123029  0.87294481  1
  O  O380  1  0.36958496  0.61712015  0.37207756  1
  O  O381  1  0.37019973  0.62001844  0.87268608  1
  O  O382  1  0.86976293  0.11426204  0.37256260  1
  O  O383  1  0.87935275  0.13406485  0.86118077  1
  O  O384  1  0.87085972  0.61785138  0.36554550  1
  O  O385  1  0.85903035  0.61082538  0.88801975  1
  O  O386  1  0.13721371  0.37174642  0.13290852  1
  O  O387  1  0.13160574  0.37668109  0.63110973  1
  O  O388  1  0.11827965  0.89060958  0.11951784  1
  O  O389  1  0.13389439  0.88467324  0.63727085  1
  O  O390  1  0.63177921  0.37967991  0.13016391  1
  O  O391  1  0.62852252  0.37884867  0.62901505  1
  O  O392  1  0.63084459  0.87975156  0.13101231  1
  O  O393  1  0.63822432  0.87578396  0.62634406  1
  O  O394  1  0.12427740  0.26281907  0.25119454  1
  O  O395  1  0.12353839  0.25514492  0.75872892  1
  O  O396  1  0.11744568  0.74962942  0.25026066  1
  O  O397  1  0.13659696  0.76353059  0.76767077  1
  O  O398  1  0.61968095  0.25521779  0.25652687  1
  O  O399  1  0.61875545  0.25685216  0.75155613  1
  O  O400  1  0.62098349  0.75576463  0.25591249  1
  O  O401  1  0.61897109  0.75481908  0.77069239  1
  O  O402  1  0.38009418  0.24534601  0.24629556  1
  O  O403  1  0.38195261  0.25011653  0.74319307  1
  O  O404  1  0.37999079  0.75141875  0.24079402  1
  O  O405  1  0.37276941  0.74309398  0.74435258  1
  O  O406  1  0.88027810  0.24557268  0.24425144  1
  O  O407  1  0.87829821  0.24278968  0.74248950  1
  O  O408  1  0.88151715  0.74391750  0.24103019  1
  O  O409  1  0.87385850  0.73611710  0.78225232  1
  O  O410  1  0.37983764  0.49399222  0.49467400  1
  O  O411  1  0.37946044  0.49538164  0.99527270  1
  O  O412  1  0.38380180  0.99885702  0.49379606  1
  O  O413  1  0.37820759  0.99077458  1.00209971  1
  O  O414  1  0.88364480  0.49368797  0.49215190  1
  O  O415  1  0.88516683  0.49564831  0.99103909  1
  O  O416  1  0.88619118  1.00781534  0.48782072  1
  O  O417  1  0.88811995  0.99630275  1.00701838  1
  O  O418  1  0.11672373  0.00827734  0.00787028  1
  O  O419  1  0.11675200  0.00475436  0.50431555  1
  O  O420  1  0.11536902  0.51160684  -0.01043580  1
  O  O421  1  0.11666778  0.50377256  0.49665298  1
  O  O422  1  0.61953315  0.00742521  0.00735077  1
  O  O423  1  0.61854627  0.00827700  0.50046992  1
  O  O424  1  0.61798336  0.50454026  0.00553864  1
  O  O425  1  0.61824620  0.50610672  0.50228980  1
  O  O426  1  0.36653615  0.37031355  0.12061744  1
  O  O427  1  0.36988375  0.36916649  0.61905728  1
  O  O428  1  0.38023264  0.86478742  0.11377026  1
  O  O429  1  0.36673361  0.86791844  0.62374728  1
  O  O430  1  0.86221049  0.37477650  0.12209727  1
  O  O431  1  0.86983029  0.36980729  0.61824373  1
  O  O432  1  0.87037934  0.86974631  0.11890458  1
  O  O433  1  0.87038897  0.87686418  0.62700391  1
  O  O434  1  0.13191665  0.12430051  0.38087698  1
  O  O435  1  0.12310026  0.13414280  0.88352800  1
  O  O436  1  0.13301599  0.62382345  0.38219771  1
  O  O437  1  0.12937695  0.63576122  0.88499446  1
  O  O438  1  0.63128562  0.13078747  0.38133818  1
  O  O439  1  0.62560580  0.12605400  0.89095892  1
  O  O440  1  0.62932959  0.62835844  0.38256001  1
  O  O441  1  0.62761327  0.63069376  0.88336477  1
