# generated using pymatgen
data_V93Zn93O256
_symmetry_space_group_name_H-M   'P 1'
_cell_length_a   17.05148426
_cell_length_b   17.05204666
_cell_length_c   17.05129692
_cell_angle_alpha   90.03671280
_cell_angle_beta   89.91005819
_cell_angle_gamma   89.97463288
_symmetry_Int_Tables_number   1
_chemical_formula_structural   V93Zn93O256
_chemical_formula_sum   'V93 Zn93 O256'
_cell_volume   4957.87360610
_cell_formula_units_Z   1
loop_
 _symmetry_equiv_pos_site_id
 _symmetry_equiv_pos_as_xyz
  1  'x, y, z'
loop_
 _atom_site_type_symbol
 _atom_site_label
 _atom_site_symmetry_multiplicity
 _atom_site_fract_x
 _atom_site_fract_y
 _atom_site_fract_z
 _atom_site_occupancy
  V  V0  1  -0.00033473  0.25074938  0.75084447  1
  V  V1  1  0.12533209  0.62556805  -0.00218505  1
  V  V2  1  0.50044773  0.62414709  0.62394977  1
  V  V3  1  -0.00004128  0.87615845  0.37378068  1
  V  V4  1  0.12595683  0.25052968  0.87715422  1
  V  V5  1  0.74953587  0.12485831  0.37528589  1
  V  V6  1  -0.00122303  0.25127757  0.25049477  1
  V  V7  1  0.37385053  0.37480903  0.50028959  1
  V  V8  1  0.75032599  -0.00040567  0.24998317  1
  V  V9  1  0.12554307  0.74909532  0.37417248  1
  V  V10  1  0.49408453  0.13009463  0.13792384  1
  V  V11  1  0.62554525  0.87346984  0.24907832  1
  V  V12  1  0.37523338  0.25004151  0.62583381  1
  V  V13  1  0.74829288  0.74229828  0.49379910  1
  V  V14  1  -0.00051057  0.37455103  0.87565652  1
  V  V15  1  0.12644045  0.87490372  0.74945549  1
  V  V16  1  0.50076478  0.12513121  0.62567778  1
  V  V17  1  0.25060422  0.74597702  -0.00321405  1
  V  V18  1  0.12492600  0.00146527  0.12383847  1
  V  V19  1  0.62160256  0.25013712  0.37408462  1
  V  V20  1  0.75115549  0.74921068  -0.00147485  1
  V  V21  1  0.37470198  0.74994290  0.12349394  1
  V  V22  1  0.49956992  0.87610474  0.87640958  1
  V  V23  1  0.00167166  0.00127757  0.49989902  1
  V  V24  1  0.00149089  0.12568728  0.62398536  1
  V  V25  1  0.24894411  0.62558792  0.37505956  1
  V  V26  1  0.25237754  0.12529943  0.87742804  1
  V  V27  1  -0.00067700  0.62527899  0.12527378  1
  V  V28  1  0.49450663  0.49630962  0.00099739  1
  V  V29  1  0.87352937  0.37592455  0.00129980  1
  V  V30  1  0.74887322  0.24906873  0.00053307  1
  V  V31  1  0.37354640  0.62483650  0.75273007  1
  V  V32  1  0.87559779  0.00034687  0.37460820  1
  V  V33  1  0.87653594  -0.00038660  0.87412001  1
  V  V34  1  0.75121328  0.87471135  0.12345552  1
  V  V35  1  0.12547857  0.24860236  0.37731094  1
  V  V36  1  0.25646736  0.00777953  0.25265111  1
  V  V37  1  0.74865157  0.37508882  0.62612229  1
  V  V38  1  0.49775254  0.49916676  0.50125170  1
  V  V39  1  0.37274044  0.49972932  0.37563443  1
  V  V40  1  0.12487649  0.87434580  0.24877378  1
  V  V41  1  0.62402862  0.24909842  0.87624667  1
  V  V42  1  0.62588512  0.74800063  0.87349664  1
  V  V43  1  0.50209042  0.87228102  0.37578687  1
  V  V44  1  0.62221178  0.49819679  0.12535466  1
  V  V45  1  0.74976835  0.62404678  0.87489356  1
  V  V46  1  0.49792506  0.37054172  0.37395362  1
  V  V47  1  0.87503508  0.12476260  0.75097839  1
  V  V48  1  0.49932064  0.24905266  0.75136934  1
  V  V49  1  0.87466815  0.37582274  0.50001490  1
  V  V50  1  -0.00143885  0.37650353  0.37508196  1
  V  V51  1  0.74766100  0.37616201  0.12674213  1
  V  V52  1  0.87603258  0.87498163  -0.00135688  1
  V  V53  1  0.75140128  0.87390304  0.62378948  1
  V  V54  1  0.37508878  0.24948062  0.13344096  1
  V  V55  1  0.75238379  -0.00077714  0.74974193  1
  V  V56  1  0.62332244  0.00190947  0.12149696  1
  V  V57  1  0.37098542  0.50061804  0.87793016  1
  V  V58  1  0.87439831  0.12649951  0.24988092  1
  V  V59  1  0.25067624  0.75111071  0.49861952  1
  V  V60  1  0.50003672  -0.00172951  0.50154191  1
  V  V61  1  -0.00063359  0.50064587  0.00006246  1
  V  V62  1  0.75084073  0.24903638  0.50043143  1
  V  V63  1  0.62659129  0.87348224  0.75024117  1
  V  V64  1  0.12838804  0.74599690  0.87387454  1
  V  V65  1  -0.00058203  0.74921998  0.24924557  1
  V  V66  1  0.62573683  0.12441873  0.50099518  1
  V  V67  1  0.24864891  0.50262769  0.75321195  1
  V  V68  1  0.50015632  0.74964666  0.24936172  1
  V  V69  1  0.24887216  0.24998412  0.50078895  1
  V  V70  1  0.87338857  0.50065487  0.87504957  1
  V  V71  1  0.88185729  0.74573604  0.62491104  1
  V  V72  1  0.88128318  0.62453881  0.74683173  1
  V  V73  1  0.49358698  0.37299054  0.87935233  1
  V  V74  1  0.25198553  0.87574749  0.62403698  1
  V  V75  1  0.00140676  0.87516096  0.87361830  1
  V  V76  1  -0.00089371  0.50782489  0.50439342  1
  V  V77  1  0.24973196  0.37653727  0.62572755  1
  V  V78  1  0.12478529  0.49954759  0.12525549  1
  V  V79  1  0.86731778  0.50410494  0.37543546  1
  V  V80  1  0.25188847  0.00134318  0.74971125  1
  V  V81  1  0.25081329  0.87468137  0.12399749  1
  V  V82  1  0.49915158  0.62412114  0.12420553  1
  V  V83  1  0.12104633  0.50675611  0.62526186  1
  V  V84  1  0.37398935  0.62490120  0.25088519  1
  V  V85  1  0.87558599  0.25103827  0.62568000  1
  V  V86  1  0.25522494  0.37510336  0.11862534  1
  V  V87  1  0.86738310  0.62469443  0.25258957  1
  V  V88  1  0.00007504  0.12617547  0.12419991  1
  V  V89  1  0.37561640  0.74957773  0.62375808  1
  V  V90  1  0.61841298  0.36997242  0.25046471  1
  V  V91  1  0.12442940  0.37700374  0.24905084  1
  V  V92  1  0.62465794  0.49922057  0.62643269  1
  Zn  Zn93  1  0.24870390  0.50051563  0.24978840  1
  Zn  Zn94  1  0.74329384  0.50399063  0.25548904  1
  Zn  Zn95  1  0.38344696  0.00680767  0.36822096  1
  Zn  Zn96  1  0.87506895  0.74938710  0.12423663  1
  Zn  Zn97  1  0.12628551  0.12646504  0.00080300  1
  Zn  Zn98  1  0.63286714  0.73711495  0.36697736  1
  Zn  Zn99  1  0.87513777  0.87318001  0.49902771  1
  Zn  Zn100  1  0.74944501  0.49937691  0.75108021  1
  Zn  Zn101  1  0.12375679  0.37694238  0.74999097  1
  Zn  Zn102  1  0.50069553  0.74992418  0.74913811  1
  Zn  Zn103  1  0.62557502  0.37536356  0.75176581  1
  Zn  Zn104  1  0.12705043  0.00149933  0.62331922  1
  Zn  Zn105  1  0.00028083  0.00094174  -0.00139597  1
  Zn  Zn106  1  0.87412506  0.25166116  0.12552103  1
  Zn  Zn107  1  0.62834255  0.61888895  0.49157568  1
  Zn  Zn108  1  0.62639491  0.00023261  0.62663480  1
  Zn  Zn109  1  0.26033506  0.25397971  -0.00236903  1
  Zn  Zn110  1  0.37560432  0.87541104  -0.00174573  1
  Zn  Zn111  1  0.74957071  0.12347015  0.87600122  1
  Zn  Zn112  1  0.37667508  0.12513938  0.75200857  1
  Zn  Zn113  1  0.12868141  0.12471646  0.50094340  1
  Zn  Zn114  1  0.12085342  0.62904487  0.50277027  1
  Zn  Zn115  1  0.26216724  0.13219486  0.37224179  1
  Zn  Zn116  1  0.37656292  0.00084896  0.87795170  1
  Zn  Zn117  1  0.62498687  0.62322607  -0.00104444  1
  Zn  Zn118  1  0.37572634  0.87543749  0.49805981  1
  Zn  Zn119  1  0.62156279  0.12509809  0.00098607  1
  Zn  Zn120  1  0.00534610  0.74702730  0.74345655  1
  Zn  Zn121  1  0.49386477  0.00327894  0.00072138  1
  Zn  Zn122  1  0.18805445  0.19148158  0.18785388  1
  Zn  Zn123  1  0.18631262  0.18705664  0.68871557  1
  Zn  Zn124  1  0.18768412  0.68655458  0.18616172  1
  Zn  Zn125  1  0.19067176  0.68724070  0.68675629  1
  Zn  Zn126  1  0.68496589  0.18753486  0.18759249  1
  Zn  Zn127  1  0.68728076  0.18711271  0.68908514  1
  Zn  Zn128  1  0.68628463  0.68708593  0.18304560  1
  Zn  Zn129  1  0.69083557  0.68526267  0.68659670  1
  Zn  Zn130  1  0.31065797  0.31399713  0.30864971  1
  Zn  Zn131  1  0.31252796  0.31425352  0.81106561  1
  Zn  Zn132  1  0.31436162  0.81643250  0.31176090  1
  Zn  Zn133  1  0.31315264  0.81273241  0.81180328  1
  Zn  Zn134  1  0.80923822  0.31481963  0.31186477  1
  Zn  Zn135  1  0.81122336  0.31427034  0.81239087  1
  Zn  Zn136  1  0.81511267  0.81354177  0.31095331  1
  Zn  Zn137  1  0.81444207  0.81038162  0.81129967  1
  Zn  Zn138  1  0.18596648  0.43814574  0.43867589  1
  Zn  Zn139  1  0.18641101  0.43720269  0.93808447  1
  Zn  Zn140  1  0.18719087  0.93592888  0.43604359  1
  Zn  Zn141  1  0.18842809  0.93565963  0.93749464  1
  Zn  Zn142  1  0.68526546  0.43575701  0.43936138  1
  Zn  Zn143  1  0.68441343  0.43678673  0.93911404  1
  Zn  Zn144  1  0.68599318  0.93409172  0.43795289  1
  Zn  Zn145  1  0.68901018  0.93543559  0.93606541  1
  Zn  Zn146  1  0.31583451  0.06395061  0.06099170  1
  Zn  Zn147  1  0.31484903  0.06553962  0.56017901  1
  Zn  Zn148  1  0.31080081  0.56321308  0.06331111  1
  Zn  Zn149  1  0.30988737  0.56438936  0.56312051  1
  Zn  Zn150  1  0.81277084  0.06239411  0.06131039  1
  Zn  Zn151  1  0.81541922  0.06221493  0.56310975  1
  Zn  Zn152  1  0.81081172  0.56283020  0.06450552  1
  Zn  Zn153  1  0.81270253  0.56250610  0.56448576  1
  Zn  Zn154  1  0.43463151  0.43573655  0.18957370  1
  Zn  Zn155  1  0.43819862  0.43536016  0.69071288  1
  Zn  Zn156  1  0.43858884  0.93617912  0.18499372  1
  Zn  Zn157  1  0.43755480  0.93709200  0.68906630  1
  Zn  Zn158  1  0.93545069  0.43935680  0.18797175  1
  Zn  Zn159  1  0.93728976  0.43769192  0.68859501  1
  Zn  Zn160  1  0.93699706  0.93772851  0.18665393  1
  Zn  Zn161  1  0.93892692  0.93531066  0.68695074  1
  Zn  Zn162  1  0.06472011  0.06377274  0.31080571  1
  Zn  Zn163  1  0.06423901  0.06297115  0.81127788  1
  Zn  Zn164  1  0.05879751  0.56324142  0.31368978  1
  Zn  Zn165  1  0.06137680  0.56331686  0.81327654  1
  Zn  Zn166  1  0.56463455  0.06078425  0.31362517  1
  Zn  Zn167  1  0.56452574  0.06121727  0.81163095  1
  Zn  Zn168  1  0.56077472  0.56026570  0.31359113  1
  Zn  Zn169  1  0.56043723  0.56255125  0.81191654  1
  Zn  Zn170  1  0.43668845  0.18568793  0.43519345  1
  Zn  Zn171  1  0.43644625  0.18581159  0.95001570  1
  Zn  Zn172  1  0.43861898  0.68635509  0.43780251  1
  Zn  Zn173  1  0.43913675  0.68635599  0.93655575  1
  Zn  Zn174  1  0.93810975  0.18688342  0.43768192  1
  Zn  Zn175  1  0.93677264  0.18702197  0.93822016  1
  Zn  Zn176  1  0.93466404  0.68839826  0.43584344  1
  Zn  Zn177  1  0.93884629  0.68905393  0.93449799  1
  Zn  Zn178  1  0.06436645  0.31347419  0.06201790  1
  Zn  Zn179  1  0.06244687  0.31837544  0.56344057  1
  Zn  Zn180  1  0.06174778  0.81300754  0.06121193  1
  Zn  Zn181  1  0.06513930  0.81629114  0.56041203  1
  Zn  Zn182  1  0.55814808  0.31064621  0.06369105  1
  Zn  Zn183  1  0.56200067  0.31234812  0.56142683  1
  Zn  Zn184  1  0.56430996  0.81195848  0.05970954  1
  Zn  Zn185  1  0.56516009  0.80983806  0.56343177  1
  O  O186  1  0.11637233  0.11862181  0.12642429  1
  O  O187  1  0.11649228  0.12300791  0.62256169  1
  O  O188  1  0.11880827  0.61940814  0.11898860  1
  O  O189  1  0.12960308  0.61123026  0.62333943  1
  O  O190  1  0.61707180  0.11678557  0.12580276  1
  O  O191  1  0.61955434  0.12395958  0.61868246  1
  O  O192  1  0.61610005  0.61633742  0.12379617  1
  O  O193  1  0.62032553  0.61429016  0.62238339  1
  O  O194  1  0.37787992  0.37897653  0.38029918  1
  O  O195  1  0.38456737  0.38588727  0.87077621  1
  O  O196  1  0.38975842  0.88120743  0.37511069  1
  O  O197  1  0.38797629  0.87386212  0.87396840  1
  O  O198  1  0.87921067  0.38290053  0.38009977  1
  O  O199  1  0.87971444  0.38041438  0.88141841  1
  O  O200  1  0.88261299  0.88335173  0.37499062  1
  O  O201  1  0.88140678  0.87974724  0.87813230  1
  O  O202  1  0.24696148  -0.00164704  0.35839130  1
  O  O203  1  0.24786910  0.00814568  0.86661532  1
  O  O204  1  0.25511569  0.50626759  0.37445798  1
  O  O205  1  0.25937359  0.49281042  0.86621437  1
  O  O206  1  0.75423464  0.00464658  0.37019504  1
  O  O207  1  0.75744053  0.00054079  0.86770272  1
  O  O208  1  0.76372584  0.49524827  0.37768746  1
  O  O209  1  0.75558763  0.50445380  0.87582007  1
  O  O210  1  0.24324238  0.49343164  0.12613815  1
  O  O211  1  0.24273681  0.49551614  0.63262702  1
  O  O212  1  0.24215382  0.99699080  0.13348132  1
  O  O213  1  0.25094563  0.99619822  0.63313180  1
  O  O214  1  0.73982769  0.49239669  0.12405893  1
  O  O215  1  0.74000243  0.49385460  0.62363943  1
  O  O216  1  0.74315756  0.99604818  0.13061477  1
  O  O217  1  0.75246831  0.98911749  0.62922549  1
  O  O218  1  0.00361764  0.37040054  0.25495074  1
  O  O219  1  -0.00014896  0.36841066  0.75802860  1
  O  O220  1  0.00493879  0.87008975  0.25388310  1
  O  O221  1  0.00875313  0.87247933  0.75514250  1
  O  O222  1  0.51079644  0.37918722  0.25735093  1
  O  O223  1  0.50194399  0.36833629  0.76224345  1
  O  O224  1  0.50548488  0.87020316  0.25647684  1
  O  O225  1  0.50764272  0.87312182  0.75803959  1
  O  O226  1  0.50530418  0.11898523  0.23649375  1
  O  O227  1  0.49923067  0.13072748  0.74427964  1
  O  O228  1  0.49298962  0.63006272  0.24349829  1
  O  O229  1  0.48898944  0.62459237  0.74279835  1
  O  O230  1  0.99484120  0.13055892  0.24265435  1
  O  O231  1  0.99462461  0.13089997  0.74423113  1
  O  O232  1  0.99138648  0.63006658  0.24437737  1
  O  O233  1  0.98604598  0.62804518  0.75470534  1
  O  O234  1  0.37322101  0.24769321  0.02070329  1
  O  O235  1  0.36884679  0.25676209  0.50660472  1
  O  O236  1  0.36572155  0.74841312  0.00381078  1
  O  O237  1  0.36902901  0.75195139  0.50613989  1
  O  O238  1  0.86467481  0.25665225  0.00017596  1
  O  O239  1  0.87059020  0.25536730  0.50524237  1
  O  O240  1  0.86931582  0.75681660  -0.00007086  1
  O  O241  1  0.86573386  0.75106826  0.50661235  1
  O  O242  1  0.12881486  0.25384579  0.49127238  1
  O  O243  1  0.12598745  0.24910971  0.98601600  1
  O  O244  1  0.13103291  0.74942224  0.49263400  1
  O  O245  1  0.13156528  0.74615258  0.99312510  1
  O  O246  1  0.63231826  0.24439480  0.49525850  1
  O  O247  1  0.63290255  0.25215674  0.99245789  1
  O  O248  1  0.64130036  0.74789483  0.50120832  1
  O  O249  1  0.63301805  0.74695021  0.99205155  1
  O  O250  1  0.49556352  0.23665044  0.12564632  1
  O  O251  1  0.49557514  0.24560278  0.63032238  1
  O  O252  1  0.49519613  0.74490910  0.12882260  1
  O  O253  1  0.49421920  0.74306993  0.62660867  1
  O  O254  1  1.00038320  0.24144738  0.13083543  1
  O  O255  1  0.99465152  0.24770754  0.63013558  1
  O  O256  1  0.99931379  0.74385305  0.13136102  1
  O  O257  1  0.98609650  0.75725209  0.62234019  1
  O  O258  1  0.00612421  0.25631813  0.37131023  1
  O  O259  1  0.00673298  0.25393371  0.87101176  1
  O  O260  1  0.00483388  0.75607119  0.36959977  1
  O  O261  1  0.01249749  0.75735106  0.87319935  1
  O  O262  1  0.50977243  0.25884054  0.38554274  1
  O  O263  1  0.50450365  0.25586416  0.87477917  1
  O  O264  1  0.50040501  0.75922210  0.36891502  1
  O  O265  1  0.50700540  0.75730582  0.87240738  1
  O  O266  1  0.24660746  0.13413745  0.49682419  1
  O  O267  1  0.24639522  0.12672823  0.98850185  1
  O  O268  1  0.24777273  0.63301952  0.49269008  1
  O  O269  1  0.24232155  0.63842650  1.00599752  1
  O  O270  1  0.74652016  0.12918202  0.49521035  1
  O  O271  1  0.74779746  0.13765929  0.99906632  1
  O  O272  1  0.75149407  0.63979396  0.50375795  1
  O  O273  1  0.74906855  0.63077555  0.99317313  1
  O  O274  1  0.24349340  0.37403798  0.01417796  1
  O  O275  1  0.25509695  0.37056869  0.50624432  1
  O  O276  1  0.24946625  0.86243228  0.00588741  1
  O  O277  1  0.25276916  0.87031093  0.50506756  1
  O  O278  1  0.75324513  0.36711903  0.00552364  1
  O  O279  1  0.75547998  0.36808666  0.50575041  1
  O  O280  1  0.75650283  0.86898858  0.00410870  1
  O  O281  1  0.75213499  0.86768804  0.50955916  1
  O  O282  1  0.12268151  0.49482285  0.24318088  1
  O  O283  1  0.13240486  0.50125974  0.74515893  1
  O  O284  1  0.13129137  0.99483583  0.24067908  1
  O  O285  1  0.13658876  0.99445021  0.74833700  1
  O  O286  1  0.62459263  0.48929844  0.24404937  1
  O  O287  1  0.62487463  0.49793115  0.73800387  1
  O  O288  1  0.63175091  0.99360274  0.24111276  1
  O  O289  1  0.63459095  0.99234630  0.74789424  1
  O  O290  1  0.35834075  -0.00581033  0.24632861  1
  O  O291  1  0.36279416  0.00195735  0.75394701  1
  O  O292  1  0.37346507  0.50737576  0.25816348  1
  O  O293  1  0.36831903  0.50577433  0.75656408  1
  O  O294  1  0.86977987  0.00638355  0.25504409  1
  O  O295  1  0.87174759  0.00478970  0.75449397  1
  O  O296  1  0.87335820  0.50719388  0.25934718  1
  O  O297  1  0.87394174  0.50773324  0.75592265  1
  O  O298  1  0.11878441  0.36798218  0.37039122  1
  O  O299  1  0.11849959  0.36724136  0.87341145  1
  O  O300  1  0.11886107  0.86873288  0.36789135  1
  O  O301  1  0.12139874  0.86685131  0.86942078  1
  O  O302  1  0.61932298  0.37097213  0.36887645  1
  O  O303  1  0.61394823  0.36562568  0.87509712  1
  O  O304  1  0.61646483  0.87088617  0.36773879  1
  O  O305  1  0.61954130  0.86853658  0.86941910  1
  O  O306  1  0.38886806  0.12752853  0.12673026  1
  O  O307  1  0.38306182  0.13304067  0.62667863  1
  O  O308  1  0.37971175  0.63045938  0.13060770  1
  O  O309  1  0.37975065  0.62835352  0.63340382  1
  O  O310  1  0.88440647  0.12583573  0.13099078  1
  O  O311  1  0.88129258  0.13209820  0.63059816  1
  O  O312  1  0.88190754  0.62469317  0.13413159  1
  O  O313  1  0.86853140  0.63397509  0.63536098  1
  O  O314  1  0.25384103  0.25792074  0.12295996  1
  O  O315  1  0.25398359  0.25654740  0.62190274  1
  O  O316  1  0.25395995  0.75508953  0.11724309  1
  O  O317  1  0.25553656  0.75541699  0.61860441  1
  O  O318  1  0.74908051  0.25607162  0.11562026  1
  O  O319  1  0.75597233  0.25434879  0.61991833  1
  O  O320  1  0.75150237  0.75733015  0.11711758  1
  O  O321  1  0.75893594  0.75705093  0.61654890  1
  O  O322  1  0.23966804  0.25374078  0.38043388  1
  O  O323  1  0.24302938  0.24433408  0.87389317  1
  O  O324  1  0.24552028  0.74716193  0.37853227  1
  O  O325  1  0.23923134  0.75639742  0.88403042  1
  O  O326  1  0.74441299  0.24433402  0.38162314  1
  O  O327  1  0.74077204  0.25209541  0.88364959  1
  O  O328  1  0.75209210  0.75842363  0.39108003  1
  O  O329  1  0.74561071  0.74448443  0.87938831  1
  O  O330  1  0.00177145  0.12335267  0.01215526  1
  O  O331  1  0.00109617  0.11667027  0.50470824  1
  O  O332  1  0.00448776  0.61996163  0.00494073  1
  O  O333  1  -0.00047661  0.61141131  0.49543086  1
  O  O334  1  0.50554795  0.11970133  0.01444767  1
  O  O335  1  0.50716166  0.11631632  0.50556252  1
  O  O336  1  0.50115406  0.61412629  0.00554667  1
  O  O337  1  0.49876233  0.61605854  0.50814442  1
  O  O338  1  0.49241449  0.38030020  0.49558616  1
  O  O339  1  0.50167073  0.38489778  0.99142003  1
  O  O340  1  0.50388685  0.88099044  0.49278188  1
  O  O341  1  0.50084350  0.87657935  0.98805916  1
  O  O342  1  0.99265516  0.38440140  0.49482030  1
  O  O343  1  0.99393533  0.38055577  0.99558743  1
  O  O344  1  0.99839401  0.88554752  0.49277449  1
  O  O345  1  0.99428644  0.87766664  0.99301341  1
  O  O346  1  0.49153439  0.49131875  0.38224982  1
  O  O347  1  0.49274013  0.49234716  0.88144749  1
  O  O348  1  0.50487048  0.98997689  0.38349696  1
  O  O349  1  0.50133369  0.98909175  0.87619010  1
  O  O350  1  0.99095483  0.49454542  0.38369947  1
  O  O351  1  0.99446088  0.49445535  0.88126424  1
  O  O352  1  0.99644019  0.99734493  0.38016622  1
  O  O353  1  0.99556189  0.99401820  0.87567042  1
  O  O354  1  0.00888109  0.00923600  0.12736787  1
  O  O355  1  -0.00026408  0.00500788  0.61483888  1
  O  O356  1  0.00492902  0.50465942  0.11863037  1
  O  O357  1  0.00858139  0.49288859  0.61578337  1
  O  O358  1  0.50925218  0.00668175  0.12554163  1
  O  O359  1  0.50329757  0.00414709  0.61784328  1
  O  O360  1  0.50044808  0.50255402  0.11730168  1
  O  O361  1  0.50592564  0.50236414  0.62132541  1
  O  O362  1  0.24052295  0.37899049  0.23980832  1
  O  O363  1  0.24945191  0.38766670  0.74434171  1
  O  O364  1  0.24308303  0.88260519  0.24328202  1
  O  O365  1  0.24639714  0.88318911  0.74543568  1
  O  O366  1  0.73868841  0.37904358  0.24489489  1
  O  O367  1  0.74686194  0.37820606  0.74206434  1
  O  O368  1  0.74596706  0.88004464  0.24393798  1
  O  O369  1  0.74752971  0.87844854  0.74175426  1
  O  O370  1  0.24316875  0.11015188  0.24998879  1
  O  O371  1  0.25059270  0.11736038  0.75836303  1
  O  O372  1  0.25636787  0.62456478  0.25628245  1
  O  O373  1  0.26119507  0.61250866  0.74476488  1
  O  O374  1  0.75432219  0.11993962  0.25560295  1
  O  O375  1  0.75781899  0.11848326  0.75065446  1
  O  O376  1  0.76291286  0.62329560  0.24313211  1
  O  O377  1  0.76111566  0.62233537  0.75694608  1
  O  O378  1  0.37361668  0.11828694  0.37589549  1
  O  O379  1  0.36339894  0.12643696  0.87421960  1
  O  O380  1  0.36954358  0.61993049  0.37000808  1
  O  O381  1  0.38220325  0.61310619  0.86342994  1
  O  O382  1  0.86913857  0.12035700  0.36949011  1
  O  O383  1  0.87413188  0.11878691  0.86830301  1
  O  O384  1  0.88099287  0.61524349  0.36403122  1
  O  O385  1  0.86994195  0.62017428  0.86799400  1
  O  O386  1  0.13017750  0.38058948  0.13007681  1
  O  O387  1  0.13115560  0.38700734  0.62845689  1
  O  O388  1  0.12904078  0.88326535  0.12915243  1
  O  O389  1  0.13387724  0.87720625  0.63152577  1
  O  O390  1  0.62558996  0.37758824  0.13307072  1
  O  O391  1  0.62915252  0.38288104  0.62586238  1
  O  O392  1  0.63001942  0.88277146  0.12950925  1
  O  O393  1  0.63719280  0.87427554  0.63076570  1
  O  O394  1  0.11868191  0.25662532  0.25877719  1
  O  O395  1  0.11907564  0.25248379  0.76109988  1
  O  O396  1  0.11945418  0.75493536  0.25402414  1
  O  O397  1  0.12741078  0.75388180  0.75737052  1
  O  O398  1  0.63127803  0.26191111  0.25817357  1
  O  O399  1  0.61928515  0.25116566  0.76096738  1
  O  O400  1  0.61865001  0.75601161  0.24813499  1
  O  O401  1  0.62583392  0.75531382  0.75535633  1
  O  O402  1  0.36817865  0.25000638  0.23529913  1
  O  O403  1  0.38160692  0.24966696  0.74328447  1
  O  O404  1  0.38049511  0.74519363  0.24372619  1
  O  O405  1  0.37294515  0.73833500  0.74449499  1
  O  O406  1  0.88009953  0.24476196  0.24930135  1
  O  O407  1  0.87996961  0.24528494  0.74553442  1
  O  O408  1  0.88093439  0.74122379  0.24921014  1
  O  O409  1  0.87694434  0.74209335  0.74156213  1
  O  O410  1  0.37759179  0.49379986  0.49605620  1
  O  O411  1  0.38288530  0.50801430  0.98963848  1
  O  O412  1  0.39122305  0.99672704  0.50064210  1
  O  O413  1  0.37553265  0.99268857  0.99542615  1
  O  O414  1  0.88057016  0.49642343  0.49535614  1
  O  O415  1  0.88022206  0.49540231  0.99501846  1
  O  O416  1  0.88573910  0.99952881  0.49318022  1
  O  O417  1  0.87592958  0.99345061  0.99249317  1
  O  O418  1  0.12480888  0.00081802  0.01380866  1
  O  O419  1  0.11328006  0.00202367  0.49873978  1
  O  O420  1  0.11862999  0.50612562  0.00382999  1
  O  O421  1  0.11587637  0.50097395  0.50771353  1
  O  O422  1  0.62900994  -0.00018794  0.01381715  1
  O  O423  1  0.61659229  0.00496397  0.50211565  1
  O  O424  1  0.61157166  0.50006808  0.00587062  1
  O  O425  1  0.61753486  0.49765013  0.51090378  1
  O  O426  1  0.36337968  0.36904020  0.13070699  1
  O  O427  1  0.36999404  0.37059248  0.62025213  1
  O  O428  1  0.36945094  0.86603825  0.12278126  1
  O  O429  1  0.36952181  0.86709127  0.62495916  1
  O  O430  1  0.86770162  0.37424397  0.11910873  1
  O  O431  1  0.86946532  0.37021377  0.61942969  1
  O  O432  1  0.86878563  0.87460979  0.11842438  1
  O  O433  1  0.86546686  0.86598639  0.62490927  1
  O  O434  1  0.12537251  0.14085029  0.37488763  1
  O  O435  1  0.13306642  0.13394047  0.87493558  1
  O  O436  1  0.13025463  0.63212501  0.37544088  1
  O  O437  1  0.11931170  0.63744849  0.88117085  1
  O  O438  1  0.63111801  0.12955095  0.38059594  1
  O  O439  1  0.62650028  0.13753476  0.87795051  1
  O  O440  1  0.62188256  0.62557786  0.37881224  1
  O  O441  1  0.63098546  0.62941074  0.87459677  1
