# generated using pymatgen
data_V93Zn93O256
_symmetry_space_group_name_H-M   'P 1'
_cell_length_a   17.06629414
_cell_length_b   17.07139870
_cell_length_c   17.06321999
_cell_angle_alpha   89.96487261
_cell_angle_beta   90.03206764
_cell_angle_gamma   89.95427380
_symmetry_Int_Tables_number   1
_chemical_formula_structural   V93Zn93O256
_chemical_formula_sum   'V93 Zn93 O256'
_cell_volume   4971.28925954
_cell_formula_units_Z   1
loop_
 _symmetry_equiv_pos_site_id
 _symmetry_equiv_pos_as_xyz
  1  'x, y, z'
loop_
 _atom_site_type_symbol
 _atom_site_label
 _atom_site_symmetry_multiplicity
 _atom_site_fract_x
 _atom_site_fract_y
 _atom_site_fract_z
 _atom_site_occupancy
  V  V0  1  0.62456353  0.50002212  0.62453646  1
  V  V1  1  0.37871711  0.74867843  0.62505607  1
  V  V2  1  0.12598580  0.37508745  0.25029166  1
  V  V3  1  0.62489121  0.49880753  0.12440819  1
  V  V4  1  0.25002856  -0.00038327  0.25061970  1
  V  V5  1  0.12579479  0.25076637  0.37565870  1
  V  V6  1  0.25055700  0.87451943  0.12623649  1
  V  V7  1  0.49638572  0.01502445  0.50015426  1
  V  V8  1  0.87522936  0.75030677  0.12226583  1
  V  V9  1  0.00009622  0.25015027  0.74931223  1
  V  V10  1  0.24927848  0.37482675  0.62405398  1
  V  V11  1  0.37497298  0.49914825  0.87499251  1
  V  V12  1  0.87512303  0.12236865  0.25024843  1
  V  V13  1  0.75115682  0.12461027  0.87563410  1
  V  V14  1  0.00231847  0.74253960  0.74185961  1
  V  V15  1  0.87516447  0.87436224  -0.00370915  1
  V  V16  1  0.12621915  -0.00052297  0.12465893  1
  V  V17  1  0.00018298  0.37529472  0.87535157  1
  V  V18  1  0.74984875  0.50025557  0.74889383  1
  V  V19  1  0.50010130  0.87352717  0.87678180  1
  V  V20  1  0.37484805  0.62417566  0.25088142  1
  V  V21  1  0.62506782  0.37468121  0.74958531  1
  V  V22  1  0.87604172  0.24978678  0.12455046  1
  V  V23  1  0.38791204  0.87368382  0.49724531  1
  V  V24  1  -0.00045470  0.37701812  0.37528953  1
  V  V25  1  0.24974270  0.49934333  0.24989540  1
  V  V26  1  0.61756017  0.00451771  0.62980281  1
  V  V27  1  0.62607109  0.12389905  0.00232615  1
  V  V28  1  -0.00581564  0.87415207  0.37828093  1
  V  V29  1  0.74941771  0.62399329  0.87297932  1
  V  V30  1  0.62653337  -0.00367093  0.13239748  1
  V  V31  1  0.50108692  0.37267679  0.37446664  1
  V  V32  1  0.12729371  -0.00028315  0.62661551  1
  V  V33  1  0.24872727  0.62528559  0.37608417  1
  V  V34  1  0.37558756  0.74946187  0.12478489  1
  V  V35  1  0.62577230  0.87670689  0.74741278  1
  V  V36  1  0.12482416  0.12615957  0.50028857  1
  V  V37  1  0.37632093  0.24391964  0.62658714  1
  V  V38  1  -0.00591824  -0.00465497  0.50004016  1
  V  V39  1  0.62462307  0.37256546  0.25087307  1
  V  V40  1  0.25202882  0.87496863  0.62307586  1
  V  V41  1  0.00118541  0.87400628  0.87366031  1
  V  V42  1  0.37445492  0.37437962  0.50085106  1
  V  V43  1  0.75069168  0.25022601  0.00082751  1
  V  V44  1  0.37653330  0.24863356  0.12634613  1
  V  V45  1  0.50084903  -0.00134283  0.00204644  1
  V  V46  1  0.74964039  0.49983306  0.24860873  1
  V  V47  1  0.50068482  0.12335644  0.12839147  1
  V  V48  1  0.87917132  0.62352360  0.73932098  1
  V  V49  1  0.49962249  0.37433049  0.87536358  1
  V  V50  1  0.86978886  0.37178499  0.49773450  1
  V  V51  1  0.37432339  0.37366514  0.00124939  1
  V  V52  1  0.74860644  0.87501440  0.12502538  1
  V  V53  1  0.62497752  0.62433107  -0.00137711  1
  V  V54  1  0.37636737  0.12347109  0.25177633  1
  V  V55  1  0.63451422  0.13149584  0.50450393  1
  V  V56  1  0.87064742  0.24945192  0.62090155  1
  V  V57  1  0.87472335  0.62396017  0.24928831  1
  V  V58  1  0.12506290  0.12420995  -0.00094837  1
  V  V59  1  0.11765760  0.50417781  0.62474228  1
  V  V60  1  0.37463380  0.87361771  0.00072649  1
  V  V61  1  0.00068715  0.24986154  0.24870398  1
  V  V62  1  -0.00063031  0.49990591  -0.00077654  1
  V  V63  1  0.25089122  0.12371625  0.37433834  1
  V  V64  1  0.87468394  0.49934992  0.37408059  1
  V  V65  1  0.12489672  0.37500989  0.74905865  1
  V  V66  1  0.25264510  0.12424680  0.87310231  1
  V  V67  1  0.87502354  0.49892844  0.87446380  1
  V  V68  1  0.12449529  0.62380373  -0.00052236  1
  V  V69  1  0.37536829  -0.00064374  0.87485472  1
  V  V70  1  0.49972141  0.62472900  0.12633501  1
  V  V71  1  0.25064222  0.37411551  0.12610615  1
  V  V72  1  0.62780950  0.75022389  0.87442886  1
  V  V73  1  0.62486764  0.24958341  0.87551627  1
  V  V74  1  0.25083711  0.62457695  0.87576853  1
  V  V75  1  0.00106759  -0.00112389  -0.00125608  1
  V  V76  1  0.00000508  0.62422905  0.12360751  1
  V  V77  1  0.37547313  0.62385352  0.74923723  1
  V  V78  1  0.74444898  0.63175282  0.37389545  1
  V  V79  1  0.62480678  0.63058578  0.49568761  1
  V  V80  1  0.49918900  0.49776468  0.50015828  1
  V  V81  1  0.49861337  0.62240895  0.62377276  1
  V  V82  1  0.49965042  0.49902823  0.00060190  1
  V  V83  1  0.49867318  0.24352041  0.74761241  1
  V  V84  1  0.12623245  0.74982359  0.87446946  1
  V  V85  1  0.50426699  0.75715935  0.26167508  1
  V  V86  1  0.00419554  0.75102723  0.25022608  1
  V  V87  1  0.11969116  0.62498616  0.50276439  1
  V  V88  1  0.75033679  0.37437694  0.12455723  1
  V  V89  1  0.24991008  0.49888898  0.74988519  1
  V  V90  1  0.12602866  0.24959083  0.87464901  1
  V  V91  1  0.87503891  0.12421600  0.75187650  1
  V  V92  1  0.74946300  0.37372288  0.62207503  1
  Zn  Zn93  1  0.75798426  0.13312352  0.37965320  1
  Zn  Zn94  1  0.63623850  0.85965895  0.27521844  1
  Zn  Zn95  1  0.25038968  0.25072288  0.50053655  1
  Zn  Zn96  1  0.12435665  0.49875538  0.12456754  1
  Zn  Zn97  1  0.87557400  0.37416699  -0.00039122  1
  Zn  Zn98  1  0.12633012  0.87629179  0.25270394  1
  Zn  Zn99  1  -0.00059719  0.12449984  0.62504590  1
  Zn  Zn100  1  0.75035204  0.74893515  -0.00075953  1
  Zn  Zn101  1  0.24994145  0.25001032  0.00060786  1
  Zn  Zn102  1  0.50115375  0.74901416  0.75015753  1
  Zn  Zn103  1  0.74966971  0.87483309  0.61426434  1
  Zn  Zn104  1  0.25072233  0.74895322  0.00119257  1
  Zn  Zn105  1  0.87445266  -0.00071859  0.87471025  1
  Zn  Zn106  1  -0.12321382  0.76032339  0.61654475  1
  Zn  Zn107  1  0.75335468  -0.00074328  0.25505987  1
  Zn  Zn108  1  0.63372341  0.25142705  0.38063623  1
  Zn  Zn109  1  0.12638155  0.87395697  0.74910844  1
  Zn  Zn110  1  0.25132358  0.75053314  0.49808672  1
  Zn  Zn111  1  0.37968227  0.11912868  0.74536612  1
  Zn  Zn112  1  0.37755254  -0.00748309  0.37236829  1
  Zn  Zn113  1  0.25368957  -0.00140850  0.74992836  1
  Zn  Zn114  1  0.50344913  0.24523791  0.25358597  1
  Zn  Zn115  1  0.74898906  0.00075460  0.74880843  1
  Zn  Zn116  1  0.76122407  0.75871615  0.49643488  1
  Zn  Zn117  1  0.37395938  0.49806927  0.37576541  1
  Zn  Zn118  1  0.12506463  0.75209451  0.37884293  1
  Zn  Zn119  1  0.00176639  0.12446071  0.12404315  1
  Zn  Zn120  1  -0.00461191  0.50401308  0.50397056  1
  Zn  Zn121  1  0.87642872  0.00121968  0.37785542  1
  Zn  Zn122  1  0.18878759  0.18695652  0.18708774  1
  Zn  Zn123  1  0.19002122  0.18750831  0.68769680  1
  Zn  Zn124  1  0.18791166  0.68588239  0.18612801  1
  Zn  Zn125  1  0.19026973  0.68651367  0.68625899  1
  Zn  Zn126  1  0.68898696  0.18833934  0.19055038  1
  Zn  Zn127  1  0.68809437  0.18720448  0.68735020  1
  Zn  Zn128  1  0.68610082  0.68734459  0.18647352  1
  Zn  Zn129  1  0.68944322  0.69132592  0.68285391  1
  Zn  Zn130  1  0.31363779  0.30945872  0.31262226  1
  Zn  Zn131  1  0.31236383  0.31140951  0.81172076  1
  Zn  Zn132  1  0.31448609  0.81094442  0.31249033  1
  Zn  Zn133  1  0.31251663  0.81251303  0.81035354  1
  Zn  Zn134  1  0.81009487  0.30775709  0.31262748  1
  Zn  Zn135  1  0.81251299  0.31183484  0.81129645  1
  Zn  Zn136  1  0.81723874  0.81215237  0.31067706  1
  Zn  Zn137  1  0.83043609  0.83027396  0.77931516  1
  Zn  Zn138  1  0.18716192  0.43959806  0.43895269  1
  Zn  Zn139  1  0.18728083  0.43720004  0.93876651  1
  Zn  Zn140  1  0.18601824  0.93662660  0.43636393  1
  Zn  Zn141  1  0.18909813  0.93704724  0.93878906  1
  Zn  Zn142  1  0.68721495  0.44135150  0.43584761  1
  Zn  Zn143  1  0.68795378  0.43644369  0.93721435  1
  Zn  Zn144  1  0.69872989  0.95030661  0.43320075  1
  Zn  Zn145  1  0.68944160  0.93800814  0.93712437  1
  Zn  Zn146  1  0.31245350  0.06212294  0.06225385  1
  Zn  Zn147  1  0.31079027  0.06190399  0.56091902  1
  Zn  Zn148  1  0.31158513  0.56174505  0.06352041  1
  Zn  Zn149  1  0.30920446  0.56018443  0.56143362  1
  Zn  Zn150  1  0.81480726  0.06170644  0.06376388  1
  Zn  Zn151  1  0.80886193  0.05917404  0.57049153  1
  Zn  Zn152  1  0.81275286  0.56233427  0.06031043  1
  Zn  Zn153  1  0.80949114  0.56290766  0.55797464  1
  Zn  Zn154  1  0.43651600  0.43702802  0.18947088  1
  Zn  Zn155  1  0.43721864  0.43387384  0.68728527  1
  Zn  Zn156  1  0.43684000  0.93622531  0.18860190  1
  Zn  Zn157  1  0.44147167  0.93573217  0.68745373  1
  Zn  Zn158  1  0.93764804  0.43661243  0.18663328  1
  Zn  Zn159  1  0.93631378  0.43589834  0.68779775  1
  Zn  Zn160  1  0.93943856  0.93647030  0.18557069  1
  Zn  Zn161  1  0.94323764  0.93601108  0.68602179  1
  Zn  Zn162  1  0.06175368  0.06203799  0.31251636  1
  Zn  Zn163  1  0.06233922  0.06284585  0.81261899  1
  Zn  Zn164  1  0.06338452  0.56188676  0.31360677  1
  Zn  Zn165  1  0.06248273  0.56216792  0.81279228  1
  Zn  Zn166  1  0.56462847  0.05781713  0.32025502  1
  Zn  Zn167  1  0.56203883  0.06240256  0.81693250  1
  Zn  Zn168  1  0.56089470  0.56065023  0.31180679  1
  Zn  Zn169  1  0.56126027  0.56231673  0.81129187  1
  Zn  Zn170  1  0.43667757  0.18949076  0.43720430  1
  Zn  Zn171  1  0.43788238  0.18659285  0.93939765  1
  Zn  Zn172  1  0.43613138  0.68614921  0.43876298  1
  Zn  Zn173  1  0.43894738  0.68742431  0.93819622  1
  Zn  Zn174  1  0.94055455  0.18851411  0.43680806  1
  Zn  Zn175  1  0.93882879  0.18765270  0.93821058  1
  Zn  Zn176  1  0.93569518  0.68771011  0.43716588  1
  Zn  Zn177  1  0.93663517  0.68687926  0.93270046  1
  Zn  Zn178  1  0.06355473  0.31203420  0.06215028  1
  Zn  Zn179  1  0.05790401  0.31467024  0.56237839  1
  Zn  Zn180  1  0.06378231  0.81327393  0.06185023  1
  Zn  Zn181  1  0.06499535  0.81225748  0.55955280  1
  Zn  Zn182  1  0.56183511  0.31056251  0.06429988  1
  Zn  Zn183  1  0.55913083  0.31198800  0.56519083  1
  Zn  Zn184  1  0.56191352  0.81030755  0.06494725  1
  Zn  Zn185  1  0.59386597  0.83856056  0.46981535  1
  O  O186  1  0.12600342  0.11828889  0.11688102  1
  O  O187  1  0.12601080  0.11767292  0.61735566  1
  O  O188  1  0.11788256  0.62339791  0.11738016  1
  O  O189  1  0.13443530  0.61412671  0.61577452  1
  O  O190  1  0.62166189  0.11607554  0.12136656  1
  O  O191  1  0.62876546  0.11644172  0.61822637  1
  O  O192  1  0.62025707  0.61768035  0.11856874  1
  O  O193  1  0.61900094  0.61799773  0.61751292  1
  O  O194  1  0.38410182  0.37389824  0.38126846  1
  O  O195  1  0.37958074  0.38020009  0.88028199  1
  O  O196  1  0.36470585  0.87621325  0.39294573  1
  O  O197  1  0.37976689  0.87870513  0.88039808  1
  O  O198  1  0.87856878  0.37882863  0.38098964  1
  O  O199  1  0.88179474  0.38082303  0.87424968  1
  O  O200  1  0.89000809  0.87886362  0.36940445  1
  O  O201  1  0.88336122  0.87640988  0.87660096  1
  O  O202  1  0.25115423  0.00686796  0.36940814  1
  O  O203  1  0.25590736  0.00744611  0.87375086  1
  O  O204  1  0.25097229  0.50902569  0.36883413  1
  O  O205  1  0.25564226  0.50434965  0.86942585  1
  O  O206  1  0.76196393  0.01524480  0.37063269  1
  O  O207  1  0.75313995  0.01043733  0.87339295  1
  O  O208  1  0.75628186  0.50707488  0.36673049  1
  O  O209  1  0.75381120  0.50359141  0.86787135  1
  O  O210  1  0.24841635  0.49261317  0.13204169  1
  O  O211  1  0.24134324  0.49347631  0.63149780  1
  O  O212  1  0.24607775  0.99437232  0.13050419  1
  O  O213  1  0.24307565  0.99282900  0.62553807  1
  O  O214  1  0.74450018  0.49521967  0.12896149  1
  O  O215  1  0.74380216  0.49374376  0.63025056  1
  O  O216  1  0.74280297  0.99032435  0.12511379  1
  O  O217  1  0.73472833  0.99457438  0.62913808  1
  O  O218  1  0.00563183  0.36986694  0.25545017  1
  O  O219  1  0.00569640  0.36982300  0.75571573  1
  O  O220  1  0.00187956  0.86528573  0.25573869  1
  O  O221  1  0.00642518  0.86369525  0.75782581  1
  O  O222  1  0.50528555  0.37504114  0.25979397  1
  O  O223  1  0.50574452  0.36718078  0.75670111  1
  O  O224  1  0.49771237  0.85815056  0.24687880  1
  O  O225  1  0.50798946  0.87210062  0.76010116  1
  O  O226  1  0.49510681  0.12195732  0.24604841  1
  O  O227  1  0.49900744  0.14031052  0.75803562  1
  O  O228  1  0.49472458  0.63064319  0.24482484  1
  O  O229  1  0.49280356  0.62408519  0.74191068  1
  O  O230  1  0.99439419  0.13227039  0.24712071  1
  O  O231  1  0.99197633  0.13203506  0.74872606  1
  O  O232  1  0.99477351  0.63167417  0.24513458  1
  O  O233  1  0.99193022  0.63115778  0.75550060  1
  O  O234  1  0.37448222  0.25651032  0.00718127  1
  O  O235  1  0.37438276  0.25610873  0.51049142  1
  O  O236  1  0.37460000  0.75547772  0.00615375  1
  O  O237  1  0.37393160  0.75665739  0.50850698  1
  O  O238  1  0.86871218  0.25105119  0.00584331  1
  O  O239  1  0.88216157  0.25909784  0.51028534  1
  O  O240  1  0.87414072  0.75574571  0.00446896  1
  O  O241  1  0.87470155  0.74809257  0.50443341  1
  O  O242  1  0.12326346  0.24102538  0.49614678  1
  O  O243  1  0.12702122  0.24341684  0.99197457  1
  O  O244  1  0.13096772  0.73897850  0.50016792  1
  O  O245  1  0.12553973  0.74344871  0.98896790  1
  O  O246  1  0.61755566  0.23339458  0.50776221  1
  O  O247  1  0.62995345  0.24386850  0.99548237  1
  O  O248  1  0.61379225  0.72905025  0.49570466  1
  O  O249  1  0.62472752  0.74222807  0.99221278  1
  O  O250  1  0.49454350  0.24091435  0.12720580  1
  O  O251  1  0.48810613  0.25787175  0.63781010  1
  O  O252  1  0.49367780  0.74213835  0.13121005  1
  O  O253  1  0.48339719  0.74018929  0.62782025  1
  O  O254  1  0.99462824  0.24955095  0.13101380  1
  O  O255  1  0.98872152  0.24977090  0.63152023  1
  O  O256  1  0.99522779  0.74523654  0.13124543  1
  O  O257  1  1.00288423  0.75590528  0.63999476  1
  O  O258  1  0.00707222  0.25777890  0.36898669  1
  O  O259  1  0.00641305  0.25557653  0.86915497  1
  O  O260  1  0.00051304  0.75615177  0.36480459  1
  O  O261  1  0.01096312  0.75289186  0.86761489  1
  O  O262  1  0.50521750  0.26281703  0.37650481  1
  O  O263  1  0.50505081  0.25573927  0.86945697  1
  O  O264  1  0.49636931  0.74534235  0.36086864  1
  O  O265  1  0.51134574  0.75326740  0.87479673  1
  O  O266  1  0.23814186  0.12538035  0.49468358  1
  O  O267  1  0.24487982  0.12525174  0.98855298  1
  O  O268  1  0.24231172  0.62377661  0.49052205  1
  O  O269  1  0.24414848  0.62580209  0.99302442  1
  O  O270  1  0.73640341  0.12074217  0.50333363  1
  O  O271  1  0.74544122  0.13073762  0.99632084  1
  O  O272  1  0.73977555  0.62348370  0.48905692  1
  O  O273  1  0.74279062  0.62531307  0.99179274  1
  O  O274  1  0.25693597  0.37409660  0.00657040  1
  O  O275  1  0.25588796  0.37378154  0.50582374  1
  O  O276  1  0.25763181  0.87243514  0.00725654  1
  O  O277  1  0.25741378  0.87564831  0.51264668  1
  O  O278  1  0.75070290  0.36813567  0.00624648  1
  O  O279  1  0.76256633  0.38226497  0.50501355  1
  O  O280  1  0.75613328  0.87271843  0.00885014  1
  O  O281  1  0.71234386  0.86386998  0.50354036  1
  O  O282  1  0.13134781  0.49264466  0.24835723  1
  O  O283  1  0.13033522  0.49558713  0.74381730  1
  O  O284  1  0.13214271  1.00032656  0.24281659  1
  O  O285  1  0.12599207  0.99952098  0.73623809  1
  O  O286  1  0.62991192  0.49378726  0.24266443  1
  O  O287  1  0.62966398  0.49411679  0.74464691  1
  O  O288  1  0.62672406  1.00105182  0.23739826  1
  O  O289  1  0.62086166  0.99622627  0.74586771  1
  O  O290  1  0.36915461  0.00529595  0.25210591  1
  O  O291  1  0.37596952  0.00180208  0.75759551  1
  O  O292  1  0.36804945  0.50667013  0.25221624  1
  O  O293  1  0.36983251  0.50327479  0.75512292  1
  O  O294  1  0.87877488  0.01175180  0.24783625  1
  O  O295  1  0.87694392  0.01652701  0.75007304  1
  O  O296  1  0.86893055  0.50501348  0.25329557  1
  O  O297  1  0.87032656  0.50478784  0.75468810  1
  O  O298  1  0.12040409  0.37050140  0.37073242  1
  O  O299  1  0.12080439  0.37011062  0.86837711  1
  O  O300  1  0.11423042  0.87130185  0.37213186  1
  O  O301  1  0.12267079  0.86434087  0.87410225  1
  O  O302  1  0.61633878  0.37638049  0.37079135  1
  O  O303  1  0.61975462  0.36905579  0.86953667  1
  O  O304  1  0.61576098  0.89769549  0.37541758  1
  O  O305  1  0.61832138  0.86756350  0.87389895  1
  O  O306  1  0.38111882  0.12793730  0.13076078  1
  O  O307  1  0.36476960  0.13993067  0.62737891  1
  O  O308  1  0.37985058  0.62904533  0.13059490  1
  O  O309  1  0.37631994  0.62950280  0.62863582  1
  O  O310  1  0.87924448  0.13187112  0.13163596  1
  O  O311  1  0.87549080  0.13402837  0.63326709  1
  O  O312  1  0.87956773  0.63012534  0.12949920  1
  O  O313  1  0.87101179  0.61984401  0.63871128  1
  O  O314  1  0.25824881  0.25604347  0.12366510  1
  O  O315  1  0.25763334  0.25805609  0.62492390  1
  O  O316  1  0.25762640  0.75521493  0.12489650  1
  O  O317  1  0.26118008  0.75713990  0.62473009  1
  O  O318  1  0.75507941  0.25558371  0.11942932  1
  O  O319  1  0.76337357  0.25785120  0.63195277  1
  O  O320  1  0.75519519  0.75858902  0.12376417  1
  O  O321  1  0.75472439  0.75395669  0.61874953  1
  O  O322  1  0.24285447  0.24268155  0.37775087  1
  O  O323  1  0.24485316  0.24134298  0.87597856  1
  O  O324  1  0.24773755  0.73700771  0.37468797  1
  O  O325  1  0.24135889  0.74386906  0.87454991  1
  O  O326  1  0.74649569  0.24541800  0.37735700  1
  O  O327  1  0.74371023  0.24557245  0.88002788  1
  O  O328  1  0.75387767  0.73478773  0.37059148  1
  O  O329  1  0.73465386  0.74264537  0.87592246  1
  O  O330  1  0.00785770  0.11768249  -0.00047125  1
  O  O331  1  0.01225877  0.11724703  0.50081033  1
  O  O332  1  0.00429807  0.61984457  0.00346303  1
  O  O333  1  0.01614252  0.62146344  0.49076996  1
  O  O334  1  0.50639615  0.11814057  0.00715374  1
  O  O335  1  0.50039230  0.11733308  0.50542318  1
  O  O336  1  0.50465461  0.61733161  0.00574739  1
  O  O337  1  0.50391005  0.61577522  0.50400554  1
  O  O338  1  0.49587312  0.37925440  0.49355711  1
  O  O339  1  0.49508485  0.37994018  0.99517327  1
  O  O340  1  0.49145150  0.88406665  0.50346153  1
  O  O341  1  0.49453558  0.87951678  0.99653651  1
  O  O342  1  0.98779471  0.37852816  0.49347778  1
  O  O343  1  0.99934831  0.38116445  0.99263061  1
  O  O344  1  1.00693998  0.88461336  0.49121858  1
  O  O345  1  0.99496373  0.87853221  0.99323107  1
  O  O346  1  0.49741620  0.48848313  0.38068315  1
  O  O347  1  0.49468635  0.49392760  0.88020206  1
  O  O348  1  0.49376553  1.00594768  0.39587410  1
  O  O349  1  0.49539414  0.99433197  0.88380464  1
  O  O350  1  0.99174870  0.49334735  0.37409765  1
  O  O351  1  0.99512757  0.49423242  0.87936981  1
  O  O352  1  1.00110210  0.99185652  0.38373157  1
  O  O353  1  1.00102905  0.99193850  0.88060258  1
  O  O354  1  0.00879758  -0.00041534  0.11627050  1
  O  O355  1  0.01115539  -0.00012675  0.61764672  1
  O  O356  1  0.00035455  0.50670154  0.11827802  1
  O  O357  1  0.01419676  0.49481684  0.62570500  1
  O  O358  1  0.50827096  0.00255366  0.12132804  1
  O  O359  1  0.50832802  -0.00237830  0.61624279  1
  O  O360  1  0.50510416  0.50411280  0.12010324  1
  O  O361  1  0.50474379  0.50273481  0.62055639  1
  O  O362  1  0.24586784  0.37930588  0.24628198  1
  O  O363  1  0.24385984  0.38028697  0.74557218  1
  O  O364  1  0.25004894  0.88098304  0.24413904  1
  O  O365  1  0.24859553  0.87684816  0.73627573  1
  O  O366  1  0.74469237  0.38122705  0.24361394  1
  O  O367  1  0.74411062  0.38053610  0.74393563  1
  O  O368  1  0.74980358  0.87593911  0.23880731  1
  O  O369  1  0.73066717  0.88262132  0.76354920  1
  O  O370  1  0.25632383  0.11890090  0.25486736  1
  O  O371  1  0.25227363  0.12288153  0.76327389  1
  O  O372  1  0.25399983  0.61986360  0.25711384  1
  O  O373  1  0.25630713  0.61786396  0.75603833  1
  O  O374  1  0.76536535  0.12327295  0.24658180  1
  O  O375  1  0.75955611  0.12627847  0.75684818  1
  O  O376  1  0.75382285  0.61946104  0.25425718  1
  O  O377  1  0.75686279  0.61854691  0.75446296  1
  O  O378  1  0.36778244  0.12424756  0.36993177  1
  O  O379  1  0.36695889  0.11884262  0.87658225  1
  O  O380  1  0.36431126  0.62225388  0.37083539  1
  O  O381  1  0.37123325  0.61861794  0.87035792  1
  O  O382  1  0.88121556  0.12592211  0.36226904  1
  O  O383  1  0.87029680  0.12732893  0.86594349  1
  O  O384  1  0.86601583  0.61813721  0.36772838  1
  O  O385  1  0.86832020  0.61696632  0.86715860  1
  O  O386  1  0.13230956  0.37512665  0.13244057  1
  O  O387  1  0.12930212  0.38203757  0.62970075  1
  O  O388  1  0.13286702  0.88090529  0.12622944  1
  O  O389  1  0.13546440  0.88350051  0.62328572  1
  O  O390  1  0.62974721  0.38024698  0.12959724  1
  O  O391  1  0.62957607  0.37981506  0.62977031  1
  O  O392  1  0.63440097  0.88254367  0.12250732  1
  O  O393  1  0.62235250  0.88713035  0.64338510  1
  O  O394  1  0.12094191  0.25515741  0.25600427  1
  O  O395  1  0.11998049  0.25528577  0.75402416  1
  O  O396  1  0.11204921  0.74867976  0.24967526  1
  O  O397  1  0.12017778  0.74602561  0.75920723  1
  O  O398  1  0.62172471  0.25820510  0.25235978  1
  O  O399  1  0.61793211  0.25512739  0.75444007  1
  O  O400  1  0.60942850  0.74913581  0.24514313  1
  O  O401  1  0.62251742  0.75721299  0.75839786  1
  O  O402  1  0.37915697  0.24147940  0.24400339  1
  O  O403  1  0.38290896  0.24994390  0.74388092  1
  O  O404  1  0.38488867  0.74354220  0.24456227  1
  O  O405  1  0.37601657  0.74223488  0.74277791  1
  O  O406  1  0.88184966  0.24317579  0.24331450  1
  O  O407  1  0.88014759  0.24331769  0.74261116  1
  O  O408  1  0.88581862  0.74374169  0.24255546  1
  O  O409  1  0.88852361  0.73503817  0.75441170  1
  O  O410  1  0.38129380  0.49185598  0.50010936  1
  O  O411  1  0.38068419  0.49421288  0.99470365  1
  O  O412  1  0.38683551  0.99434524  0.50691436  1
  O  O413  1  0.38166233  0.99340131  0.99580036  1
  O  O414  1  0.87673345  0.49165611  0.49391406  1
  O  O415  1  0.88123966  0.49794074  0.99217692  1
  O  O416  1  0.89174275  1.00941898  0.50440636  1
  O  O417  1  0.88278569  0.99279156  0.99832852  1
  O  O418  1  0.12071514  0.00450094  0.00454521  1
  O  O419  1  0.11926175  0.00786419  0.50845769  1
  O  O420  1  0.11744325  0.50643943  0.00009221  1
  O  O421  1  0.12351971  0.50617241  0.50946358  1
  O  O422  1  0.62051878  0.00448679  0.00988387  1
  O  O423  1  0.61089357  0.01314406  0.51060057  1
  O  O424  1  0.61880347  0.50400346  0.00418055  1
  O  O425  1  0.61860796  0.50621481  0.50668996  1
  O  O426  1  0.37103922  0.36920139  0.12072505  1
  O  O427  1  0.36871657  0.36704216  0.62079055  1
  O  O428  1  0.36990722  0.86960987  0.11942435  1
  O  O429  1  0.37057678  0.86729932  0.61920966  1
  O  O430  1  0.86771124  0.36823165  0.12384703  1
  O  O431  1  0.87041171  0.36902879  0.61754245  1
  O  O432  1  0.86722324  0.87013745  0.11857019  1
  O  O433  1  0.85845821  0.86747348  0.66407045  1
  O  O434  1  0.12953885  0.13011133  0.38275258  1
  O  O435  1  0.13353121  0.12934873  0.87857749  1
  O  O436  1  0.13444588  0.62471920  0.38231396  1
  O  O437  1  0.13078073  0.63142448  0.87938242  1
  O  O438  1  0.62332309  0.12491305  0.39562071  1
  O  O439  1  0.63029991  0.13098719  0.88277680  1
  O  O440  1  0.63541609  0.61244622  0.38224750  1
  O  O441  1  0.62804503  0.63033784  0.87807554  1
