# generated using pymatgen
data_V93Zn93O256
_symmetry_space_group_name_H-M   'P 1'
_cell_length_a   17.04461167
_cell_length_b   17.04561515
_cell_length_c   17.04687348
_cell_angle_alpha   89.98335493
_cell_angle_beta   90.01451720
_cell_angle_gamma   90.03645948
_symmetry_Int_Tables_number   1
_chemical_formula_structural   V93Zn93O256
_chemical_formula_sum   'V93 Zn93 O256'
_cell_volume   4952.72720296
_cell_formula_units_Z   1
loop_
 _symmetry_equiv_pos_site_id
 _symmetry_equiv_pos_as_xyz
  1  'x, y, z'
loop_
 _atom_site_type_symbol
 _atom_site_label
 _atom_site_symmetry_multiplicity
 _atom_site_fract_x
 _atom_site_fract_y
 _atom_site_fract_z
 _atom_site_occupancy
  V  V0  1  0.74605966  0.87988999  0.13129971  1
  V  V1  1  0.12321843  0.12525576  0.50054284  1
  V  V2  1  0.24766941  0.74580549  0.50179064  1
  V  V3  1  0.37537541  0.37646914  0.00016617  1
  V  V4  1  -0.00349549  0.50031179  -0.00753825  1
  V  V5  1  0.12850829  0.38270205  0.74866225  1
  V  V6  1  0.87069304  -0.00262256  0.37273242  1
  V  V7  1  0.24848699  0.00157704  0.25141635  1
  V  V8  1  0.62346806  0.24871724  0.37534972  1
  V  V9  1  0.49899552  -0.00175013  0.50203771  1
  V  V10  1  0.24763077  0.25048162  0.50003002  1
  V  V11  1  0.49961761  0.37430655  0.37536459  1
  V  V12  1  0.50749646  0.87599431  0.87189894  1
  V  V13  1  0.87474533  0.87517987  -0.00038911  1
  V  V14  1  -0.00084958  -0.00043144  0.50040784  1
  V  V15  1  0.50128017  0.49906855  0.49858169  1
  V  V16  1  0.62396622  -0.00607507  0.63030487  1
  V  V17  1  0.50701712  0.75300721  0.75078689  1
  V  V18  1  0.00746884  0.62348667  0.62095291  1
  V  V19  1  0.87886707  0.37517230  0.49155802  1
  V  V20  1  -0.00318281  0.25445435  0.25324416  1
  V  V21  1  0.74668044  0.12017567  0.37295324  1
  V  V22  1  0.37194761  0.49998050  0.87262354  1
  V  V23  1  0.37501331  0.24994236  0.62525017  1
  V  V24  1  0.87056503  0.12130219  0.24968695  1
  V  V25  1  0.87402285  0.12511819  0.74881581  1
  V  V26  1  0.49914157  0.12533990  0.62715584  1
  V  V27  1  0.74848220  0.24959625  -0.00117179  1
  V  V28  1  0.74965145  0.37493146  0.12426649  1
  V  V29  1  0.62576212  0.74951512  0.37372364  1
  V  V30  1  0.37516632  0.37559551  0.49933585  1
  V  V31  1  0.37285408  0.12517894  0.25140665  1
  V  V32  1  0.25051898  0.87534606  0.62553776  1
  V  V33  1  0.50142626  0.00078163  0.00286211  1
  V  V34  1  -0.00035870  0.25114715  0.74898358  1
  V  V35  1  0.87334334  0.25009140  0.12503277  1
  V  V36  1  0.87428832  -0.00013324  0.87446668  1
  V  V37  1  0.49761364  0.25014440  0.25148958  1
  V  V38  1  0.62397874  0.50078201  0.12357318  1
  V  V39  1  0.87721452  0.74776411  0.62598367  1
  V  V40  1  0.00062406  0.87521321  0.87479896  1
  V  V41  1  0.37412038  0.00115348  0.87470194  1
  V  V42  1  0.25046621  0.75150335  0.00103691  1
  V  V43  1  0.75101660  0.74900947  -0.00170713  1
  V  V44  1  0.12481538  0.00038064  0.62488680  1
  V  V45  1  0.00009523  0.00185511  0.00015795  1
  V  V46  1  0.62311153  0.37204857  0.75151297  1
  V  V47  1  0.24954331  0.38242839  0.62785693  1
  V  V48  1  0.62663218  0.49953407  0.62518142  1
  V  V49  1  0.75122677  0.49953963  0.24912843  1
  V  V50  1  0.00733131  0.49918053  0.49380910  1
  V  V51  1  0.37409840  -0.00060331  0.37534679  1
  V  V52  1  0.75875675  0.61993019  0.87374040  1
  V  V53  1  0.87564515  0.62350877  0.25010939  1
  V  V54  1  0.74788514  0.87193024  0.63062506  1
  V  V55  1  0.37436109  0.87433550  0.50133480  1
  V  V56  1  0.87500943  0.87369937  0.50142970  1
  V  V57  1  0.24749297  0.25232331  0.00042966  1
  V  V58  1  0.62479298  0.62505957  -0.00308226  1
  V  V59  1  0.12503640  0.74671266  0.37881324  1
  V  V60  1  0.12144363  0.37700825  0.25230519  1
  V  V61  1  0.75194579  0.62235706  0.37529300  1
  V  V62  1  0.87559970  0.37875080  -0.00802407  1
  V  V63  1  0.12558255  0.62573747  -0.00082389  1
  V  V64  1  0.12345686  0.00217997  0.12605600  1
  V  V65  1  0.00076662  0.62590853  0.12430108  1
  V  V66  1  0.12264537  0.12710265  0.00116982  1
  V  V67  1  0.74792321  -0.00336249  0.75118595  1
  V  V68  1  0.75929479  0.49812206  0.75244935  1
  V  V69  1  0.00112236  0.74867213  0.74908574  1
  V  V70  1  0.25019026  0.87584869  0.12549437  1
  V  V71  1  0.74740591  0.12520665  0.87639600  1
  V  V72  1  0.25196199  0.62421755  0.37499662  1
  V  V73  1  0.62750998  0.62284780  0.49944192  1
  V  V74  1  0.25226251  0.62596787  0.87201155  1
  V  V75  1  0.37372233  0.62174949  0.74961688  1
  V  V76  1  0.12024458  0.25336326  0.37576986  1
  V  V77  1  0.87552522  0.75031232  0.12511412  1
  V  V78  1  0.37650067  0.74918899  0.12713151  1
  V  V79  1  0.12696682  0.75162054  0.87550679  1
  V  V80  1  0.24901160  0.12548543  0.87546132  1
  V  V81  1  0.12729592  0.87637781  0.75045306  1
  V  V82  1  0.12476137  0.50097321  0.12473941  1
  V  V83  1  0.24773934  0.37704658  0.12477850  1
  V  V84  1  0.12340785  0.87607953  0.25117252  1
  V  V85  1  0.75027066  0.24891272  0.49846503  1
  V  V86  1  0.00115745  0.74950263  0.25084491  1
  V  V87  1  0.75086361  0.37371396  0.62369907  1
  V  V88  1  0.87510686  0.24824874  0.62366407  1
  V  V89  1  0.50140576  0.62525356  0.62547265  1
  V  V90  1  0.49812879  0.12534244  0.12515667  1
  V  V91  1  0.50123465  0.87312957  0.37586486  1
  V  V92  1  0.12268199  0.25268551  0.87435188  1
  Zn  Zn93  1  0.49968810  0.50076301  -0.00086562  1
  Zn  Zn94  1  0.37968540  0.62198656  0.24950846  1
  Zn  Zn95  1  0.24987739  0.00230283  0.74987562  1
  Zn  Zn96  1  0.25218674  0.50238435  0.24970995  1
  Zn  Zn97  1  0.37169880  0.12849386  0.75092201  1
  Zn  Zn98  1  -0.00303275  0.38091471  0.86864305  1
  Zn  Zn99  1  -0.00046538  0.12449817  0.62537869  1
  Zn  Zn100  1  0.62013154  0.24823141  0.87678796  1
  Zn  Zn101  1  0.37666115  0.75020770  0.62644181  1
  Zn  Zn102  1  0.62535406  0.12314518  0.50167202  1
  Zn  Zn103  1  0.50164488  0.75010617  0.24803203  1
  Zn  Zn104  1  0.13110886  0.50636681  0.62371772  1
  Zn  Zn105  1  0.62359026  0.37523267  0.24982921  1
  Zn  Zn106  1  0.88089004  0.61752994  0.75175607  1
  Zn  Zn107  1  -0.00177498  0.87319408  0.37540367  1
  Zn  Zn108  1  0.63030208  0.00591466  0.13328584  1
  Zn  Zn109  1  0.49781250  0.25028762  0.75330947  1
  Zn  Zn110  1  0.62760381  0.88282991  0.25655142  1
  Zn  Zn111  1  0.24821324  0.12508907  0.37532800  1
  Zn  Zn112  1  -0.00237012  0.12543525  0.12539453  1
  Zn  Zn113  1  0.37257776  0.25252729  0.12639123  1
  Zn  Zn114  1  0.37598490  0.87400218  0.00045412  1
  Zn  Zn115  1  0.37624915  0.50096867  0.37185459  1
  Zn  Zn116  1  0.87928263  0.49520629  0.37141882  1
  Zn  Zn117  1  0.62369492  0.12788157  0.00043498  1
  Zn  Zn118  1  0.75242363  0.74681859  0.50206270  1
  Zn  Zn119  1  0.62963001  0.75467738  0.87074272  1
  Zn  Zn120  1  0.49960662  0.62657927  0.12561913  1
  Zn  Zn121  1  0.49961190  0.37372219  0.87528330  1
  Zn  Zn122  1  0.18682869  0.18893998  0.18687069  1
  Zn  Zn123  1  0.18713804  0.18966380  0.68782894  1
  Zn  Zn124  1  0.18924095  0.68794083  0.18992148  1
  Zn  Zn125  1  0.18869013  0.68916109  0.68819227  1
  Zn  Zn126  1  0.68465931  0.18884146  0.18832953  1
  Zn  Zn127  1  0.68700494  0.18516200  0.68721572  1
  Zn  Zn128  1  0.68963296  0.68858553  0.18732814  1
  Zn  Zn129  1  0.68953216  0.68458825  0.68872538  1
  Zn  Zn130  1  0.31004812  0.31303955  0.31315651  1
  Zn  Zn131  1  0.31091903  0.31172706  0.81141899  1
  Zn  Zn132  1  0.31273861  0.81282507  0.31203748  1
  Zn  Zn133  1  0.31806249  0.81271536  0.81178522  1
  Zn  Zn134  1  0.80818597  0.31080079  0.31140551  1
  Zn  Zn135  1  0.81008727  0.31031981  0.81200158  1
  Zn  Zn136  1  0.81188351  0.80881018  0.31329997  1
  Zn  Zn137  1  0.81461186  0.80867208  0.81187929  1
  Zn  Zn138  1  0.18868747  0.43616916  0.43660040  1
  Zn  Zn139  1  0.18808405  0.43978305  0.93499642  1
  Zn  Zn140  1  0.18708296  0.93551168  0.43799966  1
  Zn  Zn141  1  0.18794900  0.93860173  0.94001324  1
  Zn  Zn142  1  0.68843313  0.43597269  0.43580729  1
  Zn  Zn143  1  0.68915832  0.43707514  0.93547774  1
  Zn  Zn144  1  0.68726697  0.93584322  0.44445252  1
  Zn  Zn145  1  0.68657011  0.93994060  0.94285011  1
  Zn  Zn146  1  0.31253850  0.06358314  0.06238009  1
  Zn  Zn147  1  0.31069200  0.06327011  0.56193356  1
  Zn  Zn148  1  0.31117169  0.56330593  0.06167609  1
  Zn  Zn149  1  0.31634336  0.56349826  0.55970543  1
  Zn  Zn150  1  0.81303529  0.06306498  0.06110022  1
  Zn  Zn151  1  0.81143837  0.06096877  0.56150742  1
  Zn  Zn152  1  0.81278638  0.56211611  0.06226329  1
  Zn  Zn153  1  0.81774300  0.56060488  0.56320068  1
  Zn  Zn154  1  0.43686821  0.43925198  0.18912663  1
  Zn  Zn155  1  0.43801181  0.43838911  0.68617168  1
  Zn  Zn156  1  0.43827623  0.93482606  0.19119533  1
  Zn  Zn157  1  0.43608010  0.93664592  0.69002427  1
  Zn  Zn158  1  0.93753287  0.43800808  0.18207726  1
  Zn  Zn159  1  0.94149604  0.43449115  0.67914422  1
  Zn  Zn160  1  0.93696513  0.93636454  0.18739074  1
  Zn  Zn161  1  0.93765147  0.93673272  0.68754080  1
  Zn  Zn162  1  0.05800060  0.06499987  0.31432642  1
  Zn  Zn163  1  0.06231635  0.06429772  0.81179516  1
  Zn  Zn164  1  0.06483957  0.56467994  0.31375323  1
  Zn  Zn165  1  0.06498430  0.56473045  0.81056382  1
  Zn  Zn166  1  0.56176186  0.05896086  0.31020763  1
  Zn  Zn167  1  0.56316668  0.06276570  0.81199458  1
  Zn  Zn168  1  0.56142360  0.56422503  0.30943956  1
  Zn  Zn169  1  0.56266785  0.55981660  0.81362856  1
  Zn  Zn170  1  0.43620627  0.18628164  0.43967417  1
  Zn  Zn171  1  0.43646880  0.19037757  0.93707049  1
  Zn  Zn172  1  0.43704316  0.68760327  0.43845309  1
  Zn  Zn173  1  0.43920798  0.68951898  0.93837596  1
  Zn  Zn174  1  0.93738573  0.18555118  0.43725548  1
  Zn  Zn175  1  0.93625539  0.18993885  0.93520739  1
  Zn  Zn176  1  0.93781496  0.68407876  0.43893277  1
  Zn  Zn177  1  0.93847814  0.68844347  0.93730355  1
  Zn  Zn178  1  0.05898344  0.31353131  0.06446021  1
  Zn  Zn179  1  0.06133427  0.31473545  0.56426641  1
  Zn  Zn180  1  0.06304501  0.81435266  0.06318017  1
  Zn  Zn181  1  0.06272780  0.81404292  0.56204628  1
  Zn  Zn182  1  0.56150654  0.31167180  0.06308413  1
  Zn  Zn183  1  0.56367969  0.31122468  0.56211744  1
  Zn  Zn184  1  0.56250752  0.81228583  0.05810120  1
  Zn  Zn185  1  0.56396840  0.80971918  0.56147721  1
  O  O186  1  0.12138434  0.11991582  0.11928899  1
  O  O187  1  0.12327562  0.11907912  0.61850679  1
  O  O188  1  0.12018752  0.62209083  0.11904943  1
  O  O189  1  0.11342909  0.62397130  0.63085373  1
  O  O190  1  0.61029313  0.12512211  0.12421407  1
  O  O191  1  0.61705391  0.11459923  0.62337091  1
  O  O192  1  0.63060344  0.61720229  0.11366538  1
  O  O193  1  0.62124768  0.61884217  0.61945733  1
  O  O194  1  0.38064604  0.37500926  0.38266264  1
  O  O195  1  0.37032626  0.38417657  0.88269714  1
  O  O196  1  0.38019976  0.87951373  0.38145452  1
  O  O197  1  0.38485606  0.88502849  0.87795608  1
  O  O198  1  0.86993025  0.37335661  0.38717639  1
  O  O199  1  0.87568827  0.37092771  0.88840248  1
  O  O200  1  0.87229294  0.88267408  0.38027377  1
  O  O201  1  0.88081883  0.87964409  0.87992213  1
  O  O202  1  0.25539060  0.00066433  0.36912828  1
  O  O203  1  0.25907145  0.00549502  0.87764245  1
  O  O204  1  0.24846314  0.51324104  0.37667402  1
  O  O205  1  0.26315670  0.50998029  0.87983625  1
  O  O206  1  0.75956706  0.00811712  0.38285948  1
  O  O207  1  0.75486281  0.00329598  0.87154522  1
  O  O208  1  0.75154121  0.50492410  0.36660639  1
  O  O209  1  0.74693167  0.50803951  0.86384907  1
  O  O210  1  0.24070604  0.49547310  0.12557474  1
  O  O211  1  0.24852346  0.48689318  0.61491951  1
  O  O212  1  0.24352240  0.99632516  0.13069221  1
  O  O213  1  0.24310551  0.99313497  0.62587053  1
  O  O214  1  0.74286525  0.49537487  0.12873245  1
  O  O215  1  0.74543908  0.49416684  0.63198360  1
  O  O216  1  0.75039948  0.98306560  0.11656482  1
  O  O217  1  0.74311953  0.99214384  0.62972695  1
  O  O218  1  0.00846824  0.36563245  0.24332204  1
  O  O219  1  0.00836113  0.36976051  0.74917394  1
  O  O220  1  0.00474031  0.86726260  0.25212094  1
  O  O221  1  0.00665576  0.86936879  0.75570453  1
  O  O222  1  0.50059771  0.36772717  0.25657982  1
  O  O223  1  0.51219551  0.37511602  0.74784511  1
  O  O224  1  0.50279491  0.86971317  0.26131697  1
  O  O225  1  0.49387975  0.86503488  0.75988154  1
  O  O226  1  0.49203055  0.12939533  0.24306676  1
  O  O227  1  0.49808615  0.12487928  0.73659457  1
  O  O228  1  0.49842624  0.63235080  0.24388962  1
  O  O229  1  0.49359933  0.63100631  0.74621336  1
  O  O230  1  0.98725226  0.13535222  0.24970607  1
  O  O231  1  0.99186243  0.13196386  0.74873054  1
  O  O232  1  0.99651648  0.62995124  0.24327900  1
  O  O233  1  0.99908024  0.62990990  0.74224125  1
  O  O234  1  0.36608133  0.26151832  0.00046052  1
  O  O235  1  0.36867348  0.25579423  0.50576228  1
  O  O236  1  0.36841994  0.75187856  0.00821836  1
  O  O237  1  0.36548925  0.75653307  0.50233978  1
  O  O238  1  0.87028826  0.25813852  0.00572944  1
  O  O239  1  0.87120106  0.25564211  0.50301103  1
  O  O240  1  0.87162964  0.75559308  0.00538837  1
  O  O241  1  0.87490906  0.75508134  0.50757928  1
  O  O242  1  0.12531169  0.24753453  0.49232422  1
  O  O243  1  0.12721359  0.24747909  0.99529718  1
  O  O244  1  0.13620346  0.75791445  0.49020185  1
  O  O245  1  0.12935248  0.74549287  0.99489419  1
  O  O246  1  0.63226872  0.24685152  0.49375017  1
  O  O247  1  0.63359961  0.24954931  0.99853886  1
  O  O248  1  0.62855452  0.74165231  0.49086414  1
  O  O249  1  0.63243970  0.73934536  0.99774302  1
  O  O250  1  0.49600419  0.24132226  0.13093529  1
  O  O251  1  0.49472886  0.23981639  0.62365713  1
  O  O252  1  0.48891989  0.75216635  0.12332984  1
  O  O253  1  0.49999952  0.74422397  0.63288397  1
  O  O254  1  0.99241223  0.24781076  0.13594207  1
  O  O255  1  0.99262583  0.24825707  0.63089433  1
  O  O256  1  0.99554619  0.74537148  0.12959258  1
  O  O257  1  0.99834197  0.74270397  0.62863213  1
  O  O258  1  0.00756330  0.24626270  0.36452852  1
  O  O259  1  0.00558069  0.25427094  0.86745694  1
  O  O260  1  0.00912580  0.74852005  0.37074532  1
  O  O261  1  0.00685217  0.75553126  0.87062486  1
  O  O262  1  0.50406508  0.25358489  0.37181500  1
  O  O263  1  0.50224985  0.25495792  0.87081730  1
  O  O264  1  0.51113642  0.75467944  0.37836173  1
  O  O265  1  0.50227102  0.75930839  0.86924388  1
  O  O266  1  0.24146822  0.13279641  0.49877829  1
  O  O267  1  0.24266736  0.13183523  0.99611362  1
  O  O268  1  0.25549811  0.63782226  0.49279025  1
  O  O269  1  0.24340810  0.63204080  0.99312032  1
  O  O270  1  0.75002607  0.12993903  0.48898875  1
  O  O271  1  0.74934918  0.13131202  0.99464549  1
  O  O272  1  0.74536907  0.62286525  0.49474926  1
  O  O273  1  0.74583237  0.62786576  0.99206383  1
  O  O274  1  0.25570634  0.37236303  0.00475031  1
  O  O275  1  0.25431484  0.36871667  0.50678908  1
  O  O276  1  0.25045366  0.86945222  0.00780618  1
  O  O277  1  0.25509013  0.86658511  0.50544916  1
  O  O278  1  0.75826315  0.37131693  0.00416842  1
  O  O279  1  0.75768286  0.36912493  0.50456347  1
  O  O280  1  0.75618887  0.86831112  0.00592204  1
  O  O281  1  0.75738230  0.87265740  0.51435919  1
  O  O282  1  0.12273446  0.49097532  0.24480475  1
  O  O283  1  0.12068629  0.48649123  0.74706823  1
  O  O284  1  0.12725281  0.99690125  0.24656746  1
  O  O285  1  0.12583433  0.99354231  0.74458068  1
  O  O286  1  0.63208796  0.49987399  0.23824922  1
  O  O287  1  0.63393179  0.49137671  0.74424485  1
  O  O288  1  0.62334939  0.99489363  0.24490773  1
  O  O289  1  0.63037063  1.00179547  0.73778450  1
  O  O290  1  0.36838426  0.00480071  0.25601479  1
  O  O291  1  0.37376033  0.00319338  0.76395973  1
  O  O292  1  0.36974531  0.50281037  0.25433846  1
  O  O293  1  0.38164246  0.51170528  0.75844060  1
  O  O294  1  0.88082461  0.01006292  0.25990852  1
  O  O295  1  0.86916396  0.00432251  0.75571564  1
  O  O296  1  0.87106696  0.50510551  0.24928070  1
  O  O297  1  0.86255602  0.49572574  0.74168181  1
  O  O298  1  0.12841753  0.36475034  0.36437818  1
  O  O299  1  0.12593801  0.37076875  0.86507348  1
  O  O300  1  0.12356361  0.86431316  0.36888851  1
  O  O301  1  0.12016997  0.87091178  0.87135720  1
  O  O302  1  0.61796581  0.36676995  0.37388083  1
  O  O303  1  0.62407235  0.37483354  0.86323004  1
  O  O304  1  0.62203821  0.86508059  0.37993065  1
  O  O305  1  0.61194347  0.87619549  0.88020251  1
  O  O306  1  0.38282491  0.12746646  0.13111283  1
  O  O307  1  0.38295518  0.12941642  0.62545184  1
  O  O308  1  0.37520143  0.63677158  0.12345870  1
  O  O309  1  0.38230310  0.62506547  0.63384571  1
  O  O310  1  0.87274387  0.13012128  0.13519842  1
  O  O311  1  0.87410064  0.13006973  0.63116801  1
  O  O312  1  0.88071440  0.63083379  0.12962156  1
  O  O313  1  0.88704121  0.63016155  0.62778865  1
  O  O314  1  0.24943042  0.25872543  0.11818091  1
  O  O315  1  0.25490353  0.25897147  0.61832249  1
  O  O316  1  0.25539641  0.75593320  0.12023965  1
  O  O317  1  0.25077024  0.75543996  0.61586803  1
  O  O318  1  0.75418475  0.25495811  0.11983263  1
  O  O319  1  0.75524922  0.25334078  0.61813997  1
  O  O320  1  0.75722644  0.75724337  0.11800675  1
  O  O321  1  0.75594650  0.75657032  0.62646157  1
  O  O322  1  0.23726554  0.24904436  0.38111473  1
  O  O323  1  0.24277343  0.24546058  0.88147157  1
  O  O324  1  0.24434294  0.74543435  0.38249058  1
  O  O325  1  0.24637934  0.74692029  0.88087256  1
  O  O326  1  0.74403134  0.23981653  0.37909555  1
  O  O327  1  0.74831985  0.24219672  0.88145131  1
  O  O328  1  0.74284790  0.74206279  0.37859268  1
  O  O329  1  0.74804441  0.74074281  0.87869188  1
  O  O330  1  0.00419870  0.12006156  0.00091508  1
  O  O331  1  0.00539566  0.11797401  0.50194848  1
  O  O332  1  0.00493632  0.61953913  0.00435377  1
  O  O333  1  -0.00452642  0.61065373  0.50907651  1
  O  O334  1  0.49738518  0.11848541  0.00913598  1
  O  O335  1  0.49991232  0.11721491  0.51165636  1
  O  O336  1  0.51343401  0.62371899  0.00135159  1
  O  O337  1  0.50668395  0.61932670  0.50539045  1
  O  O338  1  0.49524587  0.37926156  0.49595945  1
  O  O339  1  0.48588985  0.37595661  1.00015998  1
  O  O340  1  0.49410137  0.87895749  0.49665355  1
  O  O341  1  0.49760344  0.88487351  0.99233759  1
  O  O342  1  0.99014750  0.38796324  0.50702195  1
  O  O343  1  0.99257628  0.38402408  0.99943625  1
  O  O344  1  0.99234235  0.88098254  0.49769952  1
  O  O345  1  0.99509887  0.88078118  0.99455233  1
  O  O346  1  0.50233693  0.49271484  0.38152046  1
  O  O347  1  0.48698135  0.49651623  0.87826861  1
  O  O348  1  0.49404926  0.99369996  0.38297083  1
  O  O349  1  0.49407405  0.99621328  0.88213288  1
  O  O350  1  0.99881218  0.50736720  0.38974587  1
  O  O351  1  1.00496368  0.50139266  0.88867449  1
  O  O352  1  0.98718378  0.99842099  0.38110511  1
  O  O353  1  0.99446775  0.99441449  0.87991187  1
  O  O354  1  0.00511668  0.00136752  0.11845411  1
  O  O355  1  0.00646037  0.00038208  0.61855841  1
  O  O356  1  0.00608143  0.50705469  0.11498403  1
  O  O357  1  0.00325878  0.50769978  0.61476454  1
  O  O358  1  0.49405341  0.00826511  0.11660734  1
  O  O359  1  0.50572782  0.00387715  0.62264753  1
  O  O360  1  0.51361388  0.50159249  0.12272691  1
  O  O361  1  0.50716937  0.50561649  0.61885667  1
  O  O362  1  0.23660972  0.37512634  0.24420857  1
  O  O363  1  0.24126153  0.36974197  0.73823581  1
  O  O364  1  0.24309652  0.88203111  0.24526372  1
  O  O365  1  0.24504119  0.87548487  0.74448679  1
  O  O366  1  0.74793952  0.38039440  0.24190598  1
  O  O367  1  0.74373772  0.38023547  0.74433930  1
  O  O368  1  0.75262501  0.86886568  0.23329922  1
  O  O369  1  0.75689456  0.87956571  0.73806310  1
  O  O370  1  0.25458034  0.11947466  0.25103148  1
  O  O371  1  0.25026960  0.12343632  0.75964709  1
  O  O372  1  0.25234578  0.62485285  0.26197611  1
  O  O373  1  0.26507381  0.63502129  0.75581662  1
  O  O374  1  0.76021923  0.13183449  0.26063561  1
  O  O375  1  0.75491803  0.11735800  0.75566341  1
  O  O376  1  0.75679887  0.61927472  0.25390447  1
  O  O377  1  0.75276357  0.61483797  0.75664611  1
  O  O378  1  0.37282097  0.11754165  0.36966062  1
  O  O379  1  0.36854194  0.11676546  0.87585211  1
  O  O380  1  0.36455593  0.62550323  0.37372974  1
  O  O381  1  0.37306585  0.61950223  0.86910947  1
  O  O382  1  0.86644683  0.11775357  0.36896769  1
  O  O383  1  0.86822529  0.11894382  0.86912860  1
  O  O384  1  0.86947868  0.62311798  0.36687150  1
  O  O385  1  0.86329744  0.62818431  0.87331675  1
  O  O386  1  0.12777542  0.38047434  0.13264414  1
  O  O387  1  0.13410069  0.37487127  0.63219701  1
  O  O388  1  0.12958095  0.88177938  0.13118552  1
  O  O389  1  0.13073545  0.88025379  0.63073123  1
  O  O390  1  0.63116132  0.38515833  0.12345714  1
  O  O391  1  0.63171151  0.37950026  0.63070892  1
  O  O392  1  0.64074881  0.87027301  0.12319967  1
  O  O393  1  0.63523939  0.88248896  0.61967269  1
  O  O394  1  0.11610133  0.25599723  0.25557060  1
  O  O395  1  0.11897030  0.25895271  0.75469969  1
  O  O396  1  0.12034841  0.75623286  0.25756048  1
  O  O397  1  0.12054457  0.75665104  0.75674694  1
  O  O398  1  0.61602075  0.25128790  0.25763086  1
  O  O399  1  0.62555495  0.26186465  0.74884093  1
  O  O400  1  0.62781332  0.75271207  0.26448832  1
  O  O401  1  0.61131861  0.74158435  0.75264359  1
  O  O402  1  0.37926149  0.24410321  0.24934324  1
  O  O403  1  0.37720252  0.24894195  0.74073531  1
  O  O404  1  0.37394256  0.74951626  0.23730514  1
  O  O405  1  0.38786685  0.73969552  0.74982757  1
  O  O406  1  0.88017597  0.24386876  0.24687216  1
  O  O407  1  0.87855450  0.24558963  0.74368255  1
  O  O408  1  0.88167039  0.74346363  0.24483567  1
  O  O409  1  0.88540655  0.74802637  0.74324298  1
  O  O410  1  0.38412686  0.49308971  0.49705455  1
  O  O411  1  0.37552337  0.49264949  0.99265621  1
  O  O412  1  0.37875812  0.99381240  0.49531493  1
  O  O413  1  0.38364683  1.00004850  0.99109489  1
  O  O414  1  0.88360500  0.49030487  0.49746236  1
  O  O415  1  0.88502382  0.49072511  1.00749591  1
  O  O416  1  0.87903736  0.99457933  0.49232612  1
  O  O417  1  0.88067367  0.99501486  0.99341719  1
  O  O418  1  0.11927188  0.00673544  0.00578228  1
  O  O419  1  0.11929082  0.00422127  0.50388940  1
  O  O420  1  0.11760065  0.50624320  0.00441689  1
  O  O421  1  0.10998356  0.49072733  0.50183230  1
  O  O422  1  0.61134750  0.00368929  0.00711161  1
  O  O423  1  0.61811360  0.00105058  0.51277915  1
  O  O424  1  0.62720738  0.50750619  0.00733673  1
  O  O425  1  0.62126428  0.50329191  0.50574189  1
  O  O426  1  0.36724247  0.37715108  0.11512888  1
  O  O427  1  0.36797358  0.37132989  0.61978928  1
  O  O428  1  0.36765613  0.86769889  0.12410894  1
  O  O429  1  0.36859513  0.87366868  0.61971440  1
  O  O430  1  0.86919325  0.36910579  0.11568898  1
  O  O431  1  0.86887364  0.36720952  0.61436117  1
  O  O432  1  0.86678143  0.87012090  0.11935841  1
  O  O433  1  0.86833364  0.86898144  0.62096085  1
  O  O434  1  0.12474907  0.13604487  0.38045019  1
  O  O435  1  0.12866748  0.13143321  0.88180515  1
  O  O436  1  0.13487942  0.63949816  0.37043743  1
  O  O437  1  0.13168401  0.63223971  0.87884991  1
  O  O438  1  0.63310262  0.12788599  0.37648026  1
  O  O439  1  0.63262708  0.12564936  0.87793728  1
  O  O440  1  0.63140980  0.63097091  0.37979242  1
  O  O441  1  0.63554919  0.62330882  0.88427157  1
