# generated using pymatgen
data_V93Zn93O256
_symmetry_space_group_name_H-M   'P 1'
_cell_length_a   17.04515421
_cell_length_b   17.04613000
_cell_length_c   17.04701262
_cell_angle_alpha   89.99424168
_cell_angle_beta   89.97381094
_cell_angle_gamma   89.91716815
_symmetry_Int_Tables_number   1
_chemical_formula_structural   V93Zn93O256
_chemical_formula_sum   'V93 Zn93 O256'
_cell_volume   4953.07052855
_cell_formula_units_Z   1
loop_
 _symmetry_equiv_pos_site_id
 _symmetry_equiv_pos_as_xyz
  1  'x, y, z'
loop_
 _atom_site_type_symbol
 _atom_site_label
 _atom_site_symmetry_multiplicity
 _atom_site_fract_x
 _atom_site_fract_y
 _atom_site_fract_z
 _atom_site_occupancy
  V  V0  1  0.75197236  -0.00043222  0.24899894  1
  V  V1  1  0.62527366  0.37479240  0.25035747  1
  V  V2  1  0.76223622  0.75380186  0.00362032  1
  V  V3  1  0.49887179  0.50072381  -0.00002327  1
  V  V4  1  0.50020327  0.75102482  0.24884543  1
  V  V5  1  0.50050885  0.37543196  0.37650876  1
  V  V6  1  0.12269327  0.50358177  0.12429791  1
  V  V7  1  0.24717124  0.74504670  -0.00264121  1
  V  V8  1  0.74491868  0.88199728  0.62485645  1
  V  V9  1  0.37522504  0.50004436  0.37538439  1
  V  V10  1  0.87432413  0.12118923  0.75080977  1
  V  V11  1  0.74937569  0.37511192  0.12438002  1
  V  V12  1  0.37351251  0.62544439  0.25053574  1
  V  V13  1  0.25171892  0.75017781  0.49998338  1
  V  V14  1  0.37515660  0.25036631  0.62563028  1
  V  V15  1  0.49977209  0.87525840  0.87681764  1
  V  V16  1  0.50016553  0.62519880  0.62580837  1
  V  V17  1  -0.00044838  0.49958574  -0.00189928  1
  V  V18  1  0.87329384  0.49904406  0.87308679  1
  V  V19  1  -0.00416566  0.74708356  0.24387149  1
  V  V20  1  0.87391549  0.37389780  -0.00225787  1
  V  V21  1  0.75078177  0.12531970  0.37409232  1
  V  V22  1  0.50813656  0.12059626  0.62676531  1
  V  V23  1  0.74977363  0.62511495  0.37383008  1
  V  V24  1  0.62488744  0.62605000  0.50012923  1
  V  V25  1  0.24889214  -0.00009345  0.75059364  1
  V  V26  1  0.62374187  0.50053025  0.12408406  1
  V  V27  1  0.37188599  0.12582695  0.25563788  1
  V  V28  1  0.62649559  0.24934210  0.37593957  1
  V  V29  1  0.13004486  0.24658106  0.37480254  1
  V  V30  1  0.36638001  0.62550256  0.75433513  1
  V  V31  1  0.36701877  0.50382882  0.87481317  1
  V  V32  1  0.37458768  0.37550467  -0.00051624  1
  V  V33  1  0.24957848  0.37657518  0.12596301  1
  V  V34  1  0.37613189  0.87481652  0.50120261  1
  V  V35  1  0.75006000  0.50037447  0.24915149  1
  V  V36  1  0.74775715  0.12320464  0.87666922  1
  V  V37  1  0.75163809  0.24931660  0.50038340  1
  V  V38  1  0.49967797  0.62524720  0.12445240  1
  V  V39  1  0.25202548  0.24616328  0.49806507  1
  V  V40  1  0.87546204  0.87605767  0.49929590  1
  V  V41  1  0.12824661  0.12517594  0.49853267  1
  V  V42  1  0.74630781  0.62630925  0.87461070  1
  V  V43  1  0.50039546  0.12448692  0.12721433  1
  V  V44  1  0.87606672  0.50040264  0.37334088  1
  V  V45  1  -0.00726288  0.87497223  0.87788979  1
  V  V46  1  0.00069019  0.37462484  0.37564444  1
  V  V47  1  0.75118736  0.37463595  0.62522401  1
  V  V48  1  0.87402282  0.74997283  0.62296287  1
  V  V49  1  0.24921160  0.24981687  0.00165984  1
  V  V50  1  0.49948025  0.75000419  0.75292224  1
  V  V51  1  0.12586220  0.87574443  0.25136075  1
  V  V52  1  -0.00091453  0.62424236  0.62176400  1
  V  V53  1  0.11843932  0.12528861  0.00394423  1
  V  V54  1  0.87752722  0.24980641  0.12499123  1
  V  V55  1  0.12346279  0.24901817  0.87501416  1
  V  V56  1  0.62425366  0.50088632  0.62438277  1
  V  V57  1  0.12655349  0.00003841  0.62520324  1
  V  V58  1  0.37349808  0.75101259  0.12449549  1
  V  V59  1  0.87838361  0.12513050  0.24551896  1
  V  V60  1  0.12647776  0.37465098  0.74845728  1
  V  V61  1  0.12099789  0.00481186  0.12595042  1
  V  V62  1  0.37467315  0.12504408  0.75173206  1
  V  V63  1  -0.00467324  -0.00293126  0.00031377  1
  V  V64  1  0.62501666  -0.00040574  0.12442003  1
  V  V65  1  0.37362955  -0.00073586  0.87779999  1
  V  V66  1  0.74886080  0.24887377  0.00026035  1
  V  V67  1  0.00178575  -0.00073983  0.49913735  1
  V  V68  1  0.25071977  0.00283048  0.25269978  1
  V  V69  1  0.76437342  0.87198938  0.12147699  1
  V  V70  1  0.74951019  0.75030202  0.49760763  1
  V  V71  1  0.12425364  0.62387441  0.49956268  1
  V  V72  1  0.62293394  0.37413353  0.75217429  1
  V  V73  1  0.24983205  0.87538305  0.12558626  1
  V  V74  1  0.49928917  0.24981276  0.75174627  1
  V  V75  1  0.62383118  0.88056020  0.74804361  1
  V  V76  1  0.00008517  0.24804823  0.74973590  1
  V  V77  1  0.24885470  0.12355961  0.87695043  1
  V  V78  1  0.12431551  0.87617971  0.74909796  1
  V  V79  1  0.12737138  0.74419026  0.87411589  1
  V  V80  1  0.00111665  0.87497253  0.37544749  1
  V  V81  1  0.37242446  0.00207664  0.37713215  1
  V  V82  1  0.87273351  0.62415595  0.74726886  1
  V  V83  1  -0.00079635  0.75051605  0.74846692  1
  V  V84  1  0.00015828  0.12432017  0.62494148  1
  V  V85  1  0.49854240  -0.00014319  0.00220294  1
  V  V86  1  0.25131080  0.62497322  0.37512693  1
  V  V87  1  0.00164694  0.24702634  0.24551121  1
  V  V88  1  0.50055162  0.24912154  0.25143124  1
  V  V89  1  0.50701905  -0.00055780  0.50413525  1
  V  V90  1  0.37639019  0.37451694  0.50089653  1
  V  V91  1  0.62538962  0.87283681  0.24839290  1
  V  V92  1  0.37470600  0.74993265  0.62546277  1
  Zn  Zn93  1  0.74854829  0.50093388  0.74972906  1
  Zn  Zn94  1  0.87678982  0.00150405  0.37441880  1
  Zn  Zn95  1  0.37518111  0.24998723  0.12624808  1
  Zn  Zn96  1  0.12539079  0.49849775  0.62525329  1
  Zn  Zn97  1  0.00069467  0.49849905  0.50007043  1
  Zn  Zn98  1  0.74498686  0.00169916  0.74905572  1
  Zn  Zn99  1  -0.00783345  0.63701456  0.11383434  1
  Zn  Zn100  1  0.62310216  0.12609499  0.00102568  1
  Zn  Zn101  1  0.25067493  0.87561607  0.62523573  1
  Zn  Zn102  1  0.87596378  0.24979375  0.62475991  1
  Zn  Zn103  1  0.24621145  0.50286064  0.75025602  1
  Zn  Zn104  1  0.87730484  0.37474173  0.50168234  1
  Zn  Zn105  1  0.87060656  0.63143145  0.24187527  1
  Zn  Zn106  1  -0.00270947  0.37291740  0.87180214  1
  Zn  Zn107  1  0.87019745  -0.00597989  0.88050221  1
  Zn  Zn108  1  0.25155565  0.37798933  0.62605777  1
  Zn  Zn109  1  0.12683505  0.62185487  -0.00647398  1
  Zn  Zn110  1  0.50243547  0.87443670  0.37637659  1
  Zn  Zn111  1  0.49848631  0.37444944  0.87670642  1
  Zn  Zn112  1  0.12631700  0.75024686  0.37362218  1
  Zn  Zn113  1  0.62173152  0.25020409  0.87899842  1
  Zn  Zn114  1  0.62420113  0.74886348  0.37318087  1
  Zn  Zn115  1  0.37355726  0.87451927  0.00053477  1
  Zn  Zn116  1  0.62424002  0.62800914  0.00067541  1
  Zn  Zn117  1  0.24796527  0.50085861  0.25046248  1
  Zn  Zn118  1  0.62931744  0.11917676  0.50432481  1
  Zn  Zn119  1  0.12585438  0.37567302  0.25031524  1
  Zn  Zn120  1  0.49930653  0.50116786  0.50047364  1
  Zn  Zn121  1  0.62361366  0.75155810  0.87897723  1
  Zn  Zn122  1  0.18895543  0.18748039  0.18815296  1
  Zn  Zn123  1  0.18886325  0.18835969  0.68612095  1
  Zn  Zn124  1  0.18401588  0.68728375  0.18629996  1
  Zn  Zn125  1  0.18583769  0.68937116  0.68451413  1
  Zn  Zn126  1  0.68842914  0.18698887  0.18737779  1
  Zn  Zn127  1  0.68803028  0.19027221  0.69068855  1
  Zn  Zn128  1  0.68856982  0.68763511  0.18449011  1
  Zn  Zn129  1  0.68535144  0.69283303  0.68764095  1
  Zn  Zn130  1  0.31331024  0.31407800  0.31285231  1
  Zn  Zn131  1  0.31139560  0.31300758  0.81539213  1
  Zn  Zn132  1  0.31379815  0.81431969  0.31468900  1
  Zn  Zn133  1  0.31166037  0.81379283  0.81327996  1
  Zn  Zn134  1  0.81434986  0.31327080  0.31241488  1
  Zn  Zn135  1  0.81083946  0.30858292  0.81250594  1
  Zn  Zn136  1  0.81432263  0.81356572  0.31272129  1
  Zn  Zn137  1  0.80965628  0.80970423  0.81025435  1
  Zn  Zn138  1  0.19020404  0.43642765  0.43874855  1
  Zn  Zn139  1  0.18635760  0.43547139  0.93586219  1
  Zn  Zn140  1  0.18976639  0.93696139  0.43748118  1
  Zn  Zn141  1  0.18382017  0.93329334  0.93779526  1
  Zn  Zn142  1  0.68754712  0.43855011  0.43848030  1
  Zn  Zn143  1  0.68682997  0.43970384  0.93829056  1
  Zn  Zn144  1  0.69004283  0.93704057  0.43395543  1
  Zn  Zn145  1  0.68566247  0.93637109  0.93852806  1
  Zn  Zn146  1  0.31193959  0.06379439  0.06582350  1
  Zn  Zn147  1  0.31575476  0.06361595  0.56429028  1
  Zn  Zn148  1  0.31219794  0.56347065  0.06185493  1
  Zn  Zn149  1  0.31068641  0.56012903  0.56534367  1
  Zn  Zn150  1  0.81122482  0.06269502  0.06458387  1
  Zn  Zn151  1  0.81503830  0.06217287  0.56229871  1
  Zn  Zn152  1  0.81386246  0.56514138  0.06173068  1
  Zn  Zn153  1  0.81194132  0.56108141  0.55944204  1
  Zn  Zn154  1  0.43699778  0.43844362  0.18866827  1
  Zn  Zn155  1  0.43735085  0.43956262  0.68795449  1
  Zn  Zn156  1  0.43731498  0.93715692  0.18740052  1
  Zn  Zn157  1  0.43705680  0.93722588  0.68823303  1
  Zn  Zn158  1  0.93682284  0.43847164  0.18563446  1
  Zn  Zn159  1  0.93900737  0.43815034  0.68666280  1
  Zn  Zn160  1  0.94163303  0.93761275  0.18897881  1
  Zn  Zn161  1  0.93636392  0.93728108  0.68662782  1
  Zn  Zn162  1  0.06303791  0.06406830  0.31415810  1
  Zn  Zn163  1  0.06135661  0.06136145  0.81494774  1
  Zn  Zn164  1  0.06500093  0.56301193  0.31242110  1
  Zn  Zn165  1  0.05874952  0.56085718  0.80963725  1
  Zn  Zn166  1  0.56249324  0.06123625  0.31508317  1
  Zn  Zn167  1  0.56164154  0.06118160  0.81473862  1
  Zn  Zn168  1  0.56177286  0.56300996  0.31230893  1
  Zn  Zn169  1  0.55853672  0.56011193  0.81224599  1
  Zn  Zn170  1  0.44024025  0.18572741  0.43936580  1
  Zn  Zn171  1  0.43717814  0.18808090  0.93921587  1
  Zn  Zn172  1  0.43983201  0.68882557  0.43632518  1
  Zn  Zn173  1  0.43494884  0.68764052  0.93833081  1
  Zn  Zn174  1  0.93901419  0.18667240  0.43540591  1
  Zn  Zn175  1  0.93560756  0.18588697  0.93587370  1
  Zn  Zn176  1  0.93778589  0.68899100  0.43236128  1
  Zn  Zn177  1  0.93710822  0.68591983  0.93251312  1
  Zn  Zn178  1  0.06242759  0.31625915  0.06148424  1
  Zn  Zn179  1  0.06327123  0.31101529  0.56352411  1
  Zn  Zn180  1  0.06487326  0.81705320  0.06144138  1
  Zn  Zn181  1  0.06382681  0.81151316  0.56206783  1
  Zn  Zn182  1  0.56129794  0.31202622  0.06350316  1
  Zn  Zn183  1  0.56266131  0.30992274  0.56376383  1
  Zn  Zn184  1  0.56732678  0.81099088  0.06024422  1
  Zn  Zn185  1  0.56257607  0.81134347  0.56367540  1
  O  O186  1  0.13069095  0.11587989  0.11621598  1
  O  O187  1  0.11967867  0.11961578  0.61927832  1
  O  O188  1  0.11816248  0.61322800  0.12106461  1
  O  O189  1  0.11762561  0.62600265  0.61525221  1
  O  O190  1  0.61892912  0.11692369  0.12705931  1
  O  O191  1  0.61189894  0.12876686  0.62711343  1
  O  O192  1  0.61746326  0.61722237  0.12534657  1
  O  O193  1  0.62087384  0.62122553  0.62101149  1
  O  O194  1  0.38113744  0.37972167  0.38047720  1
  O  O195  1  0.37577199  0.38428447  0.88144939  1
  O  O196  1  0.37937550  0.88514232  0.38135178  1
  O  O197  1  0.38131081  0.88260900  0.87656267  1
  O  O198  1  0.88389517  0.38111438  0.37643970  1
  O  O199  1  0.87274930  0.38007427  0.87960491  1
  O  O200  1  0.88180227  0.87841425  0.38212008  1
  O  O201  1  0.88869821  0.87536459  0.86618152  1
  O  O202  1  0.26420224  -0.00350546  0.36997642  1
  O  O203  1  0.25252907  0.00410827  0.87120223  1
  O  O204  1  0.25694916  0.50592171  0.37312178  1
  O  O205  1  0.26281666  0.49785203  0.87441708  1
  O  O206  1  0.75410937  0.00653890  0.36693036  1
  O  O207  1  0.75257699  0.00888239  0.87507771  1
  O  O208  1  0.75701223  0.50361456  0.36952830  1
  O  O209  1  0.75520179  0.51018539  0.87418172  1
  O  O210  1  0.24009525  0.49285431  0.12228742  1
  O  O211  1  0.24446836  0.49502888  0.63090784  1
  O  O212  1  0.24084584  0.99579315  0.13124894  1
  O  O213  1  0.24450668  1.00046897  0.63216518  1
  O  O214  1  0.74365387  0.49360907  0.12905699  1
  O  O215  1  0.74455369  0.48978582  0.62509555  1
  O  O216  1  0.74535083  0.99147189  0.12876745  1
  O  O217  1  0.75402799  0.98559534  0.62545126  1
  O  O218  1  0.00071475  0.36520923  0.26018381  1
  O  O219  1  0.00769782  0.36696833  0.75056893  1
  O  O220  1  0.00617228  0.86807603  0.25526488  1
  O  O221  1  0.00497092  0.87002166  0.75556182  1
  O  O222  1  0.50526261  0.36928923  0.25583759  1
  O  O223  1  0.50923996  0.36897946  0.74893479  1
  O  O224  1  0.51065037  0.87022607  0.24783492  1
  O  O225  1  0.50551836  0.87053809  0.75521735  1
  O  O226  1  0.49275335  0.12930171  0.24705980  1
  O  O227  1  0.49457463  0.12848340  0.74539535  1
  O  O228  1  0.49395209  0.63110011  0.24432353  1
  O  O229  1  0.49165775  0.63081567  0.74511102  1
  O  O230  1  0.99129298  0.13675728  0.25641193  1
  O  O231  1  0.99322481  0.12790786  0.74602786  1
  O  O232  1  1.00322580  0.64240525  0.25309971  1
  O  O233  1  0.99289155  0.63122626  0.74233155  1
  O  O234  1  0.36695435  0.25604041  0.00305392  1
  O  O235  1  0.36912543  0.25320203  0.50325801  1
  O  O236  1  0.36449143  0.75225878  0.00589565  1
  O  O237  1  0.37180174  0.75451744  0.50554098  1
  O  O238  1  0.87042603  0.25367861  0.00546599  1
  O  O239  1  0.86305840  0.25069780  0.50040342  1
  O  O240  1  0.86132195  0.74535345  -0.00374684  1
  O  O241  1  0.86962233  0.75590511  0.50351363  1
  O  O242  1  0.13271410  0.24590406  0.49353832  1
  O  O243  1  0.12765102  0.24247576  0.99722573  1
  O  O244  1  0.13153247  0.74012233  0.49854423  1
  O  O245  1  0.12923591  0.74890633  0.99140556  1
  O  O246  1  0.63705086  0.24797354  0.49523298  1
  O  O247  1  0.63243474  0.24769885  0.99940132  1
  O  O248  1  0.63186039  0.74452453  0.49734494  1
  O  O249  1  0.63700107  0.74557088  0.99654066  1
  O  O250  1  0.49766356  0.24413681  0.13405446  1
  O  O251  1  0.49441464  0.24039438  0.63111586  1
  O  O252  1  0.49378338  0.74525994  0.12867357  1
  O  O253  1  0.49363461  0.74457606  0.63244004  1
  O  O254  1  0.99557975  0.25937722  0.13814062  1
  O  O255  1  0.99800397  0.24142635  0.63070578  1
  O  O256  1  1.00806715  0.75315945  0.13919981  1
  O  O257  1  0.99336140  0.74520251  0.62910596  1
  O  O258  1  0.00787553  0.25717033  0.36786584  1
  O  O259  1  0.00598872  0.24926590  0.86812218  1
  O  O260  1  0.00380374  0.75822867  0.36490458  1
  O  O261  1  0.00577375  0.75724852  0.86924345  1
  O  O262  1  0.50670921  0.25514482  0.37118179  1
  O  O263  1  0.50159159  0.25278362  0.86798129  1
  O  O264  1  0.50323822  0.75395418  0.36503462  1
  O  O265  1  0.49911657  0.75707896  0.87048275  1
  O  O266  1  0.24621760  0.13830797  0.50493840  1
  O  O267  1  0.24000963  0.12910769  0.99686376  1
  O  O268  1  0.24346678  0.63025272  0.49565985  1
  O  O269  1  0.24635901  0.64065647  1.00498689  1
  O  O270  1  0.74946649  0.13207467  0.49561580  1
  O  O271  1  0.74962085  0.12977644  0.99212904  1
  O  O272  1  0.74491498  0.63068374  0.49410365  1
  O  O273  1  0.74942742  0.63429425  0.99141537  1
  O  O274  1  0.25376287  0.36972569  0.00795200  1
  O  O275  1  0.25702297  0.36317840  0.50205735  1
  O  O276  1  0.24808014  0.86510977  0.00756830  1
  O  O277  1  0.25794109  0.86871700  0.50187872  1
  O  O278  1  0.75458659  0.36979696  0.00498357  1
  O  O279  1  0.74938702  0.36667692  0.50898989  1
  O  O280  1  0.74765513  0.86237989  0.00581185  1
  O  O281  1  0.75402151  0.87099254  0.50583585  1
  O  O282  1  0.12568749  0.49689109  0.23845493  1
  O  O283  1  0.12514408  0.48852175  0.75127916  1
  O  O284  1  0.12931782  0.99930966  0.24361197  1
  O  O285  1  0.12934587  0.99676325  0.74501725  1
  O  O286  1  0.62992975  0.49362229  0.24464587  1
  O  O287  1  0.62584685  0.49019332  0.74322952  1
  O  O288  1  0.63138755  0.99202175  0.24492266  1
  O  O289  1  0.62397195  0.98513747  0.75257534  1
  O  O290  1  0.37231982  0.00646811  0.25803430  1
  O  O291  1  0.36907158  0.00557680  0.75727184  1
  O  O292  1  0.37319817  0.50768191  0.25659613  1
  O  O293  1  0.37437306  0.50831892  0.75815750  1
  O  O294  1  0.87237306  0.01010965  0.24950342  1
  O  O295  1  0.87403906  0.01229922  0.75220867  1
  O  O296  1  0.86899676  0.49525580  0.26225170  1
  O  O297  1  0.87161265  0.50622665  0.75465379  1
  O  O298  1  0.11753782  0.36629055  0.37391000  1
  O  O299  1  0.12261151  0.36675701  0.86611822  1
  O  O300  1  0.11970104  0.87531333  0.36896974  1
  O  O301  1  0.11407547  0.86686974  0.86795585  1
  O  O302  1  0.62114479  0.37015696  0.36958073  1
  O  O303  1  0.62478531  0.37565836  0.86245617  1
  O  O304  1  0.62626753  0.87381638  0.35911073  1
  O  O305  1  0.61814246  0.87359868  0.86620818  1
  O  O306  1  0.38150702  0.12544339  0.13790199  1
  O  O307  1  0.38418541  0.13088766  0.63281973  1
  O  O308  1  0.37968322  0.63085485  0.13090685  1
  O  O309  1  0.38062552  0.63013353  0.63340131  1
  O  O310  1  0.86949343  0.13304629  0.13850250  1
  O  O311  1  0.88070361  0.12561337  0.63452894  1
  O  O312  1  0.88662547  0.60531051  0.13424208  1
  O  O313  1  0.87833201  0.63018372  0.62689513  1
  O  O314  1  0.25016612  0.26034344  0.12026452  1
  O  O315  1  0.25707367  0.25213753  0.61571992  1
  O  O316  1  0.25250256  0.75575795  0.11845911  1
  O  O317  1  0.25727628  0.75220487  0.61781435  1
  O  O318  1  0.75622106  0.25596437  0.12044346  1
  O  O319  1  0.75007233  0.25743806  0.61715121  1
  O  O320  1  0.74869182  0.75583396  0.11162845  1
  O  O321  1  0.75571264  0.75874673  0.61790836  1
  O  O322  1  0.23983016  0.25743734  0.38385750  1
  O  O323  1  0.24364000  0.24284979  0.88260596  1
  O  O324  1  0.25057589  0.74335393  0.38231694  1
  O  O325  1  0.23792861  0.75950743  0.88445954  1
  O  O326  1  0.74649660  0.24682942  0.38213282  1
  O  O327  1  0.74798337  0.23925327  0.88155708  1
  O  O328  1  0.74972861  0.74357987  0.37981376  1
  O  O329  1  0.74981448  0.74247053  0.88457454  1
  O  O330  1  0.01330969  0.11699756  -0.00664879  1
  O  O331  1  0.00669497  0.12018740  0.50468676  1
  O  O332  1  0.00045977  0.61149516  -0.00284005  1
  O  O333  1  0.00877577  0.62660481  0.50230742  1
  O  O334  1  0.49976277  0.11874965  0.00884462  1
  O  O335  1  0.50244372  0.11760084  0.50998244  1
  O  O336  1  0.49962273  0.61901729  0.00740616  1
  O  O337  1  0.50679554  0.62540795  0.50747528  1
  O  O338  1  0.49488345  0.37414129  0.49393038  1
  O  O339  1  0.49236154  0.38208411  1.00128127  1
  O  O340  1  0.49500870  0.88320109  0.50125289  1
  O  O341  1  0.49864699  0.88171413  0.99533029  1
  O  O342  1  0.99952144  0.37424810  0.48797071  1
  O  O343  1  0.99319159  0.38282750  0.99506433  1
  O  O344  1  0.99574301  0.87923562  0.49568097  1
  O  O345  1  1.00716164  0.88518848  0.98920515  1
  O  O346  1  0.49405634  0.49298773  0.37654743  1
  O  O347  1  0.48905893  0.49734412  0.88202802  1
  O  O348  1  0.49060497  0.99823278  0.38459672  1
  O  O349  1  0.49294419  0.99584690  0.88220847  1
  O  O350  1  0.99385848  0.49106998  0.37295790  1
  O  O351  1  0.99260908  0.49720660  0.88255671  1
  O  O352  1  1.00040888  0.99365462  0.38152524  1
  O  O353  1  0.99996714  0.99121714  0.88321962  1
  O  O354  1  0.01395674  -0.00742390  0.11681077  1
  O  O355  1  0.00666675  0.00465009  0.61895175  1
  O  O356  1  0.01069786  0.49057637  0.11278508  1
  O  O357  1  0.00209835  0.50818113  0.61951121  1
  O  O358  1  0.50489812  0.00472636  0.12176348  1
  O  O359  1  0.49187378  0.00962107  0.61579962  1
  O  O360  1  0.50399701  0.50539225  0.12035134  1
  O  O361  1  0.50661677  0.50766144  0.62361408  1
  O  O362  1  0.24902719  0.37690412  0.23828778  1
  O  O363  1  0.23706178  0.37267133  0.74979320  1
  O  O364  1  0.24540066  0.88260928  0.24596336  1
  O  O365  1  0.24251546  0.88252236  0.74906568  1
  O  O366  1  0.74467207  0.37942912  0.24446451  1
  O  O367  1  0.74124698  0.37264591  0.74036103  1
  O  O368  1  0.74459612  0.87788315  0.24160069  1
  O  O369  1  0.74213777  0.87519326  0.74245865  1
  O  O370  1  0.26333550  0.11960626  0.24577483  1
  O  O371  1  0.25449138  0.12019564  0.75679485  1
  O  O372  1  0.25567646  0.62499611  0.25603590  1
  O  O373  1  0.26329504  0.62695474  0.74538764  1
  O  O374  1  0.75850313  0.12042384  0.25429585  1
  O  O375  1  0.75635651  0.12364295  0.75691549  1
  O  O376  1  0.75010484  0.61824770  0.25523176  1
  O  O377  1  0.75457267  0.62710659  0.75753978  1
  O  O378  1  0.38272518  0.11545654  0.36568751  1
  O  O379  1  0.36818413  0.11936902  0.87121625  1
  O  O380  1  0.37084545  0.62006286  0.37030422  1
  O  O381  1  0.37965661  0.61673749  0.86489228  1
  O  O382  1  0.86953749  0.12572860  0.36286904  1
  O  O383  1  0.86495432  0.12309529  0.86706535  1
  O  O384  1  0.86978118  0.61543581  0.36997699  1
  O  O385  1  0.86555046  0.61963926  0.86717924  1
  O  O386  1  0.13499792  0.38348468  0.12413096  1
  O  O387  1  0.12493793  0.37410284  0.63665558  1
  O  O388  1  0.13146953  0.88601791  0.13157801  1
  O  O389  1  0.12574496  0.88204675  0.63112331  1
  O  O390  1  0.62974933  0.38045792  0.13137399  1
  O  O391  1  0.63180493  0.37855576  0.63234263  1
  O  O392  1  0.63346165  0.87980215  0.13423220  1
  O  O393  1  0.63463979  0.86724393  0.63489082  1
  O  O394  1  0.11869910  0.24930620  0.25739355  1
  O  O395  1  0.11985504  0.25408196  0.75508426  1
  O  O396  1  0.11738169  0.75812539  0.25241532  1
  O  O397  1  0.11903731  0.75537134  0.75488950  1
  O  O398  1  0.62105821  0.25582319  0.25581705  1
  O  O399  1  0.61833709  0.25993776  0.75210239  1
  O  O400  1  0.62030914  0.75883416  0.24730334  1
  O  O401  1  0.61723841  0.76013628  0.75426238  1
  O  O402  1  0.38106794  0.24129561  0.25218424  1
  O  O403  1  0.37919127  0.24425621  0.74689226  1
  O  O404  1  0.37976346  0.74579342  0.24423757  1
  O  O405  1  0.37929607  0.74391182  0.74711061  1
  O  O406  1  0.88228888  0.24451362  0.24594024  1
  O  O407  1  0.87989910  0.23724124  0.74916416  1
  O  O408  1  0.89177715  0.75174688  0.25243773  1
  O  O409  1  0.87976905  0.74385565  0.74263353  1
  O  O410  1  0.37646424  0.49284226  0.49383114  1
  O  O411  1  0.37844756  0.49689041  0.99341448  1
  O  O412  1  0.38217590  0.99670425  0.49396511  1
  O  O413  1  0.37906395  0.99888228  0.99558182  1
  O  O414  1  0.87634325  0.49714528  0.48510986  1
  O  O415  1  0.88157195  0.49318759  0.99320391  1
  O  O416  1  0.88407444  0.99411057  0.49860568  1
  O  O417  1  0.89215298  1.01038377  1.00097534  1
  O  O418  1  0.11911286  0.00702229  0.00691093  1
  O  O419  1  0.12214379  0.00551833  0.50451787  1
  O  O420  1  0.11683459  0.50039958  0.00323951  1
  O  O421  1  0.12407690  0.51258386  0.49987972  1
  O  O422  1  0.61736815  0.00157587  0.00786297  1
  O  O423  1  0.61132084  -0.00012429  0.49265568  1
  O  O424  1  0.61777350  0.50218001  0.00677916  1
  O  O425  1  0.62379606  0.50744751  0.50681138  1
  O  O426  1  0.36410612  0.37641422  0.11947018  1
  O  O427  1  0.37683759  0.36713370  0.61938737  1
  O  O428  1  0.36711436  0.86901417  0.12521607  1
  O  O429  1  0.37391155  0.86770010  0.61978123  1
  O  O430  1  0.86840487  0.36989922  0.11833859  1
  O  O431  1  0.86387299  0.37286085  0.62378422  1
  O  O432  1  0.86272271  0.87998406  0.12926417  1
  O  O433  1  0.86715452  0.86918933  0.61969357  1
  O  O434  1  0.12035084  0.13898011  0.38183707  1
  O  O435  1  0.13043578  0.12872433  0.88380850  1
  O  O436  1  0.13206972  0.62655794  0.38399956  1
  O  O437  1  0.11778896  0.64059905  0.87152838  1
  O  O438  1  0.63308248  0.13210427  0.37546612  1
  O  O439  1  0.63648935  0.12597256  0.87566816  1
  O  O440  1  0.63212118  0.62510468  0.38090345  1
  O  O441  1  0.63647571  0.62407975  0.87328696  1
