# generated using pymatgen
data_V93Zn93O256
_symmetry_space_group_name_H-M   'P 1'
_cell_length_a   17.04223939
_cell_length_b   17.04699651
_cell_length_c   17.05007192
_cell_angle_alpha   90.00081645
_cell_angle_beta   90.02923962
_cell_angle_gamma   90.07843438
_symmetry_Int_Tables_number   1
_chemical_formula_structural   V93Zn93O256
_chemical_formula_sum   'V93 Zn93 O256'
_cell_volume   4953.36447827
_cell_formula_units_Z   1
loop_
 _symmetry_equiv_pos_site_id
 _symmetry_equiv_pos_as_xyz
  1  'x, y, z'
loop_
 _atom_site_type_symbol
 _atom_site_label
 _atom_site_symmetry_multiplicity
 _atom_site_fract_x
 _atom_site_fract_y
 _atom_site_fract_z
 _atom_site_occupancy
  V  V0  1  -0.00765040  0.37293213  0.87817552  1
  V  V1  1  0.62331806  0.75226096  0.37330252  1
  V  V2  1  0.38325362  0.37944337  0.00122814  1
  V  V3  1  0.12442149  0.49822765  0.12491922  1
  V  V4  1  0.87554708  0.24961946  0.62592973  1
  V  V5  1  0.75511517  0.25474610  -0.00135731  1
  V  V6  1  0.25102125  0.25022481  0.50199242  1
  V  V7  1  0.37489982  0.00192933  0.37570616  1
  V  V8  1  0.37564878  0.37682469  0.50034947  1
  V  V9  1  0.24817816  0.75049278  0.50070590  1
  V  V10  1  0.49987115  0.75185054  0.74893669  1
  V  V11  1  0.37435023  0.62610364  0.24927853  1
  V  V12  1  0.37566942  0.12710205  0.25094988  1
  V  V13  1  0.87629716  0.25420128  0.12078945  1
  V  V14  1  0.87333174  0.74341075  0.62731514  1
  V  V15  1  0.00058550  0.74861756  0.24949181  1
  V  V16  1  0.62754580  0.12604862  -0.00095769  1
  V  V17  1  0.37587241  0.25209029  0.12480413  1
  V  V18  1  0.87496541  0.74690616  0.12447501  1
  V  V19  1  0.50061119  0.87612204  0.87432822  1
  V  V20  1  0.62722943  -0.00050309  0.12393161  1
  V  V21  1  0.50130416  0.12529160  0.12534472  1
  V  V22  1  -0.00050815  0.24823281  0.75287248  1
  V  V23  1  0.62713087  0.00147642  0.62795340  1
  V  V24  1  0.12561711  0.25077908  0.37639913  1
  V  V25  1  0.24925882  0.12634770  0.87640670  1
  V  V26  1  -0.00045903  0.49927245  0.49989180  1
  V  V27  1  0.24954409  0.87702467  0.62617201  1
  V  V28  1  0.75378657  0.50449505  0.74759196  1
  V  V29  1  -0.00569492  0.74267668  0.75003549  1
  V  V30  1  0.62250478  0.49952688  0.11587492  1
  V  V31  1  0.61848702  0.37178948  0.74889076  1
  V  V32  1  0.62864838  0.37747308  0.24785754  1
  V  V33  1  0.49999980  0.62626848  0.62331716  1
  V  V34  1  0.37507190  0.00170440  0.87582102  1
  V  V35  1  0.12313957  0.74876256  0.87374015  1
  V  V36  1  0.24816184  0.00097555  0.24725884  1
  V  V37  1  0.12426142  0.62369260  0.00062377  1
  V  V38  1  0.00581227  -0.00133228  0.00440148  1
  V  V39  1  0.62470591  0.49990751  0.62411641  1
  V  V40  1  0.87465989  0.50516372  0.87024943  1
  V  V41  1  0.86858639  0.11925801  0.75049126  1
  V  V42  1  0.37368856  0.87676661  0.50014776  1
  V  V43  1  0.50053351  0.13027544  0.63258864  1
  V  V44  1  0.00619509  0.12026166  0.12579002  1
  V  V45  1  0.37464220  0.75042813  0.12482343  1
  V  V46  1  0.25046342  0.12596744  0.37583312  1
  V  V47  1  0.24866107  0.75085239  -0.00010086  1
  V  V48  1  0.75102204  0.62383598  0.37107437  1
  V  V49  1  0.74956869  0.75115085  0.49990698  1
  V  V50  1  0.37415285  0.75129871  0.62519813  1
  V  V51  1  0.24786209  0.87967358  0.12497517  1
  V  V52  1  0.12436634  0.87942586  0.24469373  1
  V  V53  1  0.37436290  0.62547612  0.74982534  1
  V  V54  1  0.37865980  0.25153509  0.63299747  1
  V  V55  1  0.87006320  -0.00108469  0.87144717  1
  V  V56  1  0.12536263  0.49853141  0.62643420  1
  V  V57  1  0.62559122  0.25103490  0.37436755  1
  V  V58  1  0.50007635  0.87624383  0.37443314  1
  V  V59  1  0.62024937  0.24957305  0.87129565  1
  V  V60  1  0.24975053  0.62466402  0.87585363  1
  V  V61  1  0.74745736  0.74414978  -0.00159682  1
  V  V62  1  0.75021950  0.87982400  0.62862217  1
  V  V63  1  0.12488054  0.12552090  0.50173263  1
  V  V64  1  0.62495321  0.12737627  0.50042211  1
  V  V65  1  0.50163208  0.25137181  0.25041177  1
  V  V66  1  0.62545225  0.74972622  0.87390959  1
  V  V67  1  0.37468755  0.50169471  0.37453844  1
  V  V68  1  0.12578613  0.37483409  0.24997734  1
  V  V69  1  -0.00012590  -0.00140538  0.50007460  1
  V  V70  1  0.50111632  0.00038000  0.00005855  1
  V  V71  1  0.12506149  0.25045397  0.87821444  1
  V  V72  1  0.87498443  0.87381396  -0.00080834  1
  V  V73  1  0.00074023  0.12325901  0.62661317  1
  V  V74  1  0.12361682  0.62594446  0.49926509  1
  V  V75  1  -0.00736563  0.49386769  0.00033094  1
  V  V76  1  0.49907249  0.00241467  0.50093081  1
  V  V77  1  0.62305845  0.62492447  0.49820210  1
  V  V78  1  0.74886030  0.87484106  0.12674135  1
  V  V79  1  -0.00077147  0.87350126  0.37566461  1
  V  V80  1  -0.00044832  0.87302448  0.87455816  1
  V  V81  1  0.24904369  -0.00023121  0.75105717  1
  V  V82  1  0.37482583  0.87562276  0.00056550  1
  V  V83  1  0.49952072  0.62184998  0.11648542  1
  V  V84  1  0.24869620  0.50019756  0.75133020  1
  V  V85  1  0.38348595  0.50092762  0.87930437  1
  V  V86  1  0.00013551  0.37362525  0.37583635  1
  V  V87  1  -0.00009686  0.24701165  0.24986141  1
  V  V88  1  0.75181354  0.12350506  0.37387485  1
  V  V89  1  0.62641964  0.87902829  0.74852792  1
  V  V90  1  -0.00071957  0.62371669  0.12544783  1
  V  V91  1  0.25069220  0.37503469  0.12479371  1
  V  V92  1  0.87372682  0.37351082  0.50051381  1
  Zn  Zn93  1  0.87368421  0.87534951  0.50043367  1
  Zn  Zn94  1  0.12597823  0.74906919  0.37446493  1
  Zn  Zn95  1  0.25147485  0.25030818  0.00076790  1
  Zn  Zn96  1  0.50158926  0.37742027  0.37446849  1
  Zn  Zn97  1  0.87517607  0.12116933  0.24887907  1
  Zn  Zn98  1  0.12935182  0.11924595  0.00598911  1
  Zn  Zn99  1  0.74848055  0.37344526  0.62483403  1
  Zn  Zn100  1  0.74863714  0.12191028  0.87284930  1
  Zn  Zn101  1  0.75653863  0.37954739  0.12000299  1
  Zn  Zn102  1  0.61906645  0.61735654  -0.00749123  1
  Zn  Zn103  1  0.50108511  0.37473766  0.87549136  1
  Zn  Zn104  1  0.25055354  0.37318976  0.62928412  1
  Zn  Zn105  1  0.12289481  0.87314314  0.74843875  1
  Zn  Zn106  1  0.24975180  0.62789454  0.37363374  1
  Zn  Zn107  1  0.24842532  0.50152730  0.24973091  1
  Zn  Zn108  1  0.87401915  0.49827502  0.37242111  1
  Zn  Zn109  1  0.49965332  0.50158511  0.49938248  1
  Zn  Zn110  1  0.12513043  0.37462675  0.75144670  1
  Zn  Zn111  1  0.75095906  -0.00055880  0.25131415  1
  Zn  Zn112  1  0.37937270  0.13191807  0.75461603  1
  Zn  Zn113  1  0.49998835  0.75366890  0.24837222  1
  Zn  Zn114  1  0.74984623  0.25034810  0.50070113  1
  Zn  Zn115  1  0.62245895  0.87619616  0.25004126  1
  Zn  Zn116  1  -0.00727431  0.62079443  0.62932015  1
  Zn  Zn117  1  0.87614198  0.62080558  0.25006592  1
  Zn  Zn118  1  0.75137406  0.62595759  0.86905303  1
  Zn  Zn119  1  0.75281846  0.49996216  0.24640112  1
  Zn  Zn120  1  0.12489299  -0.00059769  0.62732927  1
  Zn  Zn121  1  0.87324938  -0.00104343  0.37269338  1
  Zn  Zn122  1  0.18830663  0.18936307  0.18847603  1
  Zn  Zn123  1  0.18826550  0.18756079  0.68931617  1
  Zn  Zn124  1  0.18653869  0.68995691  0.18690166  1
  Zn  Zn125  1  0.18468426  0.68694105  0.68751730  1
  Zn  Zn126  1  0.68996818  0.18843741  0.18688772  1
  Zn  Zn127  1  0.68964254  0.18969435  0.68647287  1
  Zn  Zn128  1  0.68328083  0.68725666  0.18795728  1
  Zn  Zn129  1  0.68707658  0.68841388  0.68661862  1
  Zn  Zn130  1  0.31209918  0.31430475  0.31271628  1
  Zn  Zn131  1  0.31131053  0.31748978  0.81452348  1
  Zn  Zn132  1  0.31104689  0.81232208  0.31348946  1
  Zn  Zn133  1  0.31226046  0.81331196  0.81313294  1
  Zn  Zn134  1  0.81342051  0.30814151  0.31018752  1
  Zn  Zn135  1  0.80806604  0.31286228  0.81097542  1
  Zn  Zn136  1  0.81459573  0.80866455  0.31117662  1
  Zn  Zn137  1  0.81255126  0.81231394  0.81046288  1
  Zn  Zn138  1  0.19031659  0.43868486  0.43791231  1
  Zn  Zn139  1  0.18897364  0.43621150  0.93967247  1
  Zn  Zn140  1  0.18564741  0.93781599  0.43559012  1
  Zn  Zn141  1  0.18637182  0.93495785  0.93553057  1
  Zn  Zn142  1  0.68802344  0.43881030  0.43636298  1
  Zn  Zn143  1  0.69036617  0.43407787  0.93385129  1
  Zn  Zn144  1  0.68568215  0.93889954  0.44123972  1
  Zn  Zn145  1  0.68772400  0.93468591  0.93888996  1
  Zn  Zn146  1  0.31355634  0.06275911  0.06370307  1
  Zn  Zn147  1  0.31369346  0.06516453  0.56475691  1
  Zn  Zn148  1  0.31139581  0.56093442  0.06242039  1
  Zn  Zn149  1  0.30966916  0.56318879  0.56301030  1
  Zn  Zn150  1  0.81656277  0.06510080  0.06031954  1
  Zn  Zn151  1  0.81346057  0.06273938  0.56062081  1
  Zn  Zn152  1  0.81176227  0.55971147  0.06226030  1
  Zn  Zn153  1  0.80946377  0.56074683  0.55927905  1
  Zn  Zn154  1  0.44040060  0.43975288  0.18778756  1
  Zn  Zn155  1  0.43802281  0.43970447  0.68826295  1
  Zn  Zn156  1  0.43645859  0.93927754  0.18829958  1
  Zn  Zn157  1  0.43725489  0.94155304  0.68817370  1
  Zn  Zn158  1  0.93753424  0.43619689  0.19060351  1
  Zn  Zn159  1  0.93908492  0.43499921  0.68905477  1
  Zn  Zn160  1  0.93403032  0.93798782  0.18888933  1
  Zn  Zn161  1  0.93697839  0.93326050  0.68775417  1
  Zn  Zn162  1  0.06324194  0.06139666  0.31355752  1
  Zn  Zn163  1  0.06073514  0.06165131  0.81587626  1
  Zn  Zn164  1  0.06099837  0.56067298  0.31334025  1
  Zn  Zn165  1  0.06147227  0.56227175  0.81368065  1
  Zn  Zn166  1  0.56591680  0.06168357  0.31105883  1
  Zn  Zn167  1  0.56535384  0.06235896  0.81234817  1
  Zn  Zn168  1  0.56101893  0.56336194  0.30790364  1
  Zn  Zn169  1  0.56560594  0.56354437  0.80786132  1
  Zn  Zn170  1  0.43972655  0.19045141  0.43987960  1
  Zn  Zn171  1  0.43766064  0.18929376  0.94043727  1
  Zn  Zn172  1  0.43708425  0.69010113  0.43688359  1
  Zn  Zn173  1  0.43651760  0.68948993  0.93609737  1
  Zn  Zn174  1  0.93714321  0.18664417  0.43806361  1
  Zn  Zn175  1  0.93753127  0.18271932  0.93958572  1
  Zn  Zn176  1  0.93608913  0.68851307  0.44009368  1
  Zn  Zn177  1  0.93668774  0.68456375  0.93815755  1
  Zn  Zn178  1  0.06254925  0.31003715  0.06237518  1
  Zn  Zn179  1  0.06083293  0.31231400  0.56401741  1
  Zn  Zn180  1  0.06226657  0.81190684  0.06309241  1
  Zn  Zn181  1  0.06243363  0.81265245  0.56642121  1
  Zn  Zn182  1  0.56565618  0.31178283  0.06142822  1
  Zn  Zn183  1  0.56142580  0.31356444  0.56162683  1
  Zn  Zn184  1  0.56217807  0.81002804  0.06212413  1
  Zn  Zn185  1  0.56280519  0.81333907  0.56046084  1
  O  O186  1  0.11173925  0.13140345  0.12369115  1
  O  O187  1  0.11871535  0.12352374  0.61988783  1
  O  O188  1  0.11925077  0.61923441  0.11968368  1
  O  O189  1  0.12313283  0.61493096  0.61585955  1
  O  O190  1  0.62018560  0.12025975  0.11906047  1
  O  O191  1  0.61888201  0.12288490  0.62155121  1
  O  O192  1  0.61605955  0.61756259  0.12282016  1
  O  O193  1  0.61949651  0.62114759  0.61839170  1
  O  O194  1  0.37529909  0.38361101  0.38270527  1
  O  O195  1  0.37795706  0.38315799  0.88274215  1
  O  O196  1  0.37856019  0.88259084  0.38112101  1
  O  O197  1  0.38078438  0.88067481  0.88123468  1
  O  O198  1  0.88127396  0.37174691  0.38435783  1
  O  O199  1  0.88727237  0.38152674  0.87137637  1
  O  O200  1  0.88807816  0.87440468  0.37660059  1
  O  O201  1  0.87982392  0.88022711  0.87909651  1
  O  O202  1  0.25579944  0.00678044  0.36976273  1
  O  O203  1  0.25468845  0.00661911  0.87025143  1
  O  O204  1  0.26229440  0.50397465  0.37246242  1
  O  O205  1  0.25705550  0.50644116  0.87082194  1
  O  O206  1  0.74956920  0.01016519  0.37642078  1
  O  O207  1  0.76610988  -0.00086319  0.88288687  1
  O  O208  1  0.75003956  0.51254668  0.37244560  1
  O  O209  1  0.75939698  0.49863487  0.86730153  1
  O  O210  1  0.24149936  0.49338741  0.12592523  1
  O  O211  1  0.24071688  0.49967268  0.63180553  1
  O  O212  1  0.25714386  0.99276809  0.13400728  1
  O  O213  1  0.25090356  0.99717803  0.63559929  1
  O  O214  1  0.74016267  0.49766946  0.12690734  1
  O  O215  1  0.74373106  0.49758766  0.63122260  1
  O  O216  1  0.74674994  0.98869764  0.11895941  1
  O  O217  1  0.74416109  0.98800890  0.61695202  1
  O  O218  1  0.00678536  0.36694424  0.25620291  1
  O  O219  1  0.00337241  0.36704071  0.76118799  1
  O  O220  1  0.00659529  0.87073099  0.25546141  1
  O  O221  1  0.00112840  0.86328046  0.75656477  1
  O  O222  1  0.51074671  0.36970308  0.25074604  1
  O  O223  1  0.51444925  0.37997057  0.75194399  1
  O  O224  1  0.49976582  0.87516667  0.25870552  1
  O  O225  1  0.50398575  0.87081110  0.75482936  1
  O  O226  1  0.49533506  0.13036734  0.24478742  1
  O  O227  1  0.49848332  0.12065728  0.73641887  1
  O  O228  1  0.48783344  0.62825097  0.23982315  1
  O  O229  1  0.49417411  0.63275473  0.74335212  1
  O  O230  1  1.00158072  0.12907664  0.24281959  1
  O  O231  1  0.99221925  0.12892787  0.74624600  1
  O  O232  1  1.00125389  0.63077439  0.24321595  1
  O  O233  1  1.00264627  0.63815319  0.74910991  1
  O  O234  1  0.37370601  0.25963209  0.00703141  1
  O  O235  1  0.37062168  0.25882647  0.50712223  1
  O  O236  1  0.36793468  0.75642231  0.00390361  1
  O  O237  1  0.36894160  0.75693309  0.50644869  1
  O  O238  1  0.86681161  0.24196293  0.00796976  1
  O  O239  1  0.87772092  0.25888213  0.50712182  1
  O  O240  1  0.86719304  0.75374911  0.00338004  1
  O  O241  1  0.86867997  0.75467973  0.50931628  1
  O  O242  1  0.13024195  0.24549385  0.49644718  1
  O  O243  1  0.12766843  0.24675946  0.98812217  1
  O  O244  1  0.12839172  0.74008260  0.50239953  1
  O  O245  1  0.12892825  0.74376195  0.99465425  1
  O  O246  1  0.62576217  0.24533142  0.49294058  1
  O  O247  1  0.63340916  0.24463759  0.99283131  1
  O  O248  1  0.62971606  0.74455086  0.49375739  1
  O  O249  1  0.63375774  0.74985248  0.99250657  1
  O  O250  1  0.49607593  0.24421737  0.13051754  1
  O  O251  1  0.49064534  0.24066117  0.61875112  1
  O  O252  1  0.49268576  0.74227819  0.12631395  1
  O  O253  1  0.49374504  0.74692599  0.62969049  1
  O  O254  1  0.99456676  0.24203015  0.12828993  1
  O  O255  1  0.99564007  0.24328521  0.63228062  1
  O  O256  1  0.99466511  0.74335939  0.12841913  1
  O  O257  1  0.99046511  0.74960947  0.63290723  1
  O  O258  1  0.00705804  0.25334491  0.37098157  1
  O  O259  1  0.00550033  0.25481723  0.87430255  1
  O  O260  1  0.00156518  0.75837137  0.37008984  1
  O  O261  1  0.00182276  0.75266479  0.86925725  1
  O  O262  1  0.50726117  0.25147166  0.36779310  1
  O  O263  1  0.51633901  0.24994210  0.88059228  1
  O  O264  1  0.50503845  0.75872376  0.37442863  1
  O  O265  1  0.50407984  0.75692024  0.86888744  1
  O  O266  1  0.24533836  0.12999385  0.49499266  1
  O  O267  1  0.24903832  0.12472109  0.98903321  1
  O  O268  1  0.23992151  0.63155268  0.50061171  1
  O  O269  1  0.24419902  0.63111341  0.99588215  1
  O  O270  1  0.74351230  0.12652148  0.49189699  1
  O  O271  1  0.74422235  0.13376008  0.99794011  1
  O  O272  1  0.74264773  0.63075232  0.49062906  1
  O  O273  1  0.74904914  0.63707508  0.99782889  1
  O  O274  1  0.26105597  0.37285843  0.00662165  1
  O  O275  1  0.26100675  0.36979266  0.50255539  1
  O  O276  1  0.25487176  0.87090135  0.00418293  1
  O  O277  1  0.25449387  0.87215070  0.50564375  1
  O  O278  1  0.74667902  0.35914647  0.00172962  1
  O  O279  1  0.76249633  0.37390985  0.50025450  1
  O  O280  1  0.75469610  0.86402241  0.00724286  1
  O  O281  1  0.74916872  0.86840272  0.51026761  1
  O  O282  1  0.12445797  0.49265934  0.24302721  1
  O  O283  1  0.12881937  0.50189686  0.74152136  1
  O  O284  1  0.13207849  0.98755744  0.25691725  1
  O  O285  1  0.13758388  0.99834047  0.75250852  1
  O  O286  1  0.62605824  0.49138205  0.24092892  1
  O  O287  1  0.63275657  0.49195606  0.74446696  1
  O  O288  1  0.63004195  0.99656920  0.23961138  1
  O  O289  1  0.61982811  0.99156241  0.74107828  1
  O  O290  1  0.36963368  0.00834477  0.25674911  1
  O  O291  1  0.36488158  0.00289419  0.75754221  1
  O  O292  1  0.37374938  0.50870437  0.25681946  1
  O  O293  1  0.36872299  0.50622765  0.75768929  1
  O  O294  1  0.86898652  0.00331451  0.25466476  1
  O  O295  1  0.88359385  0.00748308  0.75984973  1
  O  O296  1  0.87145744  0.50248499  0.25412248  1
  O  O297  1  0.86578148  0.49255972  0.75738856  1
  O  O298  1  0.12104584  0.36971585  0.37159086  1
  O  O299  1  0.11655714  0.36607366  0.87518069  1
  O  O300  1  0.11489230  0.87300965  0.36622425  1
  O  O301  1  0.11757991  0.86527353  0.87382984  1
  O  O302  1  0.62410329  0.37109800  0.36548644  1
  O  O303  1  0.62267604  0.36776630  0.86735219  1
  O  O304  1  0.61814765  0.87044927  0.37584975  1
  O  O305  1  0.61960832  0.87081809  0.86918691  1
  O  O306  1  0.38134486  0.13129928  0.13105542  1
  O  O307  1  0.38351375  0.13473892  0.62615385  1
  O  O308  1  0.37992942  0.62863080  0.13002865  1
  O  O309  1  0.37890246  0.63137174  0.63033933  1
  O  O310  1  0.88711097  0.13355262  0.12627041  1
  O  O311  1  0.88135530  0.12773260  0.63217423  1
  O  O312  1  0.88212275  0.62979957  0.12423322  1
  O  O313  1  0.87348055  0.63900329  0.61745576  1
  O  O314  1  0.25805559  0.25613642  0.12439488  1
  O  O315  1  0.25924647  0.25014619  0.61942174  1
  O  O316  1  0.25488262  0.75755679  0.11806168  1
  O  O317  1  0.25528282  0.75619173  0.62139595  1
  O  O318  1  0.75950940  0.24878918  0.11663476  1
  O  O319  1  0.76033341  0.25289117  0.62101864  1
  O  O320  1  0.75285467  0.75507174  0.11657727  1
  O  O321  1  0.75488077  0.75710920  0.62019152  1
  O  O322  1  0.24551398  0.24517774  0.38135641  1
  O  O323  1  0.24301772  0.24235215  0.87458605  1
  O  O324  1  0.24658689  0.74872605  0.38493985  1
  O  O325  1  0.24485002  0.74455992  0.88045963  1
  O  O326  1  0.74359681  0.24053176  0.37693053  1
  O  O327  1  0.74248800  0.24762989  0.88271288  1
  O  O328  1  0.74427671  0.74418527  0.37984082  1
  O  O329  1  0.74550499  0.75001579  0.88253404  1
  O  O330  1  0.00232948  0.11492509  0.00786889  1
  O  O331  1  0.00497067  0.11729577  0.50536653  1
  O  O332  1  0.00521222  0.61487621  0.00470095  1
  O  O333  1  0.00864643  0.61889924  0.50204148  1
  O  O334  1  0.50607062  0.11968713  0.00609966  1
  O  O335  1  0.50508987  0.12109410  0.50905757  1
  O  O336  1  0.49952342  0.63073853  0.01218049  1
  O  O337  1  0.50506180  0.62610360  0.50624762  1
  O  O338  1  0.48684687  0.37817709  0.49703599  1
  O  O339  1  0.48687072  0.37263227  1.00009790  1
  O  O340  1  0.49306981  0.88244400  0.49553989  1
  O  O341  1  0.49491510  0.88030184  0.99440712  1
  O  O342  1  0.99276277  0.37874048  0.49528604  1
  O  O343  1  1.00637170  0.38477274  0.99101852  1
  O  O344  1  1.00286848  0.88202114  0.49213977  1
  O  O345  1  0.99421217  0.87930493  0.99617356  1
  O  O346  1  0.48645708  0.50046852  0.37612087  1
  O  O347  1  0.48591692  0.50243662  0.86894700  1
  O  O348  1  0.49438578  0.99794085  0.38120830  1
  O  O349  1  0.49521136  0.99570170  0.88046948  1
  O  O350  1  0.99899044  0.49108305  0.38264170  1
  O  O351  1  0.99423096  0.49272333  0.88030086  1
  O  O352  1  1.00019234  0.99149153  0.38381756  1
  O  O353  1  0.99102555  0.99347615  0.88302818  1
  O  O354  1  -0.00716893  0.00754045  0.11543943  1
  O  O355  1  0.00162256  0.00319590  0.61677251  1
  O  O356  1  0.00380389  0.50181204  0.11679865  1
  O  O357  1  0.00810745  0.50138853  0.62070177  1
  O  O358  1  0.50500558  0.00550538  0.11876969  1
  O  O359  1  0.50402031  0.00947776  0.61916518  1
  O  O360  1  0.50930320  0.51124017  0.12916381  1
  O  O361  1  0.50601441  0.50930451  0.62416950  1
  O  O362  1  0.24318070  0.37662974  0.24344750  1
  O  O363  1  0.24496352  0.38447284  0.74888574  1
  O  O364  1  0.24284968  0.88004779  0.24602719  1
  O  O365  1  0.25035372  0.88458427  0.74618300  1
  O  O366  1  0.73799525  0.37327179  0.24635767  1
  O  O367  1  0.73975365  0.38563771  0.74771044  1
  O  O368  1  0.75019280  0.87217461  0.23499759  1
  O  O369  1  0.74218026  0.86820565  0.73659239  1
  O  O370  1  0.25556113  0.12187535  0.25629691  1
  O  O371  1  0.25229438  0.11743871  0.76110353  1
  O  O372  1  0.26189945  0.62424016  0.24907722  1
  O  O373  1  0.25524790  0.62108281  0.75614404  1
  O  O374  1  0.74933744  0.12403964  0.26227698  1
  O  O375  1  0.76528048  0.12675387  0.75035505  1
  O  O376  1  0.75054218  0.62657576  0.26085122  1
  O  O377  1  0.74366638  0.60946275  0.74994462  1
  O  O378  1  0.37011845  0.12232634  0.37101010  1
  O  O379  1  0.36710746  0.12199113  0.87484657  1
  O  O380  1  0.37478238  0.61965656  0.36635526  1
  O  O381  1  0.36953388  0.61965884  0.87053762  1
  O  O382  1  0.86365684  0.12461565  0.37534287  1
  O  O383  1  0.87601222  0.11552142  0.86668085  1
  O  O384  1  0.86290100  0.62492629  0.37570560  1
  O  O385  1  0.87393018  0.60951185  0.87621895  1
  O  O386  1  0.12952319  0.37816009  0.12973676  1
  O  O387  1  0.12600044  0.38726428  0.62607816  1
  O  O388  1  0.13060405  0.86965677  0.13692600  1
  O  O389  1  0.13402813  0.87917372  0.62863916  1
  O  O390  1  0.62459320  0.38288260  0.13207216  1
  O  O391  1  0.62518629  0.38013968  0.63142503  1
  O  O392  1  0.63413246  0.87976183  0.12224034  1
  O  O393  1  0.63101535  0.88015809  0.62832838  1
  O  O394  1  0.12040711  0.25559736  0.25733508  1
  O  O395  1  0.11887061  0.24905082  0.76236497  1
  O  O396  1  0.11919751  0.75993336  0.25225263  1
  O  O397  1  0.11555130  0.75026377  0.75637662  1
  O  O398  1  0.62057064  0.25834690  0.25279551  1
  O  O399  1  0.63507386  0.26000002  0.75977802  1
  O  O400  1  0.62072761  0.75459147  0.25796061  1
  O  O401  1  0.61835049  0.75718331  0.75396233  1
  O  O402  1  0.38108707  0.24637042  0.24546516  1
  O  O403  1  0.36996766  0.25247641  0.73691831  1
  O  O404  1  0.37424012  0.74196386  0.24367658  1
  O  O405  1  0.37966115  0.74547476  0.74532406  1
  O  O406  1  0.88297211  0.24474358  0.24094716  1
  O  O407  1  0.88060486  0.24130433  0.74681864  1
  O  O408  1  0.88326382  0.74631915  0.24143526  1
  O  O409  1  0.88257738  0.75404856  0.74019547  1
  O  O410  1  0.37398803  0.49382393  0.49333151  1
  O  O411  1  0.36918962  0.49224036  0.98991835  1
  O  O412  1  0.37887650  0.99669401  0.49504993  1
  O  O413  1  0.38154120  0.99510392  0.99506616  1
  O  O414  1  0.88082802  0.48948092  0.49917202  1
  O  O415  1  0.88676114  0.50103123  0.99161851  1
  O  O416  1  0.88914671  0.99734976  0.49799317  1
  O  O417  1  0.88518405  0.99364232  0.99198308  1
  O  O418  1  0.10987680  -0.00119004  -0.00662629  1
  O  O419  1  0.11543675  0.00677828  0.50039758  1
  O  O420  1  0.11584762  0.50458794  0.00449488  1
  O  O421  1  0.12138141  0.50594557  0.50758491  1
  O  O422  1  0.61990316  0.00507169  0.00352406  1
  O  O423  1  0.61737448  0.00781173  0.50810347  1
  O  O424  1  0.63081190  0.49909832  0.01092735  1
  O  O425  1  0.62244073  0.50609145  0.50552587  1
  O  O426  1  0.37170210  0.37292939  0.11955135  1
  O  O427  1  0.37562913  0.36933811  0.61722410  1
  O  O428  1  0.36964455  0.87042387  0.11913498  1
  O  O429  1  0.37020910  0.87119825  0.61960622  1
  O  O430  1  0.87659902  0.35867692  0.12880779  1
  O  O431  1  0.87743174  0.36841706  0.61539939  1
  O  O432  1  0.86727280  0.86751298  0.11836371  1
  O  O433  1  0.86515615  0.86667270  0.62368691  1
  O  O434  1  0.13087153  0.13144951  0.38136732  1
  O  O435  1  0.13288135  0.13292826  0.87698814  1
  O  O436  1  0.12672320  0.62429335  0.38757755  1
  O  O437  1  0.13002623  0.62891366  0.88169091  1
  O  O438  1  0.63151353  0.13029400  0.38043497  1
  O  O439  1  0.62836307  0.13162269  0.87876271  1
  O  O440  1  0.63033456  0.63098235  0.37805018  1
  O  O441  1  0.62737584  0.63293861  0.87604684  1
