# generated using pymatgen
data_V93Zn93O256
_symmetry_space_group_name_H-M   'P 1'
_cell_length_a   17.06351944
_cell_length_b   17.07166697
_cell_length_c   17.06673790
_cell_angle_alpha   90.01736787
_cell_angle_beta   90.04098943
_cell_angle_gamma   90.03357568
_symmetry_Int_Tables_number   1
_chemical_formula_structural   V93Zn93O256
_chemical_formula_sum   'V93 Zn93 O256'
_cell_volume   4971.58483813
_cell_formula_units_Z   1
loop_
 _symmetry_equiv_pos_site_id
 _symmetry_equiv_pos_as_xyz
  1  'x, y, z'
loop_
 _atom_site_type_symbol
 _atom_site_label
 _atom_site_symmetry_multiplicity
 _atom_site_fract_x
 _atom_site_fract_y
 _atom_site_fract_z
 _atom_site_occupancy
  V  V0  1  0.12928126  0.74759073  0.87911501  1
  V  V1  1  0.87388171  0.37502382  0.49986463  1
  V  V2  1  0.37700946  0.00381430  0.37832674  1
  V  V3  1  0.12455809  0.62499350  0.50025487  1
  V  V4  1  0.87784964  0.63073747  0.24896536  1
  V  V5  1  0.12268701  0.74974378  0.37079134  1
  V  V6  1  0.75075004  0.37374608  0.12488462  1
  V  V7  1  0.24901503  0.25104941  0.50105241  1
  V  V8  1  0.12522548  0.37546563  0.24900136  1
  V  V9  1  0.24874124  0.62516984  0.37470452  1
  V  V10  1  0.12713992  0.87597353  0.74935443  1
  V  V11  1  0.87642471  0.37500462  0.00003393  1
  V  V12  1  0.75085081  0.49787454  0.25009085  1
  V  V13  1  0.37432146  0.62489138  0.75106781  1
  V  V14  1  0.49827130  0.00074619  0.50253919  1
  V  V15  1  -0.00034443  0.49984307  0.50080306  1
  V  V16  1  0.50067091  0.49894120  -0.00139836  1
  V  V17  1  0.87593304  0.25014881  0.12515810  1
  V  V18  1  0.25351360  0.25023526  0.00585522  1
  V  V19  1  0.49951384  0.12711851  0.12377585  1
  V  V20  1  0.87495317  0.49999346  0.37472188  1
  V  V21  1  0.87558028  0.24997381  0.62518667  1
  V  V22  1  0.62542480  0.25077560  0.87416037  1
  V  V23  1  -0.00060320  0.37496509  0.37483856  1
  V  V24  1  0.49872536  0.62386709  0.62252866  1
  V  V25  1  0.75200555  -0.00526994  0.24224112  1
  V  V26  1  -0.00049346  0.25059648  0.24849880  1
  V  V27  1  0.38078374  0.62621892  0.24417396  1
  V  V28  1  0.12608624  -0.00066267  0.12333352  1
  V  V29  1  0.24580387  0.49784990  0.75137035  1
  V  V30  1  0.75210878  0.75408553  0.00582482  1
  V  V31  1  0.12404083  0.12460374  0.49971255  1
  V  V32  1  -0.00030283  0.12538860  0.62552731  1
  V  V33  1  0.37508073  0.37183235  0.00732743  1
  V  V34  1  0.75162692  0.00123398  0.75079771  1
  V  V35  1  0.12572729  0.25356574  0.86988874  1
  V  V36  1  0.62946115  -0.00201357  0.12308832  1
  V  V37  1  0.37388290  0.74935864  0.62208629  1
  V  V38  1  0.25482610  0.86710119  0.12451374  1
  V  V39  1  0.00023667  0.74870695  0.74974575  1
  V  V40  1  0.87640005  0.12604228  0.75006824  1
  V  V41  1  0.62428148  0.37343057  0.24971695  1
  V  V42  1  0.12450816  -0.00058176  0.62560348  1
  V  V43  1  0.74774932  0.62627303  0.37522714  1
  V  V44  1  0.24432311  0.37433527  0.62936020  1
  V  V45  1  0.87556158  0.12674075  0.24877101  1
  V  V46  1  0.62579209  -0.00007034  0.62622197  1
  V  V47  1  0.49897182  0.12664448  0.62623832  1
  V  V48  1  0.24932926  0.49813285  0.25018122  1
  V  V49  1  0.75296285  0.62469780  0.87288148  1
  V  V50  1  0.87598792  0.50074999  0.87497786  1
  V  V51  1  0.12467422  0.12424802  -0.00135154  1
  V  V52  1  0.12725511  0.87291232  0.25022894  1
  V  V53  1  0.49933719  0.49773321  0.50035578  1
  V  V54  1  -0.00046851  0.62504001  0.62548065  1
  V  V55  1  0.62390889  0.37499081  0.74945657  1
  V  V56  1  0.00457392  0.37526228  0.86834423  1
  V  V57  1  0.62549288  0.49821923  0.12280450  1
  V  V58  1  0.74900430  0.37525578  0.62474069  1
  V  V59  1  0.49633976  0.24989027  0.24438019  1
  V  V60  1  0.37333803  0.13098902  0.24264097  1
  V  V61  1  0.49896540  0.37394510  0.37605006  1
  V  V62  1  0.74793181  0.74875338  0.49823409  1
  V  V63  1  0.37490672  0.25007698  0.62737371  1
  V  V64  1  0.62458843  0.49878728  0.62540224  1
  V  V65  1  0.49922508  0.37457764  0.87483226  1
  V  V66  1  -0.00011233  0.87701597  0.87773823  1
  V  V67  1  0.75097329  0.87523949  0.62599503  1
  V  V68  1  0.62672737  0.75072966  0.87103980  1
  V  V69  1  0.62544572  0.62395168  0.49638821  1
  V  V70  1  0.75065285  0.24975723  -0.00106910  1
  V  V71  1  0.74879504  0.24848776  0.49828247  1
  V  V72  1  0.00394549  0.50184128  0.00173095  1
  V  V73  1  0.75070316  0.12673984  0.87393794  1
  V  V74  1  0.37621408  0.86888048  0.00033704  1
  V  V75  1  0.37262661  0.87819511  0.50012768  1
  V  V76  1  0.74973842  0.12229322  0.37481855  1
  V  V77  1  0.87320548  0.87541680  0.00577781  1
  V  V78  1  0.12379013  0.24988893  0.37443960  1
  V  V79  1  0.24808239  0.12737715  0.37403719  1
  V  V80  1  0.24883741  0.75034371  0.50046636  1
  V  V81  1  0.00101720  0.87220101  0.37055516  1
  V  V82  1  0.87580379  0.74983498  0.62624481  1
  V  V83  1  0.12429921  0.49797697  0.62725636  1
  V  V84  1  0.37375713  0.00037579  0.87270516  1
  V  V85  1  -0.00042668  0.63193129  0.12739439  1
  V  V86  1  0.62593858  0.62324793  -0.00141750  1
  V  V87  1  -0.00019435  -0.00025397  0.49866440  1
  V  V88  1  0.25043874  0.00071386  0.24908964  1
  V  V89  1  0.50109157  0.87558262  0.87193582  1
  V  V90  1  0.87639719  -0.00009158  0.37357377  1
  V  V91  1  0.62653986  0.87575432  0.74871159  1
  V  V92  1  0.62612214  0.12305813  0.50044661  1
  Zn  Zn93  1  0.37328023  0.49932583  0.87610941  1
  Zn  Zn94  1  0.25030748  0.00315537  0.74912365  1
  Zn  Zn95  1  0.68639916  0.83398830  0.18487083  1
  Zn  Zn96  1  0.25119354  0.12586271  0.87321379  1
  Zn  Zn97  1  0.43700662  0.78896337  0.17596361  1
  Zn  Zn98  1  0.75092905  0.49995981  0.74929059  1
  Zn  Zn99  1  0.62447600  0.12628802  -0.00185057  1
  Zn  Zn100  1  0.55621991  0.81712223  0.32112760  1
  Zn  Zn101  1  0.49849458  0.24935432  0.75157709  1
  Zn  Zn102  1  0.37435589  0.12372146  0.75174124  1
  Zn  Zn103  1  0.49993803  0.62737348  0.12262360  1
  Zn  Zn104  1  0.87539950  0.00174392  0.87652047  1
  Zn  Zn105  1  0.12985816  0.62571703  0.00495276  1
  Zn  Zn106  1  0.50187108  0.75094659  0.74266912  1
  Zn  Zn107  1  0.37358825  0.49962984  0.37791447  1
  Zn  Zn108  1  0.62226680  0.24160334  0.37279123  1
  Zn  Zn109  1  0.12583798  0.49987527  0.12516708  1
  Zn  Zn110  1  0.50158735  0.00126155  -0.00058921  1
  Zn  Zn111  1  0.87567510  0.62395817  0.74970748  1
  Zn  Zn112  1  0.87472738  0.75558586  0.13105595  1
  Zn  Zn113  1  -0.00167422  0.00120566  0.00173666  1
  Zn  Zn114  1  0.25095070  0.62253811  0.88018778  1
  Zn  Zn115  1  0.37351839  0.37661145  0.50074199  1
  Zn  Zn116  1  0.00040202  0.12403194  0.12425003  1
  Zn  Zn117  1  0.25179468  0.37197819  0.12793826  1
  Zn  Zn118  1  0.25538432  0.74300028  0.00433142  1
  Zn  Zn119  1  0.87591576  0.87478264  0.50020187  1
  Zn  Zn120  1  0.00510483  0.25350127  0.74694461  1
  Zn  Zn121  1  0.24872399  0.87579648  0.62641713  1
  Zn  Zn122  1  0.18558179  0.18786918  0.18533535  1
  Zn  Zn123  1  0.18994743  0.18369501  0.68966738  1
  Zn  Zn124  1  0.18750033  0.68363166  0.18918117  1
  Zn  Zn125  1  0.18795238  0.68658307  0.68836460  1
  Zn  Zn126  1  0.68558694  0.18455735  0.18800478  1
  Zn  Zn127  1  0.68754572  0.18868583  0.68817582  1
  Zn  Zn128  1  0.67644959  0.67726488  0.19616438  1
  Zn  Zn129  1  0.68657172  0.68781117  0.68426393  1
  Zn  Zn130  1  0.31318810  0.31268010  0.31356638  1
  Zn  Zn131  1  0.31183330  0.31348581  0.81614443  1
  Zn  Zn132  1  0.33561655  0.82358155  0.30567587  1
  Zn  Zn133  1  0.31365226  0.81138232  0.81282052  1
  Zn  Zn134  1  0.81129275  0.31055343  0.31361587  1
  Zn  Zn135  1  0.81412989  0.31320556  0.81104610  1
  Zn  Zn136  1  0.81243251  0.81196825  0.31698737  1
  Zn  Zn137  1  0.81433792  0.81228536  0.81386047  1
  Zn  Zn138  1  0.18694132  0.43684648  0.43872873  1
  Zn  Zn139  1  0.18913475  0.43543569  0.93731810  1
  Zn  Zn140  1  0.18927913  0.93810589  0.43768992  1
  Zn  Zn141  1  0.19110375  0.93662258  0.93852566  1
  Zn  Zn142  1  0.68538481  0.43757799  0.43636230  1
  Zn  Zn143  1  0.68813937  0.43649199  0.93599250  1
  Zn  Zn144  1  0.68809684  0.92988387  0.43771194  1
  Zn  Zn145  1  0.68766754  0.94024873  0.93810428  1
  Zn  Zn146  1  0.31113966  0.05794062  0.05858222  1
  Zn  Zn147  1  0.30845769  0.06485244  0.56604318  1
  Zn  Zn148  1  0.31311337  0.55833887  0.06289891  1
  Zn  Zn149  1  0.31245606  0.56105711  0.56251506  1
  Zn  Zn150  1  0.81461283  0.06384470  0.05980128  1
  Zn  Zn151  1  0.81396923  0.06184531  0.56215340  1
  Zn  Zn152  1  0.81427292  0.56306772  0.06284958  1
  Zn  Zn153  1  0.81243804  0.56274599  0.56336179  1
  Zn  Zn154  1  0.43778964  0.44180830  0.18718358  1
  Zn  Zn155  1  0.43510552  0.43658004  0.68830983  1
  Zn  Zn156  1  0.44306640  0.94876750  0.19284603  1
  Zn  Zn157  1  0.43817208  0.93581475  0.68635234  1
  Zn  Zn158  1  0.93821650  0.43970191  0.18681815  1
  Zn  Zn159  1  0.93492461  0.43921938  0.68846683  1
  Zn  Zn160  1  0.94047213  0.93903991  0.18736113  1
  Zn  Zn161  1  0.93742183  0.93765865  0.68840679  1
  Zn  Zn162  1  0.06202251  0.06126537  0.30997337  1
  Zn  Zn163  1  0.06255316  0.06386785  0.81277389  1
  Zn  Zn164  1  0.06139605  0.56240314  0.31153097  1
  Zn  Zn165  1  0.06373737  0.56372211  0.81331372  1
  Zn  Zn166  1  0.58473537  0.01746747  0.33305968  1
  Zn  Zn167  1  0.56083680  0.06405151  0.81147138  1
  Zn  Zn168  1  0.56309697  0.55979316  0.31461941  1
  Zn  Zn169  1  0.56215681  0.56148599  0.81180190  1
  Zn  Zn170  1  0.43710056  0.18763627  0.43763041  1
  Zn  Zn171  1  0.43638328  0.18910826  0.93741389  1
  Zn  Zn172  1  0.43552290  0.68490790  0.42750008  1
  Zn  Zn173  1  0.44216182  0.68793481  0.93512607  1
  Zn  Zn174  1  0.93661316  0.18721882  0.43716561  1
  Zn  Zn175  1  0.93915723  0.18912051  0.93654242  1
  Zn  Zn176  1  0.93568531  0.68803765  0.43843521  1
  Zn  Zn177  1  0.93871850  0.68917240  0.93960202  1
  Zn  Zn178  1  0.06490939  0.31324501  0.06166850  1
  Zn  Zn179  1  0.06246281  0.31227686  0.56213520  1
  Zn  Zn180  1  0.06403135  0.81294390  0.06277091  1
  Zn  Zn181  1  0.06125352  0.81250221  0.56046418  1
  Zn  Zn182  1  0.56290700  0.31195734  0.06102543  1
  Zn  Zn183  1  0.56313464  0.31051019  0.56161631  1
  Zn  Zn184  1  0.56349157  0.81250049  0.05162148  1
  Zn  Zn185  1  0.54033349  0.79140095  0.51558409  1
  O  O186  1  0.12534964  0.11870773  0.11472711  1
  O  O187  1  0.11897898  0.12041839  0.61906091  1
  O  O188  1  0.11405764  0.62080630  0.12588399  1
  O  O189  1  0.11895578  0.61945435  0.61877394  1
  O  O190  1  0.61526927  0.11915903  0.12228492  1
  O  O191  1  0.62030259  0.11989054  0.62057206  1
  O  O192  1  0.62776101  0.61353312  0.11576668  1
  O  O193  1  0.61937124  0.61760197  0.61877315  1
  O  O194  1  0.38758958  0.37484650  0.37741030  1
  O  O195  1  0.38204894  0.37674571  0.88482547  1
  O  O196  1  0.36202822  0.89291577  0.39052352  1
  O  O197  1  0.38025886  0.88140629  0.87915310  1
  O  O198  1  0.87963299  0.37978511  0.38032122  1
  O  O199  1  0.88351208  0.37958455  0.88148353  1
  O  O200  1  0.88642198  0.88011133  0.37602998  1
  O  O201  1  0.88648716  0.87393764  0.88302181  1
  O  O202  1  0.25596176  0.00906236  0.37036017  1
  O  O203  1  0.26169703  -0.00050655  0.87332958  1
  O  O204  1  0.24875962  0.50507739  0.36718112  1
  O  O205  1  0.25048998  0.50039229  0.86354574  1
  O  O206  1  0.75858217  0.00401830  0.36482552  1
  O  O207  1  0.75154072  0.00831567  0.86751658  1
  O  O208  1  0.75686739  0.50357109  0.37013417  1
  O  O209  1  0.75646794  0.50993708  0.87722165  1
  O  O210  1  0.24729673  0.49644685  0.13937183  1
  O  O211  1  0.24470957  0.49232585  0.63064463  1
  O  O212  1  0.24549445  0.98979622  0.12992976  1
  O  O213  1  0.23909038  0.99744658  0.62772644  1
  O  O214  1  0.74670011  0.49220060  0.12933382  1
  O  O215  1  0.74338509  0.49284262  0.62478397  1
  O  O216  1  0.74339772  1.00822674  0.13134134  1
  O  O217  1  0.74662248  0.99605495  0.63097595  1
  O  O218  1  0.00403946  0.37089345  0.25638456  1
  O  O219  1  -0.00399920  0.37530196  0.76451215  1
  O  O220  1  0.00874644  0.88017872  0.26368603  1
  O  O221  1  0.00813488  0.86969456  0.75830509  1
  O  O222  1  0.50248445  0.36817544  0.25512336  1
  O  O223  1  0.50566306  0.37374935  0.75639368  1
  O  O224  1  0.46039393  0.86105053  0.26082566  1
  O  O225  1  0.50839280  0.87226944  0.75391732  1
  O  O226  1  0.48941765  0.13507837  0.24022367  1
  O  O227  1  0.49589366  0.12918521  0.74091657  1
  O  O228  1  0.48362488  0.61679857  0.25305714  1
  O  O229  1  0.49053272  0.62542498  0.74228075  1
  O  O230  1  0.99410777  0.13287178  0.24913916  1
  O  O231  1  0.99439370  0.12688459  0.74271628  1
  O  O232  1  0.98803212  0.61616651  0.24075886  1
  O  O233  1  1.00000251  0.63134423  0.74293749  1
  O  O234  1  0.36393714  0.25923847  -0.00639883  1
  O  O235  1  0.36742132  0.25051641  0.51061272  1
  O  O236  1  0.37336100  0.76485648  -0.01044310  1
  O  O237  1  0.36697520  0.75955579  0.50243738  1
  O  O238  1  0.87077907  0.25607122  0.00545183  1
  O  O239  1  0.86949594  0.25558335  0.50481136  1
  O  O240  1  0.86667121  0.75679217  0.00167589  1
  O  O241  1  0.86621124  0.75044648  0.50825233  1
  O  O242  1  0.12869097  0.24397412  0.49364351  1
  O  O243  1  0.13162242  0.24263083  0.99252573  1
  O  O244  1  0.12925722  0.74415083  0.49290777  1
  O  O245  1  0.12837464  0.75033909  0.98941058  1
  O  O246  1  0.63119384  0.24100137  0.49724137  1
  O  O247  1  0.63321876  0.24987901  0.99269953  1
  O  O248  1  0.64320737  0.73963577  0.51157912  1
  O  O249  1  0.63655837  0.74477472  0.98952276  1
  O  O250  1  0.50451090  0.24304527  0.13562565  1
  O  O251  1  0.48954310  0.24608536  0.62440829  1
  O  O252  1  0.50712245  0.73843219  0.11145204  1
  O  O253  1  0.49052958  0.74035023  0.61709207  1
  O  O254  1  0.99388240  0.25043252  0.13132227  1
  O  O255  1  0.99458237  0.24456235  0.62569101  1
  O  O256  1  0.99716585  0.73542170  0.11817123  1
  O  O257  1  0.99571921  0.74459950  0.62880947  1
  O  O258  1  0.00411800  0.25583026  0.36949233  1
  O  O259  1  0.00801230  0.25988149  0.87513348  1
  O  O260  1  0.01129690  0.75963134  0.38341220  1
  O  O261  1  0.00830416  0.75825926  0.87116186  1
  O  O262  1  0.50077299  0.25629166  0.36494750  1
  O  O263  1  0.50677772  0.25693604  0.87433497  1
  O  O264  1  0.51480221  0.75690646  0.40845394  1
  O  O265  1  0.51010098  0.75755489  0.87083791  1
  O  O266  1  0.24228075  0.13158632  0.49461369  1
  O  O267  1  0.24202685  0.13231731  0.99801278  1
  O  O268  1  0.24340155  0.62861093  0.49505656  1
  O  O269  1  0.24855554  0.62626790  0.99862035  1
  O  O270  1  0.74626654  0.12895540  0.49515862  1
  O  O271  1  0.75110394  0.13383515  0.99156081  1
  O  O272  1  0.74673808  0.62992977  0.49538082  1
  O  O273  1  0.74773481  0.63245006  0.99138774  1
  O  O274  1  0.25817679  0.36871605  0.00204837  1
  O  O275  1  0.25070665  0.36921802  0.50985777  1
  O  O276  1  0.25877847  0.87385051  0.00967956  1
  O  O277  1  0.25581682  0.87034448  0.50409793  1
  O  O278  1  0.75685562  0.36990464  0.00501007  1
  O  O279  1  0.75455808  0.36918120  0.50377477  1
  O  O280  1  0.76148777  0.86489995  -0.01022777  1
  O  O281  1  0.75263900  0.86589100  0.50619081  1
  O  O282  1  0.13369792  0.49358123  0.25250225  1
  O  O283  1  0.13739810  0.50799433  0.74251599  1
  O  O284  1  0.13267314  0.99403680  0.24512077  1
  O  O285  1  0.12285726  0.98981838  0.74526723  1
  O  O286  1  0.63127716  0.49342897  0.24351605  1
  O  O287  1  0.62726042  0.49325479  0.74286110  1
  O  O288  1  0.64116953  1.00572088  0.23455695  1
  O  O289  1  0.63206149  0.99630586  0.74515100  1
  O  O290  1  0.36903699  0.01304431  0.26036389  1
  O  O291  1  0.37366918  -0.00268532  0.76066313  1
  O  O292  1  0.36476974  0.50556090  0.25470185  1
  O  O293  1  0.36521806  0.50920215  0.74894409  1
  O  O294  1  0.87125744  0.00769070  0.25270769  1
  O  O295  1  0.86942029  0.00736988  0.75189461  1
  O  O296  1  0.86930342  0.50600496  0.25577849  1
  O  O297  1  0.87123974  0.50375074  0.75901536  1
  O  O298  1  0.11848429  0.36868560  0.37057657  1
  O  O299  1  0.11475003  0.36523081  0.88289815  1
  O  O300  1  0.12073935  0.86869691  0.37076016  1
  O  O301  1  0.11852053  0.86879478  0.86918937  1
  O  O302  1  0.61404052  0.37282199  0.36800784  1
  O  O303  1  0.62005071  0.36993549  0.86955716  1
  O  O304  1  0.60829595  0.90990537  0.36600633  1
  O  O305  1  0.62166818  0.87142589  0.86833553  1
  O  O306  1  0.38171988  0.11461136  0.13587636  1
  O  O307  1  0.37937865  0.13533702  0.62475516  1
  O  O308  1  0.37643172  0.61644180  0.14110184  1
  O  O309  1  0.37851043  0.62876557  0.63192106  1
  O  O310  1  0.87784699  0.13312157  0.13021738  1
  O  O311  1  0.88073578  0.13080804  0.62914058  1
  O  O312  1  0.88094659  0.62590504  0.13341765  1
  O  O313  1  0.88223668  0.63041373  0.62669176  1
  O  O314  1  0.24431436  0.25237093  0.11059777  1
  O  O315  1  0.25403849  0.25662193  0.62159712  1
  O  O316  1  0.24474315  0.76403874  0.12592560  1
  O  O317  1  0.25507324  0.74993613  0.61746478  1
  O  O318  1  0.75537524  0.25523569  0.12055821  1
  O  O319  1  0.75568042  0.25533290  0.61769119  1
  O  O320  1  0.74731830  0.75097752  0.11141624  1
  O  O321  1  0.75764019  0.75458326  0.61955317  1
  O  O322  1  0.24321288  0.24633855  0.38034998  1
  O  O323  1  0.24099559  0.25137468  0.88572081  1
  O  O324  1  0.23904816  0.74400412  0.38297651  1
  O  O325  1  0.23882121  0.74877837  0.87533293  1
  O  O326  1  0.74696769  0.24140639  0.38049276  1
  O  O327  1  0.74577007  0.24680526  0.87952294  1
  O  O328  1  0.75869232  0.74251987  0.39026229  1
  O  O329  1  0.74759047  0.74145981  0.88141377  1
  O  O330  1  0.01216225  0.12435664  0.00109573  1
  O  O331  1  0.00513743  0.11995449  0.50459853  1
  O  O332  1  -0.00051688  0.61538825  0.00767618  1
  O  O333  1  0.00469336  0.61874753  0.50506429  1
  O  O334  1  0.49773192  0.12644119  0.01420991  1
  O  O335  1  0.50510497  0.12065541  0.50692652  1
  O  O336  1  0.50871256  0.61524749  -0.00483355  1
  O  O337  1  0.50491457  0.61528981  0.50447709  1
  O  O338  1  0.50075270  0.37822430  0.49074824  1
  O  O339  1  0.49376093  0.37843376  0.99536053  1
  O  O340  1  0.48019396  0.88846534  0.50878133  1
  O  O341  1  0.49128890  0.87921044  0.99009870  1
  O  O342  1  0.99406164  0.38011354  0.49455495  1
  O  O343  1  0.99538378  0.38356652  0.99312085  1
  O  O344  1  1.00087098  0.88187062  0.48843971  1
  O  O345  1  0.99365410  0.87423924  0.99107036  1
  O  O346  1  0.49943685  0.48784471  0.38084685  1
  O  O347  1  0.49986567  0.49169605  0.88128032  1
  O  O348  1  0.48046513  1.01400869  0.38469477  1
  O  O349  1  0.49216863  0.99406486  0.87558161  1
  O  O350  1  0.99477520  0.49434023  0.38132741  1
  O  O351  1  0.99747093  0.49440525  0.88252452  1
  O  O352  1  0.99681969  0.99259869  0.37914562  1
  O  O353  1  1.00040173  0.98699266  0.87690821  1
  O  O354  1  0.01144301  0.00258580  0.12231857  1
  O  O355  1  0.00470346  0.00546851  0.61875964  1
  O  O356  1  -0.00075353  0.50773108  0.11504370  1
  O  O357  1  0.00427458  0.50368062  0.61995759  1
  O  O358  1  0.51014053  0.01143336  0.12628279  1
  O  O359  1  0.50503269  0.00741928  0.62109341  1
  O  O360  1  0.50844781  0.50247288  0.11725053  1
  O  O361  1  0.50485341  0.50316529  0.61984399  1
  O  O362  1  0.24539959  0.38179452  0.25144873  1
  O  O363  1  0.25646142  0.38580641  0.73989910  1
  O  O364  1  0.25015717  0.88142961  0.24281893  1
  O  O365  1  0.23547730  0.87487871  0.74943267  1
  O  O366  1  0.74499548  0.37844638  0.24525413  1
  O  O367  1  0.74338591  0.37632980  0.74246759  1
  O  O368  1  0.76532559  0.89025307  0.24653670  1
  O  O369  1  0.74689804  0.88109470  0.74658969  1
  O  O370  1  0.25562071  0.12247599  0.25264477  1
  O  O371  1  0.25587657  0.12058609  0.75592711  1
  O  O372  1  0.25540179  0.61437027  0.25496494  1
  O  O373  1  0.25932318  0.61596184  0.74894961  1
  O  O374  1  0.75741879  0.11840603  0.25480470  1
  O  O375  1  0.75665170  0.12105799  0.75407153  1
  O  O376  1  0.75760716  0.61541100  0.25518990  1
  O  O377  1  0.75082378  0.62476905  0.76269672  1
  O  O378  1  0.36615638  0.12226274  0.36766936  1
  O  O379  1  0.37554993  0.11274024  0.87606039  1
  O  O380  1  0.36613415  0.62068562  0.36486119  1
  O  O381  1  0.37465699  0.62401201  0.86177204  1
  O  O382  1  0.87037964  0.11966034  0.36897379  1
  O  O383  1  0.86986058  0.12554568  0.86824675  1
  O  O384  1  0.87104799  0.61906998  0.36783335  1
  O  O385  1  0.86771223  0.62066660  0.87580630  1
  O  O386  1  0.12692692  0.37840539  0.13451395  1
  O  O387  1  0.13630316  0.38004731  0.62067745  1
  O  O388  1  0.13295174  0.87938266  0.13078234  1
  O  O389  1  0.12166193  0.87943671  0.63493228  1
  O  O390  1  0.63131027  0.37881029  0.13019479  1
  O  O391  1  0.62966591  0.37902552  0.62896566  1
  O  O392  1  0.62150092  0.89241553  0.11365146  1
  O  O393  1  0.63533722  0.88459780  0.63294606  1
  O  O394  1  0.11987392  0.25476798  0.25581301  1
  O  O395  1  0.12479218  0.24378909  0.76568403  1
  O  O396  1  0.13203360  0.75543038  0.26439638  1
  O  O397  1  0.11997988  0.75747978  0.75681254  1
  O  O398  1  0.61467356  0.25455728  0.25198246  1
  O  O399  1  0.62342702  0.25781758  0.75579468  1
  O  O400  1  0.63601811  0.76232682  0.25392460  1
  O  O401  1  0.62511341  0.75678377  0.75403427  1
  O  O402  1  0.38165578  0.24039826  0.25349602  1
  O  O403  1  0.37425471  0.25047505  0.73750347  1
  O  O404  1  0.36511380  0.72917648  0.24992656  1
  O  O405  1  0.37576866  0.74074386  0.74205040  1
  O  O406  1  0.87999319  0.24637311  0.24495153  1
  O  O407  1  0.87756075  0.24417008  0.74177686  1
  O  O408  1  0.86613887  0.73474775  0.24844902  1
  O  O409  1  0.88290869  0.74842538  0.74431587  1
  O  O410  1  0.38295880  0.49684939  0.49809282  1
  O  O411  1  0.38161650  0.49047594  0.99681511  1
  O  O412  1  0.37519634  0.99851194  0.49643212  1
  O  O413  1  0.37681379  0.98854948  0.99037246  1
  O  O414  1  0.88028220  0.49441780  0.49482136  1
  O  O415  1  0.88446245  0.49490261  0.99486374  1
  O  O416  1  0.88198636  0.99883243  0.49194877  1
  O  O417  1  0.87741060  0.99011326  0.99623433  1
  O  O418  1  0.12701442  0.00923594  0.00389628  1
  O  O419  1  0.11959972  0.00591855  0.50416079  1
  O  O420  1  0.11337772  0.50062093  0.00036802  1
  O  O421  1  0.11860641  0.50539346  0.50583416  1
  O  O422  1  0.62347778  0.00748599  0.00736527  1
  O  O423  1  0.61950304  0.00542838  0.50906652  1
  O  O424  1  0.62125264  0.50269687  0.00384643  1
  O  O425  1  0.61924713  0.50344648  0.50670234  1
  O  O426  1  0.37546957  0.37858697  0.11132976  1
  O  O427  1  0.36466748  0.36653620  0.62286757  1
  O  O428  1  0.36953526  0.87769049  0.11609950  1
  O  O429  1  0.36965615  0.86956341  0.61757826  1
  O  O430  1  0.87003163  0.37022860  0.12024815  1
  O  O431  1  0.86996788  0.37046754  0.61857339  1
  O  O432  1  0.88493603  0.87204303  0.11085672  1
  O  O433  1  0.86948576  0.86893353  0.62368665  1
  O  O434  1  0.12889386  0.13036234  0.37901836  1
  O  O435  1  0.12511066  0.13275848  0.88481527  1
  O  O436  1  0.12658082  0.63217068  0.37981268  1
  O  O437  1  0.12543620  0.63722572  0.87763077  1
  O  O438  1  0.63276143  0.11651586  0.38336391  1
  O  O439  1  0.63170721  0.13309782  0.87462477  1
  O  O440  1  0.63598909  0.61414602  0.38361275  1
  O  O441  1  0.63445526  0.62881465  0.87884550  1
