# generated using pymatgen
data_V93Zn93O256
_symmetry_space_group_name_H-M   'P 1'
_cell_length_a   17.05363054
_cell_length_b   17.05255360
_cell_length_c   17.05549181
_cell_angle_alpha   90.01335724
_cell_angle_beta   90.06143804
_cell_angle_gamma   89.97220661
_symmetry_Int_Tables_number   1
_chemical_formula_structural   V93Zn93O256
_chemical_formula_sum   'V93 Zn93 O256'
_cell_volume   4959.86902267
_cell_formula_units_Z   1
loop_
 _symmetry_equiv_pos_site_id
 _symmetry_equiv_pos_as_xyz
  1  'x, y, z'
loop_
 _atom_site_type_symbol
 _atom_site_label
 _atom_site_symmetry_multiplicity
 _atom_site_fract_x
 _atom_site_fract_y
 _atom_site_fract_z
 _atom_site_occupancy
  V  V0  1  0.25117215  0.74975790  0.00200344  1
  V  V1  1  -0.00037843  0.62479226  0.62659331  1
  V  V2  1  -0.00037279  0.12522579  0.62323560  1
  V  V3  1  0.61837759  0.74943244  0.37215383  1
  V  V4  1  0.75115614  0.49891215  0.75053594  1
  V  V5  1  0.24945373  0.12727612  0.87531305  1
  V  V6  1  0.74821233  0.24915345  0.49880948  1
  V  V7  1  0.87402737  0.24965032  0.62503184  1
  V  V8  1  0.12507270  0.62499131  0.50081934  1
  V  V9  1  0.50079171  0.25027192  0.24858102  1
  V  V10  1  0.50012019  0.00022371  -0.00084242  1
  V  V11  1  0.24860867  0.12727789  0.37483273  1
  V  V12  1  0.86831613  0.87526997  0.00469280  1
  V  V13  1  0.62441486  0.87527625  0.74872640  1
  V  V14  1  0.12371726  0.12554020  0.49831596  1
  V  V15  1  0.87457438  0.12414275  0.74984387  1
  V  V16  1  0.12356247  0.87382140  0.25030982  1
  V  V17  1  0.24946014  0.00153480  0.24963215  1
  V  V18  1  0.49871515  -0.00166360  0.49773405  1
  V  V19  1  0.25106836  0.62482924  0.87650024  1
  V  V20  1  0.24918442  -0.00016173  0.75053485  1
  V  V21  1  0.24955241  0.87567710  0.12496656  1
  V  V22  1  0.37470630  0.00098453  0.87497495  1
  V  V23  1  0.62432279  0.12391232  0.49753630  1
  V  V24  1  0.87087218  0.75290744  0.12617839  1
  V  V25  1  0.62610575  0.74846677  0.87524577  1
  V  V26  1  0.50024298  0.62423927  0.62617041  1
  V  V27  1  0.50052715  0.24937043  0.74908966  1
  V  V28  1  0.74930244  0.00008194  0.74910304  1
  V  V29  1  0.24972342  0.25246112  0.00000052  1
  V  V30  1  0.37386550  0.87507524  0.00022928  1
  V  V31  1  0.62573180  0.37322944  0.74882153  1
  V  V32  1  -0.00051066  0.25018663  0.75038630  1
  V  V33  1  0.75024950  -0.00764195  0.24581721  1
  V  V34  1  0.87577017  0.62472923  0.25073425  1
  V  V35  1  0.24977735  0.50106814  0.75072932  1
  V  V36  1  0.87415667  -0.00016799  0.87461334  1
  V  V37  1  0.24848627  0.87496684  0.62592878  1
  V  V38  1  0.62692826  0.12541907  -0.00118221  1
  V  V39  1  0.49895541  0.49955173  0.49785899  1
  V  V40  1  0.74908785  0.74844078  0.50020859  1
  V  V41  1  0.12487065  0.49986163  0.62696285  1
  V  V42  1  0.74985902  0.37435047  0.62402059  1
  V  V43  1  0.12690343  0.38178615  0.24785118  1
  V  V44  1  0.12534295  0.37585232  0.74942393  1
  V  V45  1  0.50138197  0.63146171  0.13315672  1
  V  V46  1  0.49945102  0.74877913  0.75005948  1
  V  V47  1  0.87277753  0.37119685  0.01241262  1
  V  V48  1  0.62465715  0.24876338  0.37413418  1
  V  V49  1  -0.00044279  0.49908945  0.50072475  1
  V  V50  1  0.37432512  0.25083391  0.62299966  1
  V  V51  1  0.75010397  0.62621067  0.87984922  1
  V  V52  1  0.12577133  0.24991450  0.87454025  1
  V  V53  1  0.75397339  0.25315114  0.01128278  1
  V  V54  1  -0.00023087  0.87330215  0.37463149  1
  V  V55  1  0.87370027  0.87326656  0.50002946  1
  V  V56  1  0.37471668  0.00060180  0.37518501  1
  V  V57  1  0.61853581  0.87057743  0.24924862  1
  V  V58  1  0.62595438  0.49896553  0.62332477  1
  V  V59  1  0.63026671  0.37427206  0.24216407  1
  V  V60  1  0.37436841  0.12544630  0.74894863  1
  V  V61  1  0.75107436  0.49599038  0.24304960  1
  V  V62  1  0.24765045  0.38448438  0.12463783  1
  V  V63  1  0.49963085  0.87437450  0.87449723  1
  V  V64  1  0.87496124  0.74920176  0.62509743  1
  V  V65  1  0.49636351  0.38069570  0.37243256  1
  V  V66  1  0.49886250  0.12419077  0.62331195  1
  V  V67  1  0.62451883  -0.00158106  0.62351416  1
  V  V68  1  0.12095081  0.00628471  0.12399988  1
  V  V69  1  0.37504238  0.62445362  0.75110176  1
  V  V70  1  0.87490338  0.37453699  0.49843578  1
  V  V71  1  0.87709103  0.13010430  0.24303405  1
  V  V72  1  0.37366853  0.25189117  0.12444301  1
  V  V73  1  0.37419740  0.37856684  0.49707403  1
  V  V74  1  0.12373758  0.87464119  0.75166259  1
  V  V75  1  0.26030193  0.50253430  0.25373347  1
  V  V76  1  0.24844011  0.74999861  0.50085821  1
  V  V77  1  0.12665205  0.62107907  0.00806392  1
  V  V78  1  -0.00049670  0.37518053  0.87591620  1
  V  V79  1  0.87269908  -0.00052770  0.37486528  1
  V  V80  1  0.25633611  0.62058054  0.37693818  1
  V  V81  1  0.00426573  0.50028699  0.00708064  1
  V  V82  1  0.00129072  0.37445843  0.37393033  1
  V  V83  1  0.87641862  0.62535922  0.75082565  1
  V  V84  1  0.49940964  0.37728660  0.87669726  1
  V  V85  1  0.62718545  0.24889887  0.87443730  1
  V  V86  1  0.37244597  0.87652590  0.50069416  1
  V  V87  1  0.62857899  -0.00738665  0.12363395  1
  V  V88  1  0.49967661  0.12476079  0.12424559  1
  V  V89  1  0.87588938  0.49943699  0.87671917  1
  V  V90  1  -0.00079299  0.87456774  0.87727418  1
  V  V91  1  0.62521248  0.62476284  0.49917705  1
  V  V92  1  0.37448278  0.12515194  0.24943960  1
  Zn  Zn93  1  0.12407727  0.74717107  0.37502965  1
  Zn  Zn94  1  0.25020995  0.37503725  0.62339180  1
  Zn  Zn95  1  -0.00002660  0.74939819  0.75130082  1
  Zn  Zn96  1  0.38288904  0.75584416  0.13818921  1
  Zn  Zn97  1  0.75184457  0.12690883  0.87489308  1
  Zn  Zn98  1  0.12206962  0.00087747  0.62469052  1
  Zn  Zn99  1  0.74725363  0.75329298  0.00594960  1
  Zn  Zn100  1  0.37624621  0.37820375  0.00105411  1
  Zn  Zn101  1  0.62269801  0.62329534  0.00244058  1
  Zn  Zn102  1  0.49288608  0.86881420  0.37066099  1
  Zn  Zn103  1  0.75041031  0.87388101  0.62512519  1
  Zn  Zn104  1  0.00022234  0.74663050  0.24898270  1
  Zn  Zn105  1  0.37624368  0.49970151  0.87707507  1
  Zn  Zn106  1  0.12173972  0.12635802  -0.00028808  1
  Zn  Zn107  1  -0.00229997  0.00028198  0.50212145  1
  Zn  Zn108  1  0.50094386  0.50275941  0.00272694  1
  Zn  Zn109  1  -0.00736369  0.13658794  0.11557896  1
  Zn  Zn110  1  0.74971345  0.12432583  0.37358446  1
  Zn  Zn111  1  0.62607355  0.49860217  0.12058761  1
  Zn  Zn112  1  0.12358151  0.74945583  0.87766009  1
  Zn  Zn113  1  0.74947712  0.62265252  0.37462252  1
  Zn  Zn114  1  0.38340824  0.63350076  0.25880555  1
  Zn  Zn115  1  -0.00192173  0.00276512  0.00205066  1
  Zn  Zn116  1  0.87304704  0.50073698  0.37477005  1
  Zn  Zn117  1  0.00111485  0.25446431  0.24402294  1
  Zn  Zn118  1  0.24941952  0.25195561  0.49927864  1
  Zn  Zn119  1  0.12612319  0.25102240  0.37364815  1
  Zn  Zn120  1  0.37529949  0.75015998  0.62486157  1
  Zn  Zn121  1  0.00539680  0.62463955  0.12945973  1
  Zn  Zn122  1  0.18554468  0.19426565  0.18804680  1
  Zn  Zn123  1  0.18775913  0.18900184  0.68492557  1
  Zn  Zn124  1  0.19346925  0.68813675  0.18899177  1
  Zn  Zn125  1  0.18751027  0.68905496  0.68796629  1
  Zn  Zn126  1  0.68866750  0.18171668  0.18854806  1
  Zn  Zn127  1  0.68741308  0.18512516  0.68590776  1
  Zn  Zn128  1  0.68888851  0.68498969  0.18868410  1
  Zn  Zn129  1  0.68846746  0.68704481  0.68851522  1
  Zn  Zn130  1  0.31185796  0.31193219  0.31210072  1
  Zn  Zn131  1  0.31290583  0.31398094  0.81076016  1
  Zn  Zn132  1  0.30945914  0.81003152  0.31573152  1
  Zn  Zn133  1  0.31248958  0.81044081  0.81366014  1
  Zn  Zn134  1  0.81091762  0.31280444  0.31317522  1
  Zn  Zn135  1  0.81287795  0.31202077  0.81824052  1
  Zn  Zn136  1  0.80723974  0.80924843  0.31233128  1
  Zn  Zn137  1  0.81249577  0.81258302  0.81209030  1
  Zn  Zn138  1  0.18768978  0.43975339  0.43683600  1
  Zn  Zn139  1  0.18769077  0.43860510  0.93729999  1
  Zn  Zn140  1  0.18689863  0.94059133  0.43808351  1
  Zn  Zn141  1  0.18629941  0.93938855  0.93859152  1
  Zn  Zn142  1  0.68716484  0.43766815  0.43108657  1
  Zn  Zn143  1  0.68768758  0.43659321  0.94147368  1
  Zn  Zn144  1  0.68708346  0.93357808  0.43525302  1
  Zn  Zn145  1  0.68835478  0.93775452  0.93422662  1
  Zn  Zn146  1  0.30945316  0.06392913  0.06187503  1
  Zn  Zn147  1  0.30910559  0.06192917  0.56260628  1
  Zn  Zn148  1  0.32279065  0.56260454  0.06319723  1
  Zn  Zn149  1  0.31304849  0.56170609  0.56415250  1
  Zn  Zn150  1  0.80974450  0.06232883  0.05953672  1
  Zn  Zn151  1  0.81037062  0.06203563  0.56237159  1
  Zn  Zn152  1  0.81756758  0.56143393  0.06499159  1
  Zn  Zn153  1  0.81287901  0.56236631  0.56198555  1
  Zn  Zn154  1  0.43853432  0.44265273  0.18523413  1
  Zn  Zn155  1  0.43644672  0.43809025  0.68710539  1
  Zn  Zn156  1  0.43796077  0.93773421  0.18662079  1
  Zn  Zn157  1  0.43641897  0.93701170  0.68615241  1
  Zn  Zn158  1  0.93854961  0.43936305  0.18855299  1
  Zn  Zn159  1  0.93730288  0.43733035  0.68783234  1
  Zn  Zn160  1  0.93848240  0.93862532  0.18620481  1
  Zn  Zn161  1  0.93760418  0.93769393  0.68700276  1
  Zn  Zn162  1  0.05995289  0.06155022  0.31259600  1
  Zn  Zn163  1  0.06094933  0.06216726  0.81336748  1
  Zn  Zn164  1  0.06617569  0.55989125  0.31360949  1
  Zn  Zn165  1  0.06405588  0.56342144  0.81798309  1
  Zn  Zn166  1  0.56151320  0.06017853  0.31184339  1
  Zn  Zn167  1  0.56269226  0.06296513  0.81198790  1
  Zn  Zn168  1  0.56653921  0.56085951  0.31061782  1
  Zn  Zn169  1  0.56475836  0.56114631  0.81177831  1
  Zn  Zn170  1  0.43721401  0.18997885  0.43595211  1
  Zn  Zn171  1  0.43709039  0.19042643  0.93787435  1
  Zn  Zn172  1  0.43622084  0.68883766  0.44106046  1
  Zn  Zn173  1  0.43823295  0.68534136  0.94196069  1
  Zn  Zn174  1  0.93763632  0.18856605  0.43358088  1
  Zn  Zn175  1  0.93673212  0.18782065  0.93855710  1
  Zn  Zn176  1  0.93794450  0.68724083  0.43698814  1
  Zn  Zn177  1  0.93826548  0.68891151  0.94076248  1
  Zn  Zn178  1  0.06290053  0.31243372  0.06406976  1
  Zn  Zn179  1  0.06304027  0.31119401  0.56226682  1
  Zn  Zn180  1  0.05925640  0.81058924  0.06387638  1
  Zn  Zn181  1  0.06148447  0.81169086  0.56328264  1
  Zn  Zn182  1  0.56427476  0.30973438  0.06003381  1
  Zn  Zn183  1  0.56093204  0.31167530  0.56068281  1
  Zn  Zn184  1  0.56355422  0.80940700  0.05991817  1
  Zn  Zn185  1  0.56068634  0.81208601  0.56113118  1
  O  O186  1  0.12829694  0.11376791  0.12717124  1
  O  O187  1  0.11840963  0.12534875  0.61599365  1
  O  O188  1  0.12597675  0.63054543  0.11180488  1
  O  O189  1  0.11907112  0.61955608  0.62127543  1
  O  O190  1  0.61841139  0.11405709  0.11961460  1
  O  O191  1  0.61794455  0.11878414  0.61801693  1
  O  O192  1  0.61442995  0.62519592  0.12517767  1
  O  O193  1  0.62033716  0.61829705  0.62017452  1
  O  O194  1  0.38732131  0.36819918  0.38324604  1
  O  O195  1  0.38844178  0.37391475  0.87352989  1
  O  O196  1  0.37268958  0.88331293  0.38229490  1
  O  O197  1  0.37995403  0.88165642  0.87974547  1
  O  O198  1  0.88460120  0.37571934  0.38004635  1
  O  O199  1  0.88246395  0.38169292  0.88031810  1
  O  O200  1  0.88099071  0.88032067  0.37765611  1
  O  O201  1  0.88250631  0.87922106  0.88090277  1
  O  O202  1  0.25532878  0.00706196  0.36867873  1
  O  O203  1  0.25581236  0.00600532  0.87030722  1
  O  O204  1  0.24613943  0.51050104  0.36787726  1
  O  O205  1  0.25078276  0.50715422  0.86760652  1
  O  O206  1  0.75851431  -0.00091592  0.36617360  1
  O  O207  1  0.75620549  0.00281990  0.86662376  1
  O  O208  1  0.75329435  0.50217687  0.36281829  1
  O  O209  1  0.75554083  0.50736289  0.86923197  1
  O  O210  1  0.25739232  0.49023464  0.13365008  1
  O  O211  1  0.24192542  0.49921447  0.63268849  1
  O  O212  1  0.24256339  0.99478303  0.13045798  1
  O  O213  1  0.24632742  0.99366487  0.63347218  1
  O  O214  1  0.74847739  0.50531596  0.13891678  1
  O  O215  1  0.74543879  0.49353380  0.63007700  1
  O  O216  1  0.73713684  1.00415988  0.13239850  1
  O  O217  1  0.74219612  0.99745350  0.63062141  1
  O  O218  1  0.00872723  0.38039174  0.25777906  1
  O  O219  1  0.00471461  0.36983393  0.75536901  1
  O  O220  1  0.00793582  0.87586436  0.25860178  1
  O  O221  1  0.00733325  0.87492908  0.75867245  1
  O  O222  1  0.50563411  0.37050592  0.25673330  1
  O  O223  1  0.50638555  0.36844068  0.75471287  1
  O  O224  1  0.51354937  0.88166930  0.25291959  1
  O  O225  1  0.50389312  0.86995184  0.75543057  1
  O  O226  1  0.49482537  0.12969189  0.24381467  1
  O  O227  1  0.49400702  0.12928326  0.74347888  1
  O  O228  1  0.50103877  0.62047541  0.23862127  1
  O  O229  1  0.49602132  0.62925708  0.74573296  1
  O  O230  1  0.98358204  0.12445666  0.25235757  1
  O  O231  1  0.99446010  0.13099770  0.74407237  1
  O  O232  1  0.99213476  0.62376793  0.25015467  1
  O  O233  1  0.99462070  0.62540455  0.74585798  1
  O  O234  1  0.36799372  0.25323355  0.00665350  1
  O  O235  1  0.37695710  0.26089075  0.50552587  1
  O  O236  1  0.36417293  0.75762764  0.00092720  1
  O  O237  1  0.36663829  0.75854569  0.50277245  1
  O  O238  1  0.86574488  0.25944165  -0.00741761  1
  O  O239  1  0.86893094  0.25449823  0.50498127  1
  O  O240  1  0.87383376  0.75780117  0.00809208  1
  O  O241  1  0.86928180  0.75330163  0.50480158  1
  O  O242  1  0.12598723  0.23826229  0.49695371  1
  O  O243  1  0.13263640  0.25048849  0.99121169  1
  O  O244  1  0.13077456  0.74262370  0.50074648  1
  O  O245  1  0.13513361  0.74409494  0.99970634  1
  O  O246  1  0.62824807  0.24385543  0.49457811  1
  O  O247  1  0.63296721  0.24476842  0.99390625  1
  O  O248  1  0.62933560  0.74450436  0.49382406  1
  O  O249  1  0.63095369  0.74771281  0.99013301  1
  O  O250  1  0.49476892  0.24380583  0.12937801  1
  O  O251  1  0.49512034  0.24337652  0.62958841  1
  O  O252  1  0.50082042  0.73737985  0.12203250  1
  O  O253  1  0.49960034  0.74195862  0.63188599  1
  O  O254  1  1.00630941  0.24672229  0.13256488  1
  O  O255  1  0.99286271  0.24563221  0.63088585  1
  O  O256  1  0.98812272  0.74648810  0.12900856  1
  O  O257  1  0.99298606  0.74197987  0.62667459  1
  O  O258  1  0.00003823  0.26360473  0.36858712  1
  O  O259  1  0.00566279  0.25559059  0.86854463  1
  O  O260  1  0.00227606  0.76247493  0.37240003  1
  O  O261  1  0.00089664  0.76271652  0.87374648  1
  O  O262  1  0.50542598  0.25810297  0.36772045  1
  O  O263  1  0.50642450  0.25609268  0.86802573  1
  O  O264  1  0.51394945  0.75023070  0.38112097  1
  O  O265  1  0.50558993  0.75526883  0.86977836  1
  O  O266  1  0.24017303  0.12496922  0.49338954  1
  O  O267  1  0.24787540  0.13336180  0.99248991  1
  O  O268  1  0.24501213  0.62786213  0.49564610  1
  O  O269  1  0.24588941  0.63117152  0.99796567  1
  O  O270  1  0.74222149  0.13125766  0.49802722  1
  O  O271  1  0.74456917  0.13287931  0.99568993  1
  O  O272  1  0.74273392  0.62978671  0.49910137  1
  O  O273  1  0.75323908  0.62455066  0.98645313  1
  O  O274  1  0.25005217  0.37139598  0.00898248  1
  O  O275  1  0.26138161  0.37507117  0.49964239  1
  O  O276  1  0.25366316  0.86859287  0.00390646  1
  O  O277  1  0.25200684  0.87142920  0.50561478  1
  O  O278  1  0.76107185  0.36567028  -0.00643625  1
  O  O279  1  0.75388531  0.36969742  0.50444671  1
  O  O280  1  0.76437145  0.87284982  -0.00779003  1
  O  O281  1  0.75612670  0.86699747  0.50168950  1
  O  O282  1  0.13682092  0.48799265  0.25321152  1
  O  O283  1  0.12894414  0.49546815  0.74634632  1
  O  O284  1  0.12909085  0.99269271  0.24419263  1
  O  O285  1  0.13041291  0.98964686  0.75094193  1
  O  O286  1  0.63470171  0.48946874  0.24937626  1
  O  O287  1  0.63203931  0.49311359  0.74262492  1
  O  O288  1  0.63127699  0.99378483  0.24290288  1
  O  O289  1  0.62815510  0.99528393  0.74371216  1
  O  O290  1  0.36924674  0.00568337  0.25400729  1
  O  O291  1  0.37005909  0.00579342  0.75572004  1
  O  O292  1  0.36313122  0.50504253  0.25099639  1
  O  O293  1  0.36823941  0.50687234  0.75142654  1
  O  O294  1  0.86725892  0.00234489  0.25668390  1
  O  O295  1  0.86898271  0.00444024  0.75402009  1
  O  O296  1  0.86882208  0.50734799  0.25030061  1
  O  O297  1  0.87021728  0.50465228  0.75565627  1
  O  O298  1  0.11603423  0.37565988  0.36982726  1
  O  O299  1  0.11915470  0.36976031  0.86873997  1
  O  O300  1  0.11625635  0.87869903  0.36660083  1
  O  O301  1  0.11661374  0.87612495  0.86872147  1
  O  O302  1  0.61549342  0.36754397  0.36623218  1
  O  O303  1  0.61882590  0.36855928  0.86709962  1
  O  O304  1  0.62089585  0.86696179  0.36724574  1
  O  O305  1  0.61851473  0.87019490  0.86852032  1
  O  O306  1  0.37968119  0.12979966  0.13002474  1
  O  O307  1  0.37980108  0.12952491  0.62934479  1
  O  O308  1  0.38975272  0.62955200  0.12866991  1
  O  O309  1  0.38290581  0.62600442  0.63196883  1
  O  O310  1  0.87456791  0.11377113  0.14083945  1
  O  O311  1  0.87918758  0.13104367  0.62920782  1
  O  O312  1  0.87937081  0.63204741  0.13574088  1
  O  O313  1  0.88042413  0.62857786  0.63093756  1
  O  O314  1  0.25563366  0.25953256  0.12025731  1
  O  O315  1  0.25894852  0.25355933  0.62126573  1
  O  O316  1  0.25103387  0.75777771  0.11460387  1
  O  O317  1  0.25143037  0.75704610  0.61900329  1
  O  O318  1  0.74414020  0.24390199  0.11005505  1
  O  O319  1  0.75424292  0.25529103  0.61905353  1
  O  O320  1  0.76568836  0.74426458  0.12371071  1
  O  O321  1  0.75651808  0.75024639  0.61869149  1
  O  O322  1  0.24905784  0.24137117  0.37818757  1
  O  O323  1  0.24564389  0.24664502  0.87862880  1
  O  O324  1  0.24346961  0.74068174  0.38420791  1
  O  O325  1  0.24886923  0.74495733  0.88685110  1
  O  O326  1  0.74221460  0.24825434  0.38224468  1
  O  O327  1  0.74204256  0.24725020  0.88115185  1
  O  O328  1  0.73846266  0.74777180  0.38328158  1
  O  O329  1  0.74565499  0.73912102  0.87311853  1
  O  O330  1  0.00384850  0.12009859  0.00051129  1
  O  O331  1  0.00672597  0.12559473  0.50357105  1
  O  O332  1  0.00924694  0.61728689  -0.00077582  1
  O  O333  1  0.00450781  0.61910606  0.50591078  1
  O  O334  1  0.50568647  0.11989580  0.00448724  1
  O  O335  1  0.50428530  0.11929478  0.50421234  1
  O  O336  1  0.50297345  0.62355388  0.01160560  1
  O  O337  1  0.50510643  0.61871159  0.50592975  1
  O  O338  1  0.49491601  0.37901240  0.49130880  1
  O  O339  1  0.50120651  0.37192761  0.98619359  1
  O  O340  1  0.49097248  0.88165377  0.49859976  1
  O  O341  1  0.49449752  0.88068775  0.99362769  1
  O  O342  1  0.99542016  0.37839589  0.49301724  1
  O  O343  1  0.99527076  0.38195066  0.99434980  1
  O  O344  1  0.99426618  0.87662452  0.48999417  1
  O  O345  1  0.99170078  0.87738715  0.99104598  1
  O  O346  1  0.50745396  0.48697791  0.38039416  1
  O  O347  1  0.50152292  0.48634173  0.87163555  1
  O  O348  1  0.49166664  0.99913319  0.38106313  1
  O  O349  1  0.49455451  0.99497808  0.87980728  1
  O  O350  1  0.99889530  0.48938615  0.38240619  1
  O  O351  1  0.99483568  0.49481297  0.88409427  1
  O  O352  1  0.98839878  0.98948703  0.37499867  1
  O  O353  1  0.99318148  0.98891322  0.87478247  1
  O  O354  1  0.01149700  0.00414451  0.12580484  1
  O  O355  1  0.00074755  0.00949294  0.62215931  1
  O  O356  1  -0.00281047  0.50289206  0.10992693  1
  O  O357  1  0.00477247  0.50526700  0.62063984  1
  O  O358  1  0.50762945  0.00547216  0.11823329  1
  O  O359  1  0.50418809  0.00544630  0.61851612  1
  O  O360  1  0.50402406  0.51249543  0.12379452  1
  O  O361  1  0.50784766  0.50427663  0.61972116  1
  O  O362  1  0.24704904  0.38364606  0.24593708  1
  O  O363  1  0.24285781  0.38214919  0.74846294  1
  O  O364  1  0.24008643  0.88227824  0.24630677  1
  O  O365  1  0.24257380  0.87954220  0.74782289  1
  O  O366  1  0.74055262  0.38181445  0.25549427  1
  O  O367  1  0.74606319  0.37900843  0.74414820  1
  O  O368  1  0.73952218  0.88666942  0.25358703  1
  O  O369  1  0.74226210  0.88152006  0.74862597  1
  O  O370  1  0.25510549  0.12084949  0.25444102  1
  O  O371  1  0.25542833  0.12051775  0.75489007  1
  O  O372  1  0.24698199  0.61675115  0.26008739  1
  O  O373  1  0.25410976  0.62150755  0.75606520  1
  O  O374  1  0.75884971  0.11163263  0.25261004  1
  O  O375  1  0.75663724  0.11848064  0.74988690  1
  O  O376  1  0.76018041  0.61636067  0.25270616  1
  O  O377  1  0.75611258  0.61824780  0.75822609  1
  O  O378  1  0.36995241  0.12047731  0.36872193  1
  O  O379  1  0.37039435  0.12101836  0.86875729  1
  O  O380  1  0.36038488  0.62822069  0.37888777  1
  O  O381  1  0.36874535  0.62465643  0.86838241  1
  O  O382  1  0.87358866  0.11286835  0.36694718  1
  O  O383  1  0.87560197  0.11743108  0.86635880  1
  O  O384  1  0.87439789  0.62422183  0.36348222  1
  O  O385  1  0.86894185  0.62015668  0.87094002  1
  O  O386  1  0.13936635  0.37247528  0.13425922  1
  O  O387  1  0.12476983  0.38159205  0.63134536  1
  O  O388  1  0.12802961  0.88329743  0.13315605  1
  O  O389  1  0.12808496  0.87710527  0.63551624  1
  O  O390  1  0.61721455  0.37395780  0.14021244  1
  O  O391  1  0.63022068  0.37874854  0.62864197  1
  O  O392  1  0.61807739  0.88600416  0.13132291  1
  O  O393  1  0.62447338  0.88127308  0.63107059  1
  O  O394  1  0.12751639  0.26769572  0.25566037  1
  O  O395  1  0.11905554  0.25575921  0.75411608  1
  O  O396  1  0.12489630  0.76414146  0.25025020  1
  O  O397  1  0.12400989  0.76315884  0.75420019  1
  O  O398  1  0.62104608  0.25432216  0.25359706  1
  O  O399  1  0.61982708  0.25364570  0.75269586  1
  O  O400  1  0.63496541  0.76100321  0.25958237  1
  O  O401  1  0.61920887  0.75511358  0.75508032  1
  O  O402  1  0.38104794  0.24398832  0.24425137  1
  O  O403  1  0.38075022  0.24412025  0.74349986  1
  O  O404  1  0.37021904  0.74698985  0.24981753  1
  O  O405  1  0.38182067  0.74355016  0.74869183  1
  O  O406  1  0.86849081  0.23114272  0.25500550  1
  O  O407  1  0.87970282  0.24540957  0.74493301  1
  O  O408  1  0.87449550  0.74281180  0.24460879  1
  O  O409  1  0.87643727  0.74310346  0.74343657  1
  O  O410  1  0.38357029  0.48714365  0.50712311  1
  O  O411  1  0.38176050  0.49425927  0.99360115  1
  O  O412  1  0.37847377  0.99641710  0.49479119  1
  O  O413  1  0.37981603  0.99594925  0.99425852  1
  O  O414  1  0.88151163  0.49234843  0.49975497  1
  O  O415  1  0.88258508  0.49275024  0.99473117  1
  O  O416  1  0.87292308  0.99402523  0.48922417  1
  O  O417  1  0.87513822  0.99156117  0.99434941  1
  O  O418  1  0.12412259  0.00156756  0.01192950  1
  O  O419  1  0.12081307  0.01291023  0.50120018  1
  O  O420  1  0.11589144  0.50931306  -0.00574160  1
  O  O421  1  0.11884411  0.50498702  0.50751686  1
  O  O422  1  0.62091094  0.00290575  0.00582365  1
  O  O423  1  0.61963843  0.00361547  0.50325651  1
  O  O424  1  0.62233874  0.50349906  0.00350680  1
  O  O425  1  0.62006638  0.50400752  0.50431887  1
  O  O426  1  0.36613146  0.36854502  0.12657736  1
  O  O427  1  0.37659779  0.36855643  0.61517145  1
  O  O428  1  0.36809065  0.87702911  0.11778485  1
  O  O429  1  0.36639987  0.87463964  0.61905764  1
  O  O430  1  0.87988163  0.37804111  0.11093570  1
  O  O431  1  0.86955981  0.36898709  0.61938222  1
  O  O432  1  0.88156081  0.86780925  0.11512870  1
  O  O433  1  0.87505365  0.86788038  0.61778570  1
  O  O434  1  0.12872566  0.12513548  0.38134952  1
  O  O435  1  0.13233023  0.13210452  0.87307005  1
  O  O436  1  0.13291174  0.62572756  0.38381219  1
  O  O437  1  0.13262694  0.62884336  0.88656743  1
  O  O438  1  0.62513092  0.13032134  0.37958782  1
  O  O439  1  0.62439302  0.13077988  0.88147278  1
  O  O440  1  0.62558689  0.63290422  0.38092104  1
  O  O441  1  0.63602360  0.62994816  0.87272308  1
