# generated using pymatgen
data_V93Zn93O256
_symmetry_space_group_name_H-M   'P 1'
_cell_length_a   17.04854865
_cell_length_b   17.04519130
_cell_length_c   17.04800527
_cell_angle_alpha   90.10160345
_cell_angle_beta   90.02801300
_cell_angle_gamma   90.04831828
_symmetry_Int_Tables_number   1
_chemical_formula_structural   V93Zn93O256
_chemical_formula_sum   'V93 Zn93 O256'
_cell_volume   4954.06812454
_cell_formula_units_Z   1
loop_
 _symmetry_equiv_pos_site_id
 _symmetry_equiv_pos_as_xyz
  1  'x, y, z'
loop_
 _atom_site_type_symbol
 _atom_site_label
 _atom_site_symmetry_multiplicity
 _atom_site_fract_x
 _atom_site_fract_y
 _atom_site_fract_z
 _atom_site_occupancy
  V  V0  1  0.50020479  0.49991505  0.50117324  1
  V  V1  1  0.62791993  0.13068824  0.49860268  1
  V  V2  1  0.37568049  0.37555476  0.00005294  1
  V  V3  1  0.62111910  0.87651252  0.25364475  1
  V  V4  1  0.62561569  0.62631133  0.00162119  1
  V  V5  1  0.49888842  0.74894135  0.74642139  1
  V  V6  1  0.75191780  0.62455587  0.87419711  1
  V  V7  1  0.12508159  0.87332982  0.74852097  1
  V  V8  1  0.62567549  0.62635456  0.49957629  1
  V  V9  1  0.50071275  0.75362464  0.25150080  1
  V  V10  1  0.75259335  0.75064926  -0.00044688  1
  V  V11  1  0.24916440  0.24912870  0.00097036  1
  V  V12  1  0.12437595  0.24910990  0.87455072  1
  V  V13  1  0.87491104  0.12363035  0.74971812  1
  V  V14  1  0.11836804  0.86975831  0.24977526  1
  V  V15  1  0.87191559  0.36931337  0.50221908  1
  V  V16  1  0.87375497  0.87531049  0.50060770  1
  V  V17  1  0.24897878  0.12349548  0.87459367  1
  V  V18  1  0.62244024  0.75421062  0.37551770  1
  V  V19  1  0.25021657  0.63128231  0.38146032  1
  V  V20  1  -0.00019122  0.49983069  0.00226977  1
  V  V21  1  0.49894186  0.24920059  0.74978367  1
  V  V22  1  0.87512675  0.25077161  0.12425023  1
  V  V23  1  0.25019342  0.86695521  0.61890529  1
  V  V24  1  0.37510348  0.75113303  0.12518845  1
  V  V25  1  0.75011318  0.13386149  0.37858712  1
  V  V26  1  0.24876035  0.24774613  0.49876440  1
  V  V27  1  0.11913352  0.74934862  0.37301267  1
  V  V28  1  0.87696377  -0.00065090  0.37461185  1
  V  V29  1  0.49963884  0.12494687  0.12374830  1
  V  V30  1  0.12601583  0.74914318  0.87581811  1
  V  V31  1  0.87927427  0.74218000  0.62580733  1
  V  V32  1  0.87485907  0.12543894  0.24925651  1
  V  V33  1  0.50118327  -0.00464944  0.49597192  1
  V  V34  1  0.37398674  0.62351823  0.75195787  1
  V  V35  1  0.75080304  0.49983932  0.75208350  1
  V  V36  1  0.00082489  0.87693427  0.87432030  1
  V  V37  1  0.62586728  0.24978823  0.87521885  1
  V  V38  1  0.12422499  -0.00160712  0.62231552  1
  V  V39  1  0.37901493  -0.00590114  0.37362765  1
  V  V40  1  0.24999595  0.37519153  0.12668731  1
  V  V41  1  0.62656657  0.74994037  0.87452411  1
  V  V42  1  0.37403029  0.50125002  0.37694912  1
  V  V43  1  0.50042348  0.37229111  0.37284043  1
  V  V44  1  0.25048609  -0.00177337  0.74792619  1
  V  V45  1  0.75058564  0.36778314  0.62239320  1
  V  V46  1  0.00035275  0.12055935  0.11972893  1
  V  V47  1  0.87503436  0.50073743  0.87748537  1
  V  V48  1  -0.00011687  0.50505329  0.50625263  1
  V  V49  1  0.00213262  0.37456499  0.37588235  1
  V  V50  1  0.37533765  0.24889892  0.12588283  1
  V  V51  1  0.50138174  0.00038769  -0.00125601  1
  V  V52  1  0.37459739  0.87431935  -0.00014360  1
  V  V53  1  0.37513501  -0.00127892  0.87339136  1
  V  V54  1  0.24971806  0.87440192  0.12424785  1
  V  V55  1  0.74858958  0.00136950  0.24834875  1
  V  V56  1  0.62513683  0.00047421  0.12406371  1
  V  V57  1  0.00029228  0.12272811  0.62245031  1
  V  V58  1  0.49841440  0.37585293  0.87618281  1
  V  V59  1  0.74950352  0.25033599  0.00018941  1
  V  V60  1  0.37291127  0.86982354  0.49773739  1
  V  V61  1  0.88104313  0.63086546  0.25278904  1
  V  V62  1  0.12298026  0.12086402  -0.00008930  1
  V  V63  1  0.24972975  -0.00059386  0.24952920  1
  V  V64  1  0.87592530  0.37606923  0.00150499  1
  V  V65  1  0.62508066  -0.00048717  0.62385667  1
  V  V66  1  0.12715173  0.63021609  0.50408514  1
  V  V67  1  0.87898660  0.87781349  0.00049336  1
  V  V68  1  0.24825700  0.37418264  0.62543232  1
  V  V69  1  0.12244752  0.50366178  0.62870375  1
  V  V70  1  0.87748626  -0.00004936  0.87714069  1
  V  V71  1  0.37453255  0.62715804  0.25087419  1
  V  V72  1  0.37408403  0.37466288  0.50124298  1
  V  V73  1  0.88146133  0.75097189  0.12987916  1
  V  V74  1  0.50006414  0.87514915  0.87393054  1
  V  V75  1  0.24883830  0.50060689  0.25135822  1
  V  V76  1  0.74936764  -0.00052729  0.74922151  1
  V  V77  1  -0.00056627  0.24910593  0.74951738  1
  V  V78  1  0.12486094  0.49983248  0.12629096  1
  V  V79  1  0.62646583  0.49958253  0.12814591  1
  V  V80  1  0.12522556  0.62559808  0.00126253  1
  V  V81  1  0.87241856  0.50300565  0.37525293  1
  V  V82  1  0.37502879  0.12439070  0.74863345  1
  V  V83  1  0.50094630  0.62628188  0.12536754  1
  V  V84  1  0.62496554  0.37465078  0.75010483  1
  V  V85  1  0.24947597  0.12484642  0.37531456  1
  V  V86  1  0.12350687  -0.00072351  0.12155075  1
  V  V87  1  0.62488151  0.87575611  0.74840838  1
  V  V88  1  0.37389824  0.24884486  0.62575556  1
  V  V89  1  0.00064070  0.25114946  0.25039123  1
  V  V90  1  0.37554135  0.12436788  0.24886731  1
  V  V91  1  0.62561063  0.50066900  0.62524815  1
  V  V92  1  0.12439544  0.37383504  0.75027129  1
  Zn  Zn93  1  0.49875560  0.62353089  0.62566249  1
  Zn  Zn94  1  0.74967904  0.37573800  0.12977748  1
  Zn  Zn95  1  0.49989088  0.12481075  0.62288263  1
  Zn  Zn96  1  0.62893114  0.37363876  0.25183900  1
  Zn  Zn97  1  0.75078399  0.50062478  0.24980112  1
  Zn  Zn98  1  0.74906285  0.75082128  0.50054528  1
  Zn  Zn99  1  0.00203034  -0.00147518  0.49666177  1
  Zn  Zn100  1  0.62607020  0.12452883  -0.00102407  1
  Zn  Zn101  1  0.75073480  0.87524340  0.12473247  1
  Zn  Zn102  1  0.37358798  0.50028572  0.87763512  1
  Zn  Zn103  1  0.25140383  0.74891516  0.00015773  1
  Zn  Zn104  1  0.25085114  0.62123455  0.87631804  1
  Zn  Zn105  1  0.12597419  0.37493129  0.25122374  1
  Zn  Zn106  1  0.12404376  0.12346761  0.49649267  1
  Zn  Zn107  1  0.00510797  0.74062382  0.74221861  1
  Zn  Zn108  1  0.74977019  0.87346366  0.62431900  1
  Zn  Zn109  1  0.37139992  0.74537960  0.61761286  1
  Zn  Zn110  1  -0.00497225  0.86836338  0.36998850  1
  Zn  Zn111  1  0.12553257  0.24776938  0.37493102  1
  Zn  Zn112  1  0.50304063  0.24969314  0.24923677  1
  Zn  Zn113  1  0.00387626  0.62935519  0.13269509  1
  Zn  Zn114  1  0.87186016  0.24606892  0.62333207  1
  Zn  Zn115  1  0.62758276  0.25297285  0.37488286  1
  Zn  Zn116  1  0.00023737  0.37481147  0.87530774  1
  Zn  Zn117  1  0.74929570  0.12502808  0.87423644  1
  Zn  Zn118  1  0.88184569  0.62001057  0.74598759  1
  Zn  Zn119  1  0.25076559  0.49887669  0.75329299  1
  Zn  Zn120  1  0.49915916  0.50110184  -0.00039412  1
  Zn  Zn121  1  0.74934623  0.62716241  0.37319340  1
  Zn  Zn122  1  0.18603939  0.18842561  0.18997510  1
  Zn  Zn123  1  0.18629214  0.18635239  0.68622639  1
  Zn  Zn124  1  0.18916324  0.68787556  0.18882944  1
  Zn  Zn125  1  0.18862910  0.68621160  0.68977225  1
  Zn  Zn126  1  0.68497377  0.18917607  0.18911203  1
  Zn  Zn127  1  0.68628645  0.18485270  0.68771473  1
  Zn  Zn128  1  0.69457317  0.68690907  0.18885646  1
  Zn  Zn129  1  0.69261357  0.68809362  0.68538040  1
  Zn  Zn130  1  0.31415525  0.31161049  0.31224725  1
  Zn  Zn131  1  0.31121934  0.31242726  0.81309508  1
  Zn  Zn132  1  0.30766060  0.81227037  0.31190607  1
  Zn  Zn133  1  0.31148706  0.81075423  0.81025904  1
  Zn  Zn134  1  0.81388797  0.31587023  0.31006939  1
  Zn  Zn135  1  0.81404870  0.31319838  0.81286884  1
  Zn  Zn136  1  0.80619750  0.81295082  0.31227918  1
  Zn  Zn137  1  0.81204661  0.81243887  0.80949566  1
  Zn  Zn138  1  0.18790655  0.44001349  0.44055778  1
  Zn  Zn139  1  0.18901979  0.43781450  0.93656186  1
  Zn  Zn140  1  0.18838079  0.93720445  0.43652553  1
  Zn  Zn141  1  0.18789985  0.93770279  0.93851418  1
  Zn  Zn142  1  0.68720777  0.43702336  0.43964942  1
  Zn  Zn143  1  0.68661167  0.43741671  0.94079454  1
  Zn  Zn144  1  0.69025263  0.94066799  0.43588543  1
  Zn  Zn145  1  0.69017560  0.93687646  0.93659520  1
  Zn  Zn146  1  0.31152719  0.06109863  0.06149974  1
  Zn  Zn147  1  0.31163386  0.05998445  0.56149595  1
  Zn  Zn148  1  0.31213940  0.56185662  0.06265336  1
  Zn  Zn149  1  0.31106069  0.56167252  0.56666344  1
  Zn  Zn150  1  0.81167640  0.06325056  0.06124255  1
  Zn  Zn151  1  0.81100088  0.06076163  0.56209899  1
  Zn  Zn152  1  0.81276509  0.56569653  0.06495971  1
  Zn  Zn153  1  0.80824378  0.55956508  0.56174208  1
  Zn  Zn154  1  0.43762723  0.43983862  0.18765664  1
  Zn  Zn155  1  0.43797875  0.43764401  0.68825840  1
  Zn  Zn156  1  0.43912245  0.93804105  0.18591539  1
  Zn  Zn157  1  0.43776115  0.93747093  0.68252621  1
  Zn  Zn158  1  0.93753071  0.43971416  0.18825609  1
  Zn  Zn159  1  0.93716715  0.43653483  0.68964411  1
  Zn  Zn160  1  0.93727045  0.93892556  0.18687890  1
  Zn  Zn161  1  0.93763871  0.93397417  0.68795078  1
  Zn  Zn162  1  0.06357464  0.06216451  0.30786162  1
  Zn  Zn163  1  0.06239276  0.06125076  0.80964695  1
  Zn  Zn164  1  0.06185855  0.56214140  0.31507171  1
  Zn  Zn165  1  0.05803696  0.56346506  0.81369269  1
  Zn  Zn166  1  0.56216221  0.06395312  0.31236341  1
  Zn  Zn167  1  0.56311847  0.06468420  0.81253567  1
  Zn  Zn168  1  0.56136652  0.56363889  0.31262252  1
  Zn  Zn169  1  0.56195374  0.56155534  0.81433324  1
  Zn  Zn170  1  0.43714653  0.18488282  0.43814373  1
  Zn  Zn171  1  0.43749973  0.18789556  0.93736891  1
  Zn  Zn172  1  0.44267334  0.68770895  0.43517123  1
  Zn  Zn173  1  0.43882446  0.68772724  0.93714555  1
  Zn  Zn174  1  0.93694646  0.18761482  0.43729143  1
  Zn  Zn175  1  0.93757967  0.18818102  0.93699635  1
  Zn  Zn176  1  0.93964357  0.68785926  0.44112167  1
  Zn  Zn177  1  0.93990917  0.68781982  0.93769957  1
  Zn  Zn178  1  0.06269320  0.31193439  0.06294075  1
  Zn  Zn179  1  0.06270176  0.31105951  0.56205362  1
  Zn  Zn180  1  0.06107713  0.81380398  0.06067849  1
  Zn  Zn181  1  0.05923735  0.81357631  0.55797811  1
  Zn  Zn182  1  0.56229287  0.31342517  0.06291483  1
  Zn  Zn183  1  0.56087210  0.31241384  0.56301660  1
  Zn  Zn184  1  0.56331901  0.81407959  0.06416206  1
  Zn  Zn185  1  0.55981055  0.81432478  0.56195925  1
  O  O186  1  0.11829079  0.12033064  0.12113459  1
  O  O187  1  0.11536394  0.11724438  0.62470307  1
  O  O188  1  0.12435253  0.62121372  0.11822330  1
  O  O189  1  0.13369320  0.61463312  0.61634862  1
  O  O190  1  0.61789731  0.11792964  0.12291745  1
  O  O191  1  0.62450159  0.11819366  0.61502904  1
  O  O192  1  0.62113302  0.62106478  0.12174785  1
  O  O193  1  0.62407882  0.61991846  0.61632014  1
  O  O194  1  0.38054098  0.38179101  0.38178430  1
  O  O195  1  0.38111795  0.37291355  0.88196148  1
  O  O196  1  0.36487515  0.88651200  0.38194292  1
  O  O197  1  0.37999970  0.87940423  0.87864797  1
  O  O198  1  0.88276655  0.38310477  0.38327058  1
  O  O199  1  0.87630547  0.38267300  0.88339229  1
  O  O200  1  0.87362308  0.88287848  0.37883049  1
  O  O201  1  0.88201961  0.87953731  0.87959263  1
  O  O202  1  0.25879791  0.00515325  0.36896495  1
  O  O203  1  0.25537972  0.00353348  0.86794708  1
  O  O204  1  0.25441533  0.50921897  0.37173041  1
  O  O205  1  0.25433145  0.50282627  0.87045860  1
  O  O206  1  0.76019334  0.00925671  0.36819899  1
  O  O207  1  0.76119739  0.00061791  0.86854414  1
  O  O208  1  0.76496413  0.50074159  0.37915476  1
  O  O209  1  0.75411101  0.50447537  0.87157529  1
  O  O210  1  0.24486261  0.49507092  0.13187972  1
  O  O211  1  0.23830736  0.49207681  0.62684496  1
  O  O212  1  0.24460883  0.99394616  0.13035087  1
  O  O213  1  0.24440341  0.99061688  0.62969228  1
  O  O214  1  0.73832553  0.50045108  0.12493371  1
  O  O215  1  0.74458052  0.49077467  0.63193074  1
  O  O216  1  0.74393377  1.00071010  0.13110327  1
  O  O217  1  0.74298094  0.99742595  0.63184784  1
  O  O218  1  -0.00146541  0.37116350  0.26165431  1
  O  O219  1  0.00681006  0.36703029  0.75112554  1
  O  O220  1  0.01464608  0.88136029  0.25152154  1
  O  O221  1  0.00647998  0.86907308  0.75884334  1
  O  O222  1  0.49872180  0.37656414  0.26374265  1
  O  O223  1  0.50560775  0.36852949  0.75494741  1
  O  O224  1  0.51293347  0.87005089  0.24388192  1
  O  O225  1  0.50361227  0.86806372  0.75431123  1
  O  O226  1  0.49214399  0.12401231  0.24217868  1
  O  O227  1  0.49250618  0.13129009  0.74841654  1
  O  O228  1  0.49293396  0.63270448  0.24563949  1
  O  O229  1  0.49402616  0.63383337  0.75014494  1
  O  O230  1  0.99439904  0.13115987  0.24113220  1
  O  O231  1  0.99507846  0.12805081  0.74065404  1
  O  O232  1  0.98658036  0.62240758  0.25201707  1
  O  O233  1  0.99393421  0.62918317  0.75247549  1
  O  O234  1  0.36779729  0.25393638  0.00603786  1
  O  O235  1  0.36945918  0.25477884  0.50627510  1
  O  O236  1  0.37480582  0.75667799  0.00635578  1
  O  O237  1  0.38703740  0.76564003  0.49880001  1
  O  O238  1  0.86830898  0.25515246  0.00395863  1
  O  O239  1  0.88063894  0.26574576  0.50257477  1
  O  O240  1  0.87160819  0.75845271  0.00600887  1
  O  O241  1  0.87359777  0.75729629  0.50688444  1
  O  O242  1  0.13300828  0.24677261  0.49644278  1
  O  O243  1  0.13063845  0.24246726  0.99502850  1
  O  O244  1  0.12046662  0.73707005  0.49320608  1
  O  O245  1  0.12510285  0.74288924  0.99332080  1
  O  O246  1  0.61638154  0.23420964  0.49696190  1
  O  O247  1  0.63476861  0.25056400  0.99521437  1
  O  O248  1  0.62142604  0.74418592  0.49273301  1
  O  O249  1  0.63129361  0.74742639  0.99441888  1
  O  O250  1  0.49237987  0.24307010  0.12468407  1
  O  O251  1  0.49200442  0.24860859  0.63174138  1
  O  O252  1  0.49466976  0.74592909  0.13150926  1
  O  O253  1  0.49856754  0.74966918  0.63802044  1
  O  O254  1  0.99523161  0.24163265  0.13067038  1
  O  O255  1  0.99927037  0.23882542  0.63058871  1
  O  O256  1  0.98545969  0.74952488  0.12005090  1
  O  O257  1  0.98346044  0.75510986  0.62275057  1
  O  O258  1  -0.00145757  0.26011806  0.37044144  1
  O  O259  1  0.00718118  0.24946377  0.86787199  1
  O  O260  1  0.01507107  0.74887688  0.37647344  1
  O  O261  1  0.01074999  0.76049441  0.87541321  1
  O  O262  1  0.49661123  0.26229962  0.37509271  1
  O  O263  1  0.50526703  0.25548377  0.86925634  1
  O  O264  1  0.51406294  0.74670549  0.36641951  1
  O  O265  1  0.50639320  0.75564159  0.86576919  1
  O  O266  1  0.25012822  0.12989060  0.49314543  1
  O  O267  1  0.24455725  0.12956221  0.99394496  1
  O  O268  1  0.24047894  0.61732401  0.49053287  1
  O  O269  1  0.23715578  0.62717086  0.99988294  1
  O  O270  1  0.73999513  0.11722770  0.48989777  1
  O  O271  1  0.75050844  0.13826226  0.99669362  1
  O  O272  1  0.73531233  0.62527607  0.49748796  1
  O  O273  1  0.74491263  0.63194032  0.99431631  1
  O  O274  1  0.25468147  0.36793233  0.00685404  1
  O  O275  1  0.25531325  0.36976390  0.50495733  1
  O  O276  1  0.25693230  0.87386962  0.00660154  1
  O  O277  1  0.26061356  0.88113463  0.50878331  1
  O  O278  1  0.75608639  0.36448992  0.00300578  1
  O  O279  1  0.76034951  0.38320900  0.51112727  1
  O  O280  1  0.76290856  0.86918434  -0.00086456  1
  O  O281  1  0.76225320  0.87519399  0.49923249  1
  O  O282  1  0.13089494  0.49977503  0.24509409  1
  O  O283  1  0.12342407  0.49461553  0.74121732  1
  O  O284  1  0.13153415  0.99127077  0.24301013  1
  O  O285  1  0.13108974  0.99239622  0.74354683  1
  O  O286  1  0.62643347  0.50195026  0.24024325  1
  O  O287  1  0.63023716  0.49385024  0.74546541  1
  O  O288  1  0.62785293  0.99364511  0.24577737  1
  O  O289  1  0.62832368  0.99544436  0.74482107  1
  O  O290  1  0.37070175  0.00234236  0.25623673  1
  O  O291  1  0.37063466  0.00356035  0.75414144  1
  O  O292  1  0.36933352  0.50817599  0.25691200  1
  O  O293  1  0.37591822  0.51187914  0.75044682  1
  O  O294  1  0.86932779  0.00522729  0.25610125  1
  O  O295  1  0.86989620  0.00228658  0.75806623  1
  O  O296  1  0.87671423  0.50843375  0.26191071  1
  O  O297  1  0.86815024  0.49869773  0.75803799  1
  O  O298  1  0.11121363  0.37739291  0.37683311  1
  O  O299  1  0.12427470  0.36635941  0.86892860  1
  O  O300  1  0.12666696  0.86596993  0.36762017  1
  O  O301  1  0.11864477  0.87008240  0.87134427  1
  O  O302  1  0.61339330  0.37460341  0.37824045  1
  O  O303  1  0.61977566  0.36975404  0.86942799  1
  O  O304  1  0.62998695  0.86856715  0.36417833  1
  O  O305  1  0.61934462  0.86977675  0.86907953  1
  O  O306  1  0.37900473  0.12834101  0.12920149  1
  O  O307  1  0.37455989  0.13016082  0.63132647  1
  O  O308  1  0.37933745  0.63134871  0.13128578  1
  O  O309  1  0.37758178  0.62843818  0.63378019  1
  O  O310  1  0.88266781  0.12914933  0.12886887  1
  O  O311  1  0.88281702  0.12434394  0.62980649  1
  O  O312  1  0.87774573  0.63380160  0.13416880  1
  O  O313  1  0.86926590  0.63914218  0.62034133  1
  O  O314  1  0.25486637  0.25433166  0.12051245  1
  O  O315  1  0.25439054  0.25444582  0.61945538  1
  O  O316  1  0.25766156  0.75675802  0.12443539  1
  O  O317  1  0.25093082  0.76363986  0.62824712  1
  O  O318  1  0.75655085  0.24943755  0.11611957  1
  O  O319  1  0.75076252  0.26424845  0.63059724  1
  O  O320  1  0.76228662  0.75245122  0.11762743  1
  O  O321  1  0.76111225  0.75517262  0.62015210  1
  O  O322  1  0.25130079  0.24309378  0.38075441  1
  O  O323  1  0.24413342  0.24238030  0.88060776  1
  O  O324  1  0.24062831  0.73720942  0.37261499  1
  O  O325  1  0.23620768  0.75106713  0.87759080  1
  O  O326  1  0.75273303  0.23656912  0.37187058  1
  O  O327  1  0.74534379  0.25041719  0.88384938  1
  O  O328  1  0.73524945  0.74776648  0.37864632  1
  O  O329  1  0.74568876  0.74524426  0.87888459  1
  O  O330  1  0.00576186  0.13184728  0.01283097  1
  O  O331  1  -0.00083900  0.12263812  0.51127488  1
  O  O332  1  0.01202952  0.62001158  0.00227090  1
  O  O333  1  0.01137173  0.61202822  0.49474456  1
  O  O334  1  0.50029424  0.11749139  0.00518146  1
  O  O335  1  0.50756838  0.11265777  0.49949710  1
  O  O336  1  0.50794745  0.62679092  0.00762966  1
  O  O337  1  0.50976970  0.61913763  0.50167627  1
  O  O338  1  0.49362423  0.38022134  0.49337066  1
  O  O339  1  0.49268006  0.37431558  0.99334541  1
  O  O340  1  0.49110374  0.88876034  0.50323476  1
  O  O341  1  0.49474287  0.88006761  0.99365935  1
  O  O342  1  0.99284944  0.38415090  0.49458390  1
  O  O343  1  0.99396008  0.38092676  0.99962154  1
  O  O344  1  0.98702962  0.87814353  0.49221937  1
  O  O345  1  0.98871174  0.87223425  0.98856599  1
  O  O346  1  0.49338678  0.49358466  0.38132227  1
  O  O347  1  0.49781545  0.49056865  0.87797386  1
  O  O348  1  0.48808156  1.00409823  0.38166500  1
  O  O349  1  0.49460006  0.99424770  0.87831901  1
  O  O350  1  0.99199661  0.49299104  0.38470845  1
  O  O351  1  0.99342825  0.49706048  0.88512707  1
  O  O352  1  0.98507740  1.00203392  0.37222302  1
  O  O353  1  0.99005905  0.98806356  0.86718350  1
  O  O354  1  0.00574769  0.01374420  0.13120278  1
  O  O355  1  0.00489974  0.00817141  0.62599450  1
  O  O356  1  0.00713098  0.50317817  0.11966764  1
  O  O357  1  0.01012534  0.49293810  0.61568490  1
  O  O358  1  0.50491091  0.00497928  0.11765807  1
  O  O359  1  0.50593934  0.00291972  0.61456752  1
  O  O360  1  0.50867424  0.50878161  0.12490378  1
  O  O361  1  0.50830169  0.49925991  0.61862889  1
  O  O362  1  0.24991436  0.38253407  0.24555781  1
  O  O363  1  0.24225603  0.37379585  0.74246339  1
  O  O364  1  0.24078206  0.88044167  0.24347623  1
  O  O365  1  0.24548290  0.87975259  0.74091055  1
  O  O366  1  0.74771284  0.38227754  0.24772852  1
  O  O367  1  0.74444911  0.38031927  0.74308626  1
  O  O368  1  0.73882752  0.88318609  0.24733570  1
  O  O369  1  0.74148566  0.88212462  0.74984615  1
  O  O370  1  0.25610236  0.11846065  0.25393466  1
  O  O371  1  0.25459608  0.11832737  0.75503864  1
  O  O372  1  0.25551135  0.62026546  0.26014483  1
  O  O373  1  0.26224039  0.62454012  0.75239673  1
  O  O374  1  0.75568427  0.12045228  0.25780810  1
  O  O375  1  0.75711460  0.11805146  0.75155607  1
  O  O376  1  0.76441563  0.62069638  0.25460197  1
  O  O377  1  0.75357770  0.61741854  0.75647223  1
  O  O378  1  0.36965548  0.11446583  0.36941542  1
  O  O379  1  0.36868244  0.11862597  0.86915122  1
  O  O380  1  0.36813910  0.62217772  0.37266613  1
  O  O381  1  0.37399004  0.62529220  0.86577898  1
  O  O382  1  0.86891788  0.11880600  0.37090928  1
  O  O383  1  0.87763394  0.11367767  0.86971083  1
  O  O384  1  0.87540299  0.61874285  0.37234130  1
  O  O385  1  0.86742234  0.61843607  0.87812966  1
  O  O386  1  0.13233196  0.38145994  0.12648297  1
  O  O387  1  0.12885702  0.38277916  0.62930152  1
  O  O388  1  0.12851105  0.87817099  0.13048284  1
  O  O389  1  0.13090424  0.87752233  0.62718752  1
  O  O390  1  0.62414827  0.38799247  0.12672795  1
  O  O391  1  0.63206355  0.37961205  0.62855755  1
  O  O392  1  0.62829313  0.88152882  0.13399623  1
  O  O393  1  0.62558396  0.88170065  0.63066954  1
  O  O394  1  0.11682101  0.25472736  0.25426438  1
  O  O395  1  0.11984582  0.25335080  0.75493722  1
  O  O396  1  0.13086750  0.75956718  0.25851680  1
  O  O397  1  0.12524089  0.75521423  0.75914111  1
  O  O398  1  0.61975765  0.25451400  0.25600351  1
  O  O399  1  0.61936195  0.25532145  0.75436103  1
  O  O400  1  0.62263053  0.75715209  0.25548589  1
  O  O401  1  0.61808469  0.75401123  0.75458120  1
  O  O402  1  0.37676845  0.24208509  0.24282064  1
  O  O403  1  0.37876350  0.24403882  0.74517621  1
  O  O404  1  0.37959263  0.74702074  0.24620031  1
  O  O405  1  0.38464439  0.74261225  0.74996297  1
  O  O406  1  0.88071664  0.24417918  0.24418373  1
  O  O407  1  0.88135383  0.24236827  0.74892237  1
  O  O408  1  0.86826353  0.74422486  0.24191255  1
  O  O409  1  0.87409916  0.75114781  0.73365702  1
  O  O410  1  0.37942283  0.49493533  0.49669747  1
  O  O411  1  0.37803137  0.49139253  1.00051745  1
  O  O412  1  0.38180761  0.99321718  0.49222639  1
  O  O413  1  0.38036512  0.99401337  0.99305091  1
  O  O414  1  0.88312304  0.49488608  0.49568552  1
  O  O415  1  0.87956397  0.49603998  0.99783247  1
  O  O416  1  0.87506039  0.99296403  0.49016622  1
  O  O417  1  0.86911362  0.99035223  0.98875241  1
  O  O418  1  0.13036819  0.00784915  0.00822485  1
  O  O419  1  0.12140961  0.00097561  0.50638519  1
  O  O420  1  0.12111902  0.50764968  0.00571439  1
  O  O421  1  0.11816953  0.50691297  0.50836487  1
  O  O422  1  0.61960156  -0.00039427  0.00471562  1
  O  O423  1  0.61772432  0.00533247  0.50173295  1
  O  O424  1  0.62328824  0.50793660  0.01004164  1
  O  O425  1  0.62008603  0.50819400  0.50458887  1
  O  O426  1  0.36969602  0.36953116  0.12103289  1
  O  O427  1  0.36889591  0.36949039  0.62058895  1
  O  O428  1  0.37041226  0.87070424  0.11980721  1
  O  O429  1  0.36651091  0.87407673  0.61570688  1
  O  O430  1  0.87499542  0.36834991  0.11937036  1
  O  O431  1  0.86713614  0.37537220  0.61827620  1
  O  O432  1  0.87535601  0.87078684  0.11682196  1
  O  O433  1  0.87319996  0.86898933  0.61481871  1
  O  O434  1  0.13335744  0.12485193  0.37503183  1
  O  O435  1  0.12968489  0.12771652  0.87883156  1
  O  O436  1  0.13191986  0.62970450  0.38216980  1
  O  O437  1  0.12505054  0.63388124  0.88421044  1
  O  O438  1  0.63419312  0.12364580  0.38166024  1
  O  O439  1  0.62811710  0.13364076  0.87787928  1
  O  O440  1  0.62494361  0.63255414  0.38343983  1
  O  O441  1  0.63122329  0.63087496  0.88062851  1
