# generated using pymatgen
data_V93Zn93O256
_symmetry_space_group_name_H-M   'P 1'
_cell_length_a   17.05217482
_cell_length_b   17.04693072
_cell_length_c   17.04814472
_cell_angle_alpha   90.03220101
_cell_angle_beta   90.00446545
_cell_angle_gamma   90.03738494
_symmetry_Int_Tables_number   1
_chemical_formula_structural   V93Zn93O256
_chemical_formula_sum   'V93 Zn93 O256'
_cell_volume   4955.67633321
_cell_formula_units_Z   1
loop_
 _symmetry_equiv_pos_site_id
 _symmetry_equiv_pos_as_xyz
  1  'x, y, z'
loop_
 _atom_site_type_symbol
 _atom_site_label
 _atom_site_symmetry_multiplicity
 _atom_site_fract_x
 _atom_site_fract_y
 _atom_site_fract_z
 _atom_site_occupancy
  V  V0  1  0.12513896  0.87447501  0.25011351  1
  V  V1  1  0.75123566  0.49913165  0.24995543  1
  V  V2  1  0.24783322  0.50196472  0.75001843  1
  V  V3  1  -0.00120957  0.37704350  0.37668298  1
  V  V4  1  0.87776529  0.24072038  0.12550530  1
  V  V5  1  0.24699380  0.87637431  0.63047822  1
  V  V6  1  0.25021787  0.12558910  0.37550195  1
  V  V7  1  0.75116505  0.87402352  0.62625748  1
  V  V8  1  0.87589538  0.87363310  0.50137777  1
  V  V9  1  0.00127324  0.87540733  0.87535332  1
  V  V10  1  0.50044115  0.63269159  0.62794141  1
  V  V11  1  0.74946615  -0.00230588  0.74965489  1
  V  V12  1  0.74959200  0.37304645  0.12420043  1
  V  V13  1  0.12551712  0.25028000  0.37415066  1
  V  V14  1  0.25072652  0.37717522  0.62522846  1
  V  V15  1  0.25253272  0.75190723  0.50062908  1
  V  V16  1  0.87567199  0.24941050  0.62382155  1
  V  V17  1  0.87372868  0.00064731  0.37407009  1
  V  V18  1  0.75010249  0.62484343  0.37395960  1
  V  V19  1  0.62289432  -0.00542546  0.13165918  1
  V  V20  1  0.00075720  0.24947046  0.75032897  1
  V  V21  1  0.74920317  0.74852614  -0.00029670  1
  V  V22  1  0.63129954  0.49680894  0.63257576  1
  V  V23  1  0.37389841  0.00003503  0.87532268  1
  V  V24  1  0.00046063  0.74779268  0.24974730  1
  V  V25  1  0.62495648  0.49947121  0.12475269  1
  V  V26  1  0.50017258  0.25087353  0.24865148  1
  V  V27  1  0.11730317  0.12357494  0.00609157  1
  V  V28  1  0.25207305  0.62635346  0.37427114  1
  V  V29  1  0.24964664  0.12573280  0.87504854  1
  V  V30  1  0.25120098  0.25182172  0.49973201  1
  V  V31  1  0.87437687  -0.00281921  0.87519894  1
  V  V32  1  0.87442803  0.12299270  0.74929167  1
  V  V33  1  0.74437524  0.87342037  0.13240934  1
  V  V34  1  0.50260873  0.75425484  0.24945292  1
  V  V35  1  0.00183556  0.62144405  0.12487423  1
  V  V36  1  0.62510294  0.12283883  -0.00040640  1
  V  V37  1  0.12587115  0.12528766  0.50122376  1
  V  V38  1  0.00001479  0.37400751  0.87518810  1
  V  V39  1  0.12524227  0.37886756  0.24293080  1
  V  V40  1  0.87162068  0.61827158  0.75015540  1
  V  V41  1  0.49995796  0.50078504  0.49971979  1
  V  V42  1  0.37488286  0.75157332  0.12408169  1
  V  V43  1  0.37567829  0.87585084  0.49990873  1
  V  V44  1  0.00143241  0.12378396  0.62513030  1
  V  V45  1  0.87495528  0.37407878  -0.00019257  1
  V  V46  1  0.62542862  0.62540647  0.49879570  1
  V  V47  1  0.37412761  0.12696926  0.24966984  1
  V  V48  1  0.50145121  0.00151408  0.49951405  1
  V  V49  1  0.74889936  0.12327560  0.87474856  1
  V  V50  1  0.24801178  0.87619454  0.12345992  1
  V  V51  1  0.50091541  0.37677317  0.37488306  1
  V  V52  1  0.62718361  0.24997687  0.37462683  1
  V  V53  1  0.62599995  0.75537374  0.37033227  1
  V  V54  1  0.49821510  -0.00220933  -0.00107471  1
  V  V55  1  0.12624175  0.75059191  0.37515087  1
  V  V56  1  0.87394444  0.74844378  0.12455610  1
  V  V57  1  0.62568895  0.37417091  0.24904849  1
  V  V58  1  0.61803026  0.74955429  0.87065191  1
  V  V59  1  0.00234134  0.75109821  0.75050437  1
  V  V60  1  0.75180268  0.25449441  0.50243214  1
  V  V61  1  0.50029914  0.62584741  0.12539817  1
  V  V62  1  0.74857017  0.24777551  -0.00033708  1
  V  V63  1  0.37472842  0.50144267  0.87485634  1
  V  V64  1  -0.00032326  0.24211479  0.24627995  1
  V  V65  1  0.12574187  -0.00265103  0.63164604  1
  V  V66  1  0.50044095  0.37371361  0.87220236  1
  V  V67  1  0.50023463  0.12625211  0.62497832  1
  V  V68  1  0.49857450  0.49962616  -0.00004334  1
  V  V69  1  0.37547633  0.62530980  0.25048381  1
  V  V70  1  0.12473889  0.75237017  0.87454302  1
  V  V71  1  0.12481120  0.24963489  0.87435888  1
  V  V72  1  0.61790111  0.87078568  0.74947006  1
  V  V73  1  0.37326527  0.25276594  0.12408777  1
  V  V74  1  0.24937027  0.25071820  0.00020858  1
  V  V75  1  0.75006374  0.61795881  0.87087255  1
  V  V76  1  0.50299672  0.87601006  0.37118564  1
  V  V77  1  0.24683329  0.50082117  0.24406436  1
  V  V78  1  0.24893680  0.00007026  0.25033071  1
  V  V79  1  0.37871650  0.63322377  0.74977710  1
  V  V80  1  0.12481314  0.62339068  0.50279468  1
  V  V81  1  -0.00020747  0.87372126  0.37613169  1
  V  V82  1  0.00167507  0.49851189  0.00333683  1
  V  V83  1  0.37633658  0.25096530  0.62563438  1
  V  V84  1  0.87331900  0.87311486  -0.00044248  1
  V  V85  1  0.62562406  0.12596036  0.50058186  1
  V  V86  1  0.37589510  0.00074991  0.37458912  1
  V  V87  1  0.12501895  0.62214054  0.00297453  1
  V  V88  1  0.87562863  0.62264555  0.25011602  1
  V  V89  1  0.87578715  0.74935972  0.62584519  1
  V  V90  1  0.62543278  0.62462006  -0.00048057  1
  V  V91  1  0.37551528  0.12637253  0.75002453  1
  V  V92  1  0.37601500  0.37686599  0.49934686  1
  Zn  Zn93  1  0.12479053  0.37610169  0.74911520  1
  Zn  Zn94  1  0.24637424  -0.00296510  0.75375794  1
  Zn  Zn95  1  0.11300675  0.00746412  0.13036051  1
  Zn  Zn96  1  0.37589277  0.50130304  0.37460749  1
  Zn  Zn97  1  0.24935210  0.74930872  -0.00020524  1
  Zn  Zn98  1  0.37973118  0.75623061  0.62970674  1
  Zn  Zn99  1  0.24975245  0.62691077  0.87566368  1
  Zn  Zn100  1  0.37202941  0.37687550  -0.00043731  1
  Zn  Zn101  1  0.75179099  0.12499746  0.37321164  1
  Zn  Zn102  1  0.74455393  -0.00022516  0.25340447  1
  Zn  Zn103  1  0.49376930  0.86915676  0.86930638  1
  Zn  Zn104  1  0.87039282  0.49378050  0.86952733  1
  Zn  Zn105  1  0.12475031  0.49954769  0.62446749  1
  Zn  Zn106  1  0.76375006  0.38500414  0.63948764  1
  Zn  Zn107  1  0.62511423  -0.00028175  0.62546945  1
  Zn  Zn108  1  0.37201136  0.87266341  -0.00273030  1
  Zn  Zn109  1  0.50018111  0.12430463  0.12508398  1
  Zn  Zn110  1  0.00094357  -0.00031988  0.50094499  1
  Zn  Zn111  1  -0.00597480  0.00563289  0.01014754  1
  Zn  Zn112  1  0.62386155  0.24851885  0.87205599  1
  Zn  Zn113  1  0.00053468  0.62203886  0.62663704  1
  Zn  Zn114  1  0.87519727  0.50005305  0.37774584  1
  Zn  Zn115  1  0.63521047  0.37382162  0.75476649  1
  Zn  Zn116  1  0.75063284  0.74961761  0.49964355  1
  Zn  Zn117  1  -0.00177833  0.50108682  0.50265997  1
  Zn  Zn118  1  0.87468013  0.11891300  0.24660355  1
  Zn  Zn119  1  0.87629682  0.37856972  0.50120960  1
  Zn  Zn120  1  0.50277584  0.25223546  0.74930307  1
  Zn  Zn121  1  0.24590694  0.38078034  0.12037205  1
  Zn  Zn122  1  0.18785930  0.19026095  0.18725653  1
  Zn  Zn123  1  0.18947150  0.18673063  0.68845597  1
  Zn  Zn124  1  0.18771785  0.68818621  0.18574618  1
  Zn  Zn125  1  0.18979796  0.68953024  0.68805455  1
  Zn  Zn126  1  0.68985197  0.18199151  0.18741409  1
  Zn  Zn127  1  0.68653650  0.19062758  0.68777990  1
  Zn  Zn128  1  0.68723386  0.68643552  0.18886780  1
  Zn  Zn129  1  0.68843347  0.68737154  0.68701205  1
  Zn  Zn130  1  0.31250027  0.31555656  0.31209816  1
  Zn  Zn131  1  0.31402283  0.31397032  0.81239325  1
  Zn  Zn132  1  0.31478288  0.81309275  0.31140203  1
  Zn  Zn133  1  0.30895804  0.81330608  0.81364142  1
  Zn  Zn134  1  0.81436970  0.31127489  0.31261348  1
  Zn  Zn135  1  0.81148384  0.31076985  0.81168910  1
  Zn  Zn136  1  0.81350892  0.81200652  0.31267303  1
  Zn  Zn137  1  0.81010403  0.80796065  0.81179843  1
  Zn  Zn138  1  0.18847944  0.43924909  0.43242973  1
  Zn  Zn139  1  0.18639335  0.43749117  0.93597787  1
  Zn  Zn140  1  0.18740801  0.93862118  0.44089763  1
  Zn  Zn141  1  0.18402987  0.94008148  0.94090981  1
  Zn  Zn142  1  0.68749252  0.43869665  0.43986485  1
  Zn  Zn143  1  0.68595180  0.43551996  0.93796237  1
  Zn  Zn144  1  0.68945407  0.93648240  0.44052554  1
  Zn  Zn145  1  0.68639257  0.93497988  0.93827505  1
  Zn  Zn146  1  0.30782799  0.06466716  0.06275445  1
  Zn  Zn147  1  0.31279037  0.06212220  0.56274668  1
  Zn  Zn148  1  0.31231746  0.56489569  0.06207111  1
  Zn  Zn149  1  0.31400316  0.56425190  0.56388327  1
  Zn  Zn150  1  0.80944055  0.05781067  0.06195679  1
  Zn  Zn151  1  0.81141211  0.06218018  0.56050143  1
  Zn  Zn152  1  0.81412539  0.56060906  0.06039379  1
  Zn  Zn153  1  0.81467579  0.56451635  0.55953743  1
  Zn  Zn154  1  0.43549413  0.43841376  0.18821996  1
  Zn  Zn155  1  0.43897681  0.44277183  0.68792607  1
  Zn  Zn156  1  0.43584839  0.93695324  0.18724358  1
  Zn  Zn157  1  0.43624037  0.94081282  0.68633844  1
  Zn  Zn158  1  0.93691239  0.43319923  0.18721358  1
  Zn  Zn159  1  0.94313246  0.43742689  0.68479226  1
  Zn  Zn160  1  0.93593197  0.93481238  0.18808209  1
  Zn  Zn161  1  0.93941195  0.93640685  0.68862849  1
  Zn  Zn162  1  0.06174970  0.06020031  0.31456131  1
  Zn  Zn163  1  0.06199570  0.06297704  0.81541412  1
  Zn  Zn164  1  0.06461363  0.56136154  0.31408053  1
  Zn  Zn165  1  0.05995891  0.56388651  0.81680263  1
  Zn  Zn166  1  0.56137003  0.06620970  0.31328410  1
  Zn  Zn167  1  0.56214320  0.06065254  0.81096288  1
  Zn  Zn168  1  0.56348940  0.56414050  0.31193803  1
  Zn  Zn169  1  0.56030394  0.56286154  0.81221638  1
  Zn  Zn170  1  0.43887373  0.18961561  0.43717904  1
  Zn  Zn171  1  0.43781690  0.18694100  0.93882000  1
  Zn  Zn172  1  0.43892176  0.68907682  0.43898760  1
  Zn  Zn173  1  0.43532246  0.68585871  0.93924025  1
  Zn  Zn174  1  0.93882443  0.18732488  0.43728912  1
  Zn  Zn175  1  0.93526102  0.18773263  0.93608184  1
  Zn  Zn176  1  0.93768335  0.68706469  0.43776577  1
  Zn  Zn177  1  0.93639951  0.68584286  0.93649269  1
  Zn  Zn178  1  0.06182395  0.30945734  0.06187575  1
  Zn  Zn179  1  0.06462431  0.31306151  0.56381804  1
  Zn  Zn180  1  0.06141424  0.81210850  0.06190962  1
  Zn  Zn181  1  0.06353495  0.81193784  0.56299222  1
  Zn  Zn182  1  0.56052434  0.31185399  0.05929596  1
  Zn  Zn183  1  0.56327094  0.31329332  0.56236147  1
  Zn  Zn184  1  0.56132866  0.81298197  0.05874543  1
  Zn  Zn185  1  0.56538069  0.81406059  0.55883918  1
  O  O186  1  0.13207532  0.12602323  0.11150116  1
  O  O187  1  0.12190147  0.11838771  0.62001397  1
  O  O188  1  0.11671015  0.63287185  0.11234467  1
  O  O189  1  0.12679096  0.62697194  0.61282201  1
  O  O190  1  0.62391612  0.11323421  0.11640034  1
  O  O191  1  0.61813824  0.12395762  0.61804011  1
  O  O192  1  0.62014968  0.61959052  0.11955828  1
  O  O193  1  0.61950725  0.61810223  0.62053300  1
  O  O194  1  0.38319292  0.37615082  0.38126568  1
  O  O195  1  0.38341781  0.38310959  0.87665214  1
  O  O196  1  0.38074021  0.88203846  0.38018132  1
  O  O197  1  0.37501276  0.88540639  0.87565585  1
  O  O198  1  0.88724618  0.37536251  0.37538275  1
  O  O199  1  0.88202757  0.37327535  0.88283346  1
  O  O200  1  0.88001074  0.87965740  0.38053246  1
  O  O201  1  0.87967473  0.87676620  0.87984052  1
  O  O202  1  0.25588759  0.00552253  0.37061337  1
  O  O203  1  0.25816984  0.00466182  0.87547470  1
  O  O204  1  0.25363535  0.50791094  0.36318366  1
  O  O205  1  0.25607016  0.50166803  0.86603448  1
  O  O206  1  0.76042506  -0.00203798  0.37417701  1
  O  O207  1  0.75541832  0.00312437  0.87017942  1
  O  O208  1  0.74913733  0.50619088  0.36704778  1
  O  O209  1  0.75008981  0.51439367  0.88194102  1
  O  O210  1  0.25585510  0.49940157  0.13954337  1
  O  O211  1  0.25058224  0.49582259  0.63457255  1
  O  O212  1  0.24869732  0.99056029  0.13253596  1
  O  O213  1  0.24301689  0.99361534  0.62526315  1
  O  O214  1  0.74444471  0.49383634  0.12888260  1
  O  O215  1  0.73414855  0.50119694  0.61741895  1
  O  O216  1  0.74007456  0.98925206  0.12467529  1
  O  O217  1  0.74955361  0.99227312  0.63175644  1
  O  O218  1  0.00722892  0.36796935  0.25698084  1
  O  O219  1  0.00196548  0.36735367  0.75740605  1
  O  O220  1  0.00541124  0.86580554  0.25641981  1
  O  O221  1  -0.00744959  0.86215878  0.76289573  1
  O  O222  1  0.50650221  0.37063320  0.25416737  1
  O  O223  1  0.50145533  0.37827965  0.76233853  1
  O  O224  1  0.49311317  0.86709833  0.25838776  1
  O  O225  1  0.51343352  0.88059355  0.75009941  1
  O  O226  1  0.49192878  0.13345248  0.24814790  1
  O  O227  1  0.49281785  0.12526314  0.74315809  1
  O  O228  1  0.49548465  0.63153747  0.24379532  1
  O  O229  1  0.48936827  0.61869616  0.73981296  1
  O  O230  1  0.99964355  0.13934188  0.25561657  1
  O  O231  1  0.99370608  0.12912739  0.74547639  1
  O  O232  1  0.99669973  0.62836060  0.24516360  1
  O  O233  1  0.99056009  0.63583264  0.75302496  1
  O  O234  1  0.36867909  0.24940811  0.00945271  1
  O  O235  1  0.36989086  0.25663445  0.50488305  1
  O  O236  1  0.37110960  0.75210318  0.00743770  1
  O  O237  1  0.36947858  0.75830502  0.50163805  1
  O  O238  1  0.86999183  0.25406605  0.00743097  1
  O  O239  1  0.86682213  0.24965804  0.50498529  1
  O  O240  1  0.86868183  0.75223769  0.00555058  1
  O  O241  1  0.87475551  0.75520699  0.50772749  1
  O  O242  1  0.13267859  0.24496275  0.49443324  1
  O  O243  1  0.12935037  0.24323572  0.99411924  1
  O  O244  1  0.13235142  0.74382637  0.49405471  1
  O  O245  1  0.12254967  0.74028754  0.99092357  1
  O  O246  1  0.63256895  0.24662514  0.49533039  1
  O  O247  1  0.63069787  0.24028748  0.99991968  1
  O  O248  1  0.62656311  0.74343941  0.48795251  1
  O  O249  1  0.62973161  0.74340621  0.99207184  1
  O  O250  1  0.49040995  0.24850230  0.12947107  1
  O  O251  1  0.49270645  0.24443211  0.62401482  1
  O  O252  1  0.49619901  0.74569770  0.12878154  1
  O  O253  1  0.50130527  0.73667786  0.61904708  1
  O  O254  1  0.98861684  0.25734999  0.13488858  1
  O  O255  1  0.99656101  0.24306418  0.63035193  1
  O  O256  1  0.99316483  0.74358484  0.13056368  1
  O  O257  1  0.99631093  0.75000913  0.63634186  1
  O  O258  1  0.00544639  0.25731259  0.36645128  1
  O  O259  1  0.00434701  0.25455947  0.86942113  1
  O  O260  1  0.00615569  0.75411162  0.36856060  1
  O  O261  1  0.00449040  0.75604335  0.86979196  1
  O  O262  1  0.50661253  0.25698911  0.36886249  1
  O  O263  1  0.49887757  0.26142205  0.87546856  1
  O  O264  1  0.50777678  0.75530862  0.36997433  1
  O  O265  1  0.51402250  0.74995985  0.88193744  1
  O  O266  1  0.24667588  0.13193411  0.49436190  1
  O  O267  1  0.24180259  0.13148917  0.99288750  1
  O  O268  1  0.24541637  0.63166783  0.49461986  1
  O  O269  1  0.23825542  0.62608323  0.99818068  1
  O  O270  1  0.74405518  0.13595786  0.49851639  1
  O  O271  1  0.74420288  0.12746807  0.99417798  1
  O  O272  1  0.74360541  0.62829460  0.49138159  1
  O  O273  1  0.74460650  0.62940037  0.99346115  1
  O  O274  1  0.25084533  0.36834449  0.00232901  1
  O  O275  1  0.25566610  0.37107622  0.50332329  1
  O  O276  1  0.24934557  0.87394959  0.01225377  1
  O  O277  1  0.25668377  0.87167013  0.50714032  1
  O  O278  1  0.75449633  0.36834758  0.00470481  1
  O  O279  1  0.75034762  0.36287330  0.50355349  1
  O  O280  1  0.75441284  0.86733216  0.00731460  1
  O  O281  1  0.75775415  0.87168207  0.50860360  1
  O  O282  1  0.13477359  0.49096012  0.25470157  1
  O  O283  1  0.13767499  0.50258027  0.75225618  1
  O  O284  1  0.13173378  0.99316263  0.25088353  1
  O  O285  1  0.12692538  1.00634290  0.73609174  1
  O  O286  1  0.63046096  0.49438009  0.24337377  1
  O  O287  1  0.62170287  0.50279053  0.73419945  1
  O  O288  1  0.62078933  1.00344031  0.23510755  1
  O  O289  1  0.63213555  0.98930367  0.74937603  1
  O  O290  1  0.36943450  0.00695525  0.25562882  1
  O  O291  1  0.37427179  0.00652373  0.76153613  1
  O  O292  1  0.36783870  0.50741410  0.25268583  1
  O  O293  1  0.36639705  0.50999064  0.75447981  1
  O  O294  1  0.87353800  -0.00189591  0.26264055  1
  O  O295  1  0.86950820  0.00367911  0.75544498  1
  O  O296  1  0.86849852  0.50509635  0.24993658  1
  O  O297  1  0.88297655  0.51444486  0.75117286  1
  O  O298  1  0.11910972  0.36894471  0.36528616  1
  O  O299  1  0.11777571  0.36681158  0.87329268  1
  O  O300  1  0.12104937  0.86995091  0.37073190  1
  O  O301  1  0.11349867  0.86462428  0.88350314  1
  O  O302  1  0.62059764  0.36996785  0.36847247  1
  O  O303  1  0.61287610  0.37419814  0.87600190  1
  O  O304  1  0.61971901  0.86339538  0.38122527  1
  O  O305  1  0.62474481  0.86566866  0.86717494  1
  O  O306  1  0.37388458  0.13574035  0.13130122  1
  O  O307  1  0.37969909  0.13102042  0.62912377  1
  O  O308  1  0.38158382  0.63161784  0.13031010  1
  O  O309  1  0.38392525  0.62835097  0.63199834  1
  O  O310  1  0.86881693  0.13759258  0.12368110  1
  O  O311  1  0.88169531  0.12798620  0.63007795  1
  O  O312  1  0.88045634  0.62973607  0.12988379  1
  O  O313  1  0.87561786  0.63184475  0.63392055  1
  O  O314  1  0.25960930  0.25303639  0.12031424  1
  O  O315  1  0.25648934  0.25600326  0.61915947  1
  O  O316  1  0.25618930  0.76011886  0.12566500  1
  O  O317  1  0.25093561  0.76115741  0.61891771  1
  O  O318  1  0.75690870  0.25464800  0.11975469  1
  O  O319  1  0.75777050  0.25003533  0.61613389  1
  O  O320  1  0.75264529  0.75449321  0.12001331  1
  O  O321  1  0.75802622  0.75637765  0.62422666  1
  O  O322  1  0.24575260  0.24522615  0.37955974  1
  O  O323  1  0.24540707  0.24557745  0.88030913  1
  O  O324  1  0.24551450  0.74668383  0.37951853  1
  O  O325  1  0.23716990  0.74976690  0.87727027  1
  O  O326  1  0.74501795  0.25029359  0.38433881  1
  O  O327  1  0.75001499  0.24006312  0.88345527  1
  O  O328  1  0.74133453  0.74446980  0.37340267  1
  O  O329  1  0.74038396  0.74014703  0.88108844  1
  O  O330  1  0.01221213  0.12486170  -0.00833188  1
  O  O331  1  0.00832869  0.12496484  0.50749844  1
  O  O332  1  0.00409452  0.61703078  0.00381302  1
  O  O333  1  0.01365693  0.62693988  0.50030557  1
  O  O334  1  0.50530422  0.11335052  0.00107902  1
  O  O335  1  0.50505031  0.12122701  0.50431792  1
  O  O336  1  0.50613190  0.61920461  0.00627630  1
  O  O337  1  0.50508535  0.62028142  0.50701226  1
  O  O338  1  0.49548607  0.38046870  0.49406544  1
  O  O339  1  0.49709553  0.38239396  0.99131514  1
  O  O340  1  0.49528258  0.88165322  0.49317127  1
  O  O341  1  0.49630661  0.88732161  0.99562296  1
  O  O342  1  1.00358864  0.37340072  0.48636032  1
  O  O343  1  0.99620647  0.38066922  0.99623546  1
  O  O344  1  0.99402017  0.87473721  0.49334403  1
  O  O345  1  0.99087549  0.87102146  0.98863679  1
  O  O346  1  0.50086709  0.49442636  0.38084189  1
  O  O347  1  0.49484129  0.49457031  0.88067067  1
  O  O348  1  0.49498407  0.99620763  0.37937604  1
  O  O349  1  0.48960300  0.99992014  0.88290397  1
  O  O350  1  1.00010367  0.48825078  0.37544666  1
  O  O351  1  0.99659832  0.49286848  0.88579265  1
  O  O352  1  0.99202272  0.99173683  0.37756510  1
  O  O353  1  0.99346778  0.98820314  0.87377680  1
  O  O354  1  0.00115612  -0.00622419  0.12228748  1
  O  O355  1  0.00851571  0.00451379  0.62447195  1
  O  O356  1  -0.00589816  0.50392089  0.11186371  1
  O  O357  1  0.00857782  0.50497926  0.62090366  1
  O  O358  1  0.50470069  -0.00041624  0.11600157  1
  O  O359  1  0.50064975  0.00804377  0.61634276  1
  O  O360  1  0.50539850  0.50553492  0.12093411  1
  O  O361  1  0.50881241  0.51068328  0.61832200  1
  O  O362  1  0.24176825  0.38338079  0.25050430  1
  O  O363  1  0.25127590  0.38626852  0.74466976  1
  O  O364  1  0.24525720  0.87992487  0.24369804  1
  O  O365  1  0.25461917  0.87755893  0.73451739  1
  O  O366  1  0.74462231  0.37874713  0.24414686  1
  O  O367  1  0.74863373  0.37766631  0.75061865  1
  O  O368  1  0.75287512  0.87492590  0.23543499  1
  O  O369  1  0.74281107  0.87864304  0.74574505  1
  O  O370  1  0.25407186  0.12094549  0.25678694  1
  O  O371  1  0.25788471  0.12288784  0.75741759  1
  O  O372  1  0.25399675  0.61981478  0.25351396  1
  O  O373  1  0.25896800  0.61755473  0.75054927  1
  O  O374  1  0.75506663  0.11881295  0.25530532  1
  O  O375  1  0.75516556  0.11813498  0.75452508  1
  O  O376  1  0.75582901  0.61843525  0.25345167  1
  O  O377  1  0.75980436  0.63181022  0.75997044  1
  O  O378  1  0.36977125  0.12106900  0.37013478  1
  O  O379  1  0.36961853  0.11798819  0.87150115  1
  O  O380  1  0.36975307  0.62642137  0.36815055  1
  O  O381  1  0.37478706  0.61986464  0.86648345  1
  O  O382  1  0.87602831  0.11136957  0.37582827  1
  O  O383  1  0.86915565  0.11749313  0.86913483  1
  O  O384  1  0.86870327  0.62522730  0.36690777  1
  O  O385  1  0.86536397  0.62533533  0.86778705  1
  O  O386  1  0.12571323  0.36865776  0.13936051  1
  O  O387  1  0.13548085  0.37711194  0.62858149  1
  O  O388  1  0.13456311  0.87168210  0.13217976  1
  O  O389  1  0.13514337  0.88582549  0.61686656  1
  O  O390  1  0.62981138  0.37952081  0.12892670  1
  O  O391  1  0.62155801  0.39178107  0.62493708  1
  O  O392  1  0.63353954  0.88246303  0.11679366  1
  O  O393  1  0.63151139  0.87417664  0.63321389  1
  O  O394  1  0.11854677  0.25688064  0.25490025  1
  O  O395  1  0.11852414  0.24925608  0.75676469  1
  O  O396  1  0.12016688  0.75396146  0.25599699  1
  O  O397  1  0.11401251  0.74087447  0.76230823  1
  O  O398  1  0.62049293  0.25521388  0.25297192  1
  O  O399  1  0.61951401  0.25414908  0.75408024  1
  O  O400  1  0.61801396  0.74332293  0.26178272  1
  O  O401  1  0.63089648  0.75856724  0.75990325  1
  O  O402  1  0.37913510  0.24703346  0.24308247  1
  O  O403  1  0.37724124  0.24413473  0.74302300  1
  O  O404  1  0.38172564  0.74430921  0.24389765  1
  O  O405  1  0.36958833  0.73732188  0.75006609  1
  O  O406  1  0.88295150  0.24877197  0.24184564  1
  O  O407  1  0.88140528  0.24111312  0.74419194  1
  O  O408  1  0.88088922  0.74282469  0.24429830  1
  O  O409  1  0.88300853  0.74153148  0.74626242  1
  O  O410  1  0.38157859  0.49470284  0.49835395  1
  O  O411  1  0.38093031  0.50139953  0.99354438  1
  O  O412  1  0.38105022  0.99641376  0.49299097  1
  O  O413  1  0.38092431  1.00210706  0.99158871  1
  O  O414  1  0.87933808  0.49654000  0.49541085  1
  O  O415  1  0.88364906  0.49232418  0.99674713  1
  O  O416  1  0.87742668  0.99231859  0.49185145  1
  O  O417  1  0.87413972  0.99184052  0.99208958  1
  O  O418  1  0.12052944  0.01157243  0.00260245  1
  O  O419  1  0.12415208  0.00790653  0.50997063  1
  O  O420  1  0.11392780  0.51017025  -0.00689079  1
  O  O421  1  0.12787235  0.51355498  0.49813077  1
  O  O422  1  0.61634715  0.00300111  0.00599620  1
  O  O423  1  0.61881157  0.00692138  0.50113607  1
  O  O424  1  0.61928920  0.50559703  0.00645608  1
  O  O425  1  0.61871728  0.50668427  0.50745228  1
  O  O426  1  0.37317266  0.36358314  0.12372455  1
  O  O427  1  0.37112815  0.37158556  0.61906097  1
  O  O428  1  0.36374171  0.87008265  0.12441369  1
  O  O429  1  0.36774667  0.87610650  0.61821017  1
  O  O430  1  0.86787542  0.36503817  0.11945086  1
  O  O431  1  0.87847218  0.36536739  0.62136675  1
  O  O432  1  0.86448735  0.86670017  0.11913256  1
  O  O433  1  0.87144727  0.86923345  0.62166119  1
  O  O434  1  0.13105091  0.13005309  0.38057938  1
  O  O435  1  0.13106706  0.13026240  0.88181322  1
  O  O436  1  0.13206507  0.63200735  0.38173199  1
  O  O437  1  0.12352167  0.63502828  0.88600791  1
  O  O438  1  0.62543156  0.13316742  0.38252141  1
  O  O439  1  0.63119820  0.12250736  0.88255703  1
  O  O440  1  0.62969644  0.63323735  0.37927950  1
  O  O441  1  0.63049463  0.63042893  0.87805373  1
