# generated using pymatgen
data_V93Zn93O256
_symmetry_space_group_name_H-M   'P 1'
_cell_length_a   17.05120930
_cell_length_b   17.04761663
_cell_length_c   17.04746546
_cell_angle_alpha   89.92389130
_cell_angle_beta   89.99617524
_cell_angle_gamma   89.97804120
_symmetry_Int_Tables_number   1
_chemical_formula_structural   V93Zn93O256
_chemical_formula_sum   'V93 Zn93 O256'
_cell_volume   4955.39477969
_cell_formula_units_Z   1
loop_
 _symmetry_equiv_pos_site_id
 _symmetry_equiv_pos_as_xyz
  1  'x, y, z'
loop_
 _atom_site_type_symbol
 _atom_site_label
 _atom_site_symmetry_multiplicity
 _atom_site_fract_x
 _atom_site_fract_y
 _atom_site_fract_z
 _atom_site_occupancy
  V  V0  1  0.74975177  0.49892035  0.24999055  1
  V  V1  1  0.00090543  0.24834935  0.24982895  1
  V  V2  1  0.87596584  0.37612702  -0.00156533  1
  V  V3  1  0.62517065  0.62530786  -0.00034056  1
  V  V4  1  0.49421721  0.00054251  0.49522751  1
  V  V5  1  0.49873652  0.25023413  0.74967849  1
  V  V6  1  0.62510674  0.25101272  0.87514325  1
  V  V7  1  0.37570870  0.62362821  0.25118972  1
  V  V8  1  0.12475084  0.00043616  0.62574619  1
  V  V9  1  0.37308730  0.11825146  0.25707278  1
  V  V10  1  0.25035570  0.37518068  0.62289678  1
  V  V11  1  0.37581804  0.75036221  0.12540324  1
  V  V12  1  0.12561695  0.75054483  0.87443782  1
  V  V13  1  0.49608229  0.37499147  0.38128600  1
  V  V14  1  0.37619090  0.25015567  0.12430719  1
  V  V15  1  0.87624374  0.62471968  0.25024053  1
  V  V16  1  0.62394586  0.75156689  0.87402513  1
  V  V17  1  0.75140326  0.00437907  0.74946436  1
  V  V18  1  0.37320471  0.87945583  0.49422041  1
  V  V19  1  0.12825026  -0.00101081  0.12636044  1
  V  V20  1  0.75036963  0.75050052  -0.00092810  1
  V  V21  1  -0.00000944  0.62521976  0.12476158  1
  V  V22  1  0.87301261  0.37282454  0.50159902  1
  V  V23  1  0.24987455  0.87629283  0.62493002  1
  V  V24  1  0.50621223  0.87152453  0.37690050  1
  V  V25  1  0.24994134  0.62552635  0.87402196  1
  V  V26  1  0.62263560  0.62953036  0.49265030  1
  V  V27  1  0.12017867  0.37271506  0.74980692  1
  V  V28  1  0.62389236  0.37682426  0.74936909  1
  V  V29  1  0.87614566  0.00637755  0.87076747  1
  V  V30  1  0.12465781  0.62436720  -0.00104243  1
  V  V31  1  0.62432991  0.00014709  0.62535594  1
  V  V32  1  0.49827026  0.62617595  0.62435393  1
  V  V33  1  0.62453294  0.87571446  0.74996520  1
  V  V34  1  0.12594181  0.87503457  0.75037515  1
  V  V35  1  0.37500366  0.37496925  -0.00017964  1
  V  V36  1  0.37434812  0.25487039  0.62196189  1
  V  V37  1  0.74830241  0.37597277  0.62328885  1
  V  V38  1  0.25235327  0.25443022  0.49865292  1
  V  V39  1  -0.00024834  -0.00180112  0.49998341  1
  V  V40  1  0.00012968  0.87559725  0.87498757  1
  V  V41  1  0.75119798  0.25022272  -0.00033815  1
  V  V42  1  0.62707604  -0.00214274  0.12901837  1
  V  V43  1  0.25067421  0.00694672  0.75451826  1
  V  V44  1  0.50033102  0.25042303  0.25037278  1
  V  V45  1  0.12573115  0.87352875  0.25042949  1
  V  V46  1  0.75372962  0.12714053  0.87018060  1
  V  V47  1  0.50086478  0.12469003  0.12552609  1
  V  V48  1  0.50739203  0.74993999  0.25548325  1
  V  V49  1  0.24887936  0.75031953  0.50007375  1
  V  V50  1  0.62670750  0.12523548  0.49888019  1
  V  V51  1  0.87595791  0.87526800  -0.00120467  1
  V  V52  1  0.24851433  0.50086415  0.75037352  1
  V  V53  1  0.37412824  0.49524084  0.38231135  1
  V  V54  1  0.75367789  0.86857900  0.62578610  1
  V  V55  1  0.87653643  0.24712166  0.12451086  1
  V  V56  1  0.25128211  0.87375567  0.12660429  1
  V  V57  1  0.12381011  0.62570575  0.49911085  1
  V  V58  1  0.37444846  0.75109661  0.62572533  1
  V  V59  1  0.50028209  -0.00243083  -0.00119599  1
  V  V60  1  0.74594056  0.75080489  0.49277013  1
  V  V61  1  0.37292239  0.00609150  0.87526172  1
  V  V62  1  -0.00751668  0.12894257  0.63009814  1
  V  V63  1  0.87606209  0.86876644  0.50350198  1
  V  V64  1  0.62233463  0.50191384  0.62345172  1
  V  V65  1  0.13004844  0.12328365  -0.00317424  1
  V  V66  1  0.49916316  0.75150330  0.74959654  1
  V  V67  1  0.12302807  0.50020417  0.62461218  1
  V  V68  1  0.62697989  0.12531504  -0.00030426  1
  V  V69  1  0.62660873  0.24988019  0.37491318  1
  V  V70  1  0.87397234  0.49924525  0.37399106  1
  V  V71  1  0.49887176  0.37636588  0.87494049  1
  V  V72  1  0.00066560  0.74910928  0.25037579  1
  V  V73  1  0.75045309  0.62524573  0.87294100  1
  V  V74  1  -0.00042852  0.37348647  0.37453376  1
  V  V75  1  -0.00838431  0.62866435  0.62491361  1
  V  V76  1  0.75167005  0.87522745  0.12610284  1
  V  V77  1  0.37390131  0.50053264  0.87481843  1
  V  V78  1  0.25183277  0.24643966  -0.00341222  1
  V  V79  1  -0.00756707  0.75047345  0.74612799  1
  V  V80  1  0.62473821  0.49885143  0.12513575  1
  V  V81  1  0.12621037  0.49904822  0.12517127  1
  V  V82  1  -0.00016568  0.49978083  -0.00108692  1
  V  V83  1  0.00255509  0.12422631  0.12579456  1
  V  V84  1  0.25138848  0.75041895  0.00018543  1
  V  V85  1  0.49817425  0.12592285  0.62653287  1
  V  V86  1  0.12831067  0.24686137  0.87332289  1
  V  V87  1  0.50084649  0.62559008  0.12548439  1
  V  V88  1  0.12608184  0.24865551  0.37424085  1
  V  V89  1  0.12500195  0.12501230  0.49946376  1
  V  V90  1  0.25036804  0.49784121  0.24934758  1
  V  V91  1  0.74940032  0.50230599  0.75002950  1
  V  V92  1  0.00080608  0.87368866  0.37547551  1
  Zn  Zn93  1  0.75488966  0.00009379  0.25390776  1
  Zn  Zn94  1  0.74562437  0.63029122  0.37139641  1
  Zn  Zn95  1  -0.01078407  0.24299947  0.75842605  1
  Zn  Zn96  1  0.74900814  0.37194489  0.12498126  1
  Zn  Zn97  1  0.49884101  0.50058092  0.00007943  1
  Zn  Zn98  1  0.87690488  0.50276668  0.87243969  1
  Zn  Zn99  1  -0.00029210  0.37573026  0.87422612  1
  Zn  Zn100  1  0.49964699  0.87578653  0.87402703  1
  Zn  Zn101  1  0.12745862  0.74844923  0.37377067  1
  Zn  Zn102  1  0.25468319  0.11741600  0.38137166  1
  Zn  Zn103  1  0.87267733  0.00085613  0.37421754  1
  Zn  Zn104  1  0.75109943  0.24824390  0.50033714  1
  Zn  Zn105  1  0.62548827  0.37409778  0.25049819  1
  Zn  Zn106  1  0.75323479  0.12192541  0.37170664  1
  Zn  Zn107  1  0.87466928  0.12187519  0.25374556  1
  Zn  Zn108  1  0.37591240  0.87523738  -0.00030286  1
  Zn  Zn109  1  0.12533963  0.37350072  0.24882870  1
  Zn  Zn110  1  0.24955393  0.37391292  0.12445839  1
  Zn  Zn111  1  0.86650219  0.24547631  0.63309692  1
  Zn  Zn112  1  0.87598788  0.74991564  0.12463957  1
  Zn  Zn113  1  0.49545418  0.49821244  0.50266211  1
  Zn  Zn114  1  0.37333214  0.62681130  0.74978209  1
  Zn  Zn115  1  0.36983754  0.12919125  0.75394924  1
  Zn  Zn116  1  0.87121948  0.62723677  0.74671101  1
  Zn  Zn117  1  -0.00254062  0.50132810  0.49990916  1
  Zn  Zn118  1  0.25058626  0.62398184  0.37625100  1
  Zn  Zn119  1  0.00208256  -0.00032883  -0.00079355  1
  Zn  Zn120  1  0.25609972  -0.00775269  0.25955232  1
  Zn  Zn121  1  0.63102876  0.86986954  0.25802212  1
  Zn  Zn122  1  0.18928579  0.18749386  0.18594098  1
  Zn  Zn123  1  0.18386409  0.18717953  0.68429850  1
  Zn  Zn124  1  0.18790504  0.68588097  0.18758648  1
  Zn  Zn125  1  0.18402606  0.68799931  0.68640524  1
  Zn  Zn126  1  0.69067831  0.18499991  0.18858989  1
  Zn  Zn127  1  0.68695509  0.18902738  0.68724435  1
  Zn  Zn128  1  0.68912049  0.68638870  0.18621938  1
  Zn  Zn129  1  0.68456470  0.68777654  0.68468585  1
  Zn  Zn130  1  0.31383913  0.31089681  0.31251290  1
  Zn  Zn131  1  0.31088731  0.31392817  0.81123044  1
  Zn  Zn132  1  0.31430446  0.80920159  0.31410148  1
  Zn  Zn133  1  0.31494368  0.81824038  0.81407010  1
  Zn  Zn134  1  0.81298406  0.31063517  0.31121306  1
  Zn  Zn135  1  0.81225125  0.31482602  0.81079367  1
  Zn  Zn136  1  0.81654957  0.81437231  0.31340990  1
  Zn  Zn137  1  0.81168921  0.81599801  0.81383489  1
  Zn  Zn138  1  0.18533368  0.43715986  0.43658635  1
  Zn  Zn139  1  0.18799135  0.43519582  0.93724125  1
  Zn  Zn140  1  0.18643327  0.93988081  0.43402684  1
  Zn  Zn141  1  0.19043809  0.93665520  0.93782880  1
  Zn  Zn142  1  0.68471417  0.43921495  0.43757952  1
  Zn  Zn143  1  0.68867672  0.43835460  0.93728137  1
  Zn  Zn144  1  0.68746759  0.93898028  0.43889939  1
  Zn  Zn145  1  0.68895213  0.93819541  0.93711168  1
  Zn  Zn146  1  0.31336828  0.06166901  0.06688816  1
  Zn  Zn147  1  0.31171552  0.06582855  0.56624420  1
  Zn  Zn148  1  0.31318801  0.56297153  0.06254526  1
  Zn  Zn149  1  0.31011694  0.56386671  0.56436385  1
  Zn  Zn150  1  0.81512840  0.06234497  0.05968936  1
  Zn  Zn151  1  0.81281661  0.05628795  0.55996037  1
  Zn  Zn152  1  0.81303486  0.56290886  0.06248120  1
  Zn  Zn153  1  0.80878604  0.56176560  0.56012097  1
  Zn  Zn154  1  0.43807640  0.43528622  0.19042741  1
  Zn  Zn155  1  0.43587804  0.43860923  0.68831313  1
  Zn  Zn156  1  0.43969007  0.93454676  0.18838198  1
  Zn  Zn157  1  0.43606535  0.93816606  0.68657563  1
  Zn  Zn158  1  0.93830348  0.43507777  0.18585655  1
  Zn  Zn159  1  0.93504554  0.43990071  0.68598106  1
  Zn  Zn160  1  0.94004525  0.93985893  0.18811130  1
  Zn  Zn161  1  0.93717564  0.93903931  0.68761408  1
  Zn  Zn162  1  0.06428039  0.06031843  0.31310832  1
  Zn  Zn163  1  0.06355790  0.06242232  0.81293705  1
  Zn  Zn164  1  0.06173882  0.56048476  0.31328836  1
  Zn  Zn165  1  0.06053380  0.56288032  0.81197803  1
  Zn  Zn166  1  0.56032160  0.06146755  0.31351996  1
  Zn  Zn167  1  0.56376896  0.06423341  0.81248998  1
  Zn  Zn168  1  0.56006987  0.56068456  0.31263650  1
  Zn  Zn169  1  0.56120669  0.56431027  0.81172763  1
  Zn  Zn170  1  0.43868139  0.18981499  0.43897171  1
  Zn  Zn171  1  0.43919456  0.18600711  0.93757016  1
  Zn  Zn172  1  0.43524267  0.68688984  0.43723943  1
  Zn  Zn173  1  0.43789078  0.68699142  0.93731925  1
  Zn  Zn174  1  0.93799756  0.18635361  0.43891271  1
  Zn  Zn175  1  0.94199168  0.18809125  0.93912467  1
  Zn  Zn176  1  0.93491417  0.68882988  0.43631360  1
  Zn  Zn177  1  0.93623616  0.68792913  0.93538623  1
  Zn  Zn178  1  0.06326212  0.31327572  0.06340006  1
  Zn  Zn179  1  0.06187031  0.31188894  0.56003717  1
  Zn  Zn180  1  0.06319464  0.81232818  0.06299916  1
  Zn  Zn181  1  0.06337220  0.81115702  0.56393471  1
  Zn  Zn182  1  0.56193136  0.31384558  0.06189671  1
  Zn  Zn183  1  0.56229136  0.31298262  0.56194747  1
  Zn  Zn184  1  0.56399454  0.81198330  0.06445419  1
  Zn  Zn185  1  0.56310456  0.81224319  0.56374817  1
  O  O186  1  0.12264130  0.11992153  0.11685010  1
  O  O187  1  0.11610839  0.11901082  0.61843158  1
  O  O188  1  0.12008677  0.61898159  0.11790301  1
  O  O189  1  0.11624781  0.62045149  0.61684913  1
  O  O190  1  0.62099119  0.11602920  0.11915920  1
  O  O191  1  0.61790730  0.12150081  0.61649996  1
  O  O192  1  0.62092241  0.61713973  0.11973203  1
  O  O193  1  0.61741935  0.62061940  0.61642628  1
  O  O194  1  0.38435188  0.38341136  0.36929802  1
  O  O195  1  0.37915629  0.38033580  0.87944634  1
  O  O196  1  0.38400693  0.87137917  0.38909023  1
  O  O197  1  0.38049888  0.88934527  0.87920390  1
  O  O198  1  0.87862995  0.37836307  0.38261984  1
  O  O199  1  0.87675312  0.37692300  0.88864290  1
  O  O200  1  0.88330878  0.87540448  0.38658956  1
  O  O201  1  0.87995540  0.88399024  0.88023082  1
  O  O202  1  0.25039745  0.00521364  0.37166900  1
  O  O203  1  0.25961612  -0.00578684  0.86521750  1
  O  O204  1  0.25698997  0.49911074  0.36676729  1
  O  O205  1  0.25365022  0.50557408  0.87037639  1
  O  O206  1  0.75055260  0.00181494  0.37248922  1
  O  O207  1  0.75729332  0.00627369  0.87034517  1
  O  O208  1  0.75373945  0.50063432  0.36321274  1
  O  O209  1  0.74818249  0.50809156  0.86742293  1
  O  O210  1  0.24585191  0.49954916  0.13389020  1
  O  O211  1  0.24345823  0.49487495  0.63010904  1
  O  O212  1  0.24574358  0.99174716  0.12985434  1
  O  O213  1  0.24512050  0.99477918  0.63284333  1
  O  O214  1  0.74093132  0.50080562  0.13338482  1
  O  O215  1  0.74155206  0.49597012  0.63020457  1
  O  O216  1  0.74144594  0.99115437  0.12107270  1
  O  O217  1  0.74347894  0.99163674  0.62908511  1
  O  O218  1  0.00100319  0.36705380  0.25656900  1
  O  O219  1  0.01371313  0.37518323  0.74830072  1
  O  O220  1  0.00605251  0.86792893  0.25453604  1
  O  O221  1  0.00592859  0.86896624  0.75372591  1
  O  O222  1  0.50311276  0.36816298  0.26091674  1
  O  O223  1  0.50475161  0.36986640  0.75541745  1
  O  O224  1  0.50050605  0.86719325  0.26020848  1
  O  O225  1  0.50738023  0.87011036  0.74882967  1
  O  O226  1  0.49222611  0.12981470  0.24526813  1
  O  O227  1  0.50092764  0.13308532  0.74313659  1
  O  O228  1  0.49599787  0.63210480  0.24593455  1
  O  O229  1  0.49778334  0.63353995  0.74242611  1
  O  O230  1  1.00222483  0.13136886  0.24182332  1
  O  O231  1  1.00588615  0.12383699  0.73363512  1
  O  O232  1  0.99607207  0.62851008  0.24443374  1
  O  O233  1  0.99970987  0.63385712  0.74203118  1
  O  O234  1  0.36892885  0.25249421  0.00262380  1
  O  O235  1  0.36525285  0.24466106  0.51050230  1
  O  O236  1  0.36979672  0.75100621  0.00686163  1
  O  O237  1  0.36923516  0.75900776  0.50623911  1
  O  O238  1  0.87166163  0.25736807  0.00366808  1
  O  O239  1  0.87255362  0.26268155  0.50365048  1
  O  O240  1  0.86824291  0.75726182  0.00061703  1
  O  O241  1  0.86523392  0.76143093  0.49922359  1
  O  O242  1  0.13338301  0.24495277  0.49512620  1
  O  O243  1  0.13332105  0.24425679  0.99355952  1
  O  O244  1  0.13058062  0.74096344  0.50061534  1
  O  O245  1  0.13074821  0.74401395  0.99394044  1
  O  O246  1  0.62176785  0.24035871  0.49181445  1
  O  O247  1  0.63004077  0.24531099  0.99500236  1
  O  O248  1  0.63282218  0.74074748  0.50584978  1
  O  O249  1  0.63013721  0.74503375  0.99480121  1
  O  O250  1  0.49729188  0.24398414  0.12950147  1
  O  O251  1  0.49192254  0.24788498  0.62896308  1
  O  O252  1  0.49554422  0.74557982  0.13315568  1
  O  O253  1  0.49394215  0.74632525  0.63005511  1
  O  O254  1  0.99718996  0.24395076  0.12953205  1
  O  O255  1  1.00139572  0.23418464  0.62342707  1
  O  O256  1  0.99920922  0.74285110  0.13117770  1
  O  O257  1  1.00683992  0.74112633  0.63616143  1
  O  O258  1  0.00631956  0.25445906  0.37013109  1
  O  O259  1  0.01415087  0.25382663  0.87475193  1
  O  O260  1  0.00221293  0.75551621  0.36820244  1
  O  O261  1  0.00663874  0.75498899  0.86669668  1
  O  O262  1  0.50694370  0.25683643  0.37170011  1
  O  O263  1  0.50514744  0.25558287  0.87002785  1
  O  O264  1  0.49351778  0.75815857  0.36575940  1
  O  O265  1  0.50622901  0.75229552  0.86897444  1
  O  O266  1  0.24379732  0.13630341  0.50302777  1
  O  O267  1  0.24134557  0.13472690  1.00599186  1
  O  O268  1  0.23840331  0.63087791  0.50210037  1
  O  O269  1  0.24412557  0.63069465  0.99434616  1
  O  O270  1  0.73488446  0.12404233  0.50137478  1
  O  O271  1  0.74539163  0.13085547  0.99221976  1
  O  O272  1  0.74154714  0.63499400  0.49984707  1
  O  O273  1  0.74441161  0.63086180  0.99498481  1
  O  O274  1  0.25665347  0.36390948  0.00085647  1
  O  O275  1  0.24271602  0.36219282  0.50681383  1
  O  O276  1  0.25182994  0.86718702  0.00789490  1
  O  O277  1  0.25642905  0.87199309  0.50515820  1
  O  O278  1  0.75889362  0.36938089  0.00115549  1
  O  O279  1  0.75676210  0.37555471  0.50436783  1
  O  O280  1  0.75471863  0.87017297  0.00690880  1
  O  O281  1  0.75481574  0.86930486  0.50720250  1
  O  O282  1  0.13526473  0.50020717  0.24513781  1
  O  O283  1  0.12922726  0.49174106  0.74559779  1
  O  O284  1  0.12688456  0.99107600  0.24230383  1
  O  O285  1  0.13248717  0.99411095  0.74709952  1
  O  O286  1  0.63295412  0.50153688  0.24161247  1
  O  O287  1  0.62840789  0.49574817  0.74353171  1
  O  O288  1  0.62204332  0.99661433  0.23608260  1
  O  O289  1  0.63019413  0.99515628  0.74461150  1
  O  O290  1  0.37929050  0.01573409  0.24424989  1
  O  O291  1  0.36777506  0.00184510  0.75643263  1
  O  O292  1  0.36770734  0.50405642  0.25678821  1
  O  O293  1  0.36557373  0.50107421  0.75657773  1
  O  O294  1  0.87440104  0.00223625  0.25416233  1
  O  O295  1  0.86805696  -0.00656030  0.76313312  1
  O  O296  1  0.86713752  0.50377650  0.25258400  1
  O  O297  1  0.86458962  0.50216974  0.75210882  1
  O  O298  1  0.11768722  0.36719288  0.37364261  1
  O  O299  1  0.12518574  0.36594004  0.86595729  1
  O  O300  1  0.11808536  0.87062127  0.36905586  1
  O  O301  1  0.12019248  0.87036247  0.87009963  1
  O  O302  1  0.61708112  0.36600441  0.37342945  1
  O  O303  1  0.61938821  0.37038821  0.86998696  1
  O  O304  1  0.61049147  0.87629466  0.37690889  1
  O  O305  1  0.62499847  0.86962618  0.86822561  1
  O  O306  1  0.38268205  0.13127963  0.13218343  1
  O  O307  1  0.38051546  0.13703297  0.62888379  1
  O  O308  1  0.38154261  0.62953899  0.13100745  1
  O  O309  1  0.37958422  0.63298484  0.62598234  1
  O  O310  1  0.88594273  0.13105258  0.11994678  1
  O  O311  1  0.88931255  0.12325993  0.61707109  1
  O  O312  1  0.88235573  0.62586238  0.13147051  1
  O  O313  1  0.88808688  0.62029535  0.62361625  1
  O  O314  1  0.25664141  0.25191010  0.11367597  1
  O  O315  1  0.25571488  0.25421812  0.61882751  1
  O  O316  1  0.25617338  0.75296024  0.11973805  1
  O  O317  1  0.25342194  0.75709443  0.62051603  1
  O  O318  1  0.75631284  0.25009548  0.11680634  1
  O  O319  1  0.74779739  0.25938772  0.62039761  1
  O  O320  1  0.75048404  0.75972347  0.11843681  1
  O  O321  1  0.74493909  0.76360814  0.61734687  1
  O  O322  1  0.24703692  0.24702928  0.38452670  1
  O  O323  1  0.24106728  0.25339700  0.88494102  1
  O  O324  1  0.24884998  0.74456438  0.38420569  1
  O  O325  1  0.24544281  0.74661863  0.87933188  1
  O  O326  1  0.73611639  0.24919325  0.37752363  1
  O  O327  1  0.74382593  0.24665106  0.87991721  1
  O  O328  1  0.75043824  0.75152606  0.38810022  1
  O  O329  1  0.74333486  0.74627516  0.87928258  1
  O  O330  1  0.01513251  0.12478969  0.00667999  1
  O  O331  1  0.00665496  0.11840776  0.50963419  1
  O  O332  1  0.00537933  0.62055689  0.00419179  1
  O  O333  1  0.00709212  0.62679798  0.50773452  1
  O  O334  1  0.50684712  0.11659629  0.00531699  1
  O  O335  1  0.50536866  0.11814753  0.50493314  1
  O  O336  1  0.50729304  0.62355496  0.00721332  1
  O  O337  1  0.50685531  0.62577437  0.50595889  1
  O  O338  1  0.50382959  0.37732857  0.48616270  1
  O  O339  1  0.49310482  0.37640341  0.99223014  1
  O  O340  1  0.49316216  0.88086747  0.49615662  1
  O  O341  1  0.50087337  0.88776668  1.00055339  1
  O  O342  1  0.98994499  0.37681037  0.49492805  1
  O  O343  1  0.99188005  0.38073224  1.00001001  1
  O  O344  1  0.99320127  0.87644979  0.49868892  1
  O  O345  1  0.99540375  0.87536344  0.99246661  1
  O  O346  1  0.49078573  0.49137161  0.37455913  1
  O  O347  1  0.49316947  0.49436310  0.87549674  1
  O  O348  1  0.50262479  0.99159266  0.38880584  1
  O  O349  1  0.49568265  1.00051392  0.88470221  1
  O  O350  1  0.99182274  0.49214397  0.37588049  1
  O  O351  1  0.99802643  0.49737652  0.88292304  1
  O  O352  1  1.00278148  0.99031835  0.38442254  1
  O  O353  1  0.99277710  0.99479064  0.87510552  1
  O  O354  1  0.01050226  0.00535455  0.12027648  1
  O  O355  1  0.00510944  0.00784474  0.62118382  1
  O  O356  1  0.00625694  0.50592258  0.11965602  1
  O  O357  1  0.00647560  0.51052685  0.62359928  1
  O  O358  1  0.50822073  0.00314327  0.11718089  1
  O  O359  1  0.50480092  0.00472850  0.61639747  1
  O  O360  1  0.50975699  0.50605967  0.12698047  1
  O  O361  1  0.50305174  0.50636124  0.62331394  1
  O  O362  1  0.25017580  0.38637794  0.24763274  1
  O  O363  1  0.23896976  0.38003030  0.74390567  1
  O  O364  1  0.24534305  0.87151254  0.24417420  1
  O  O365  1  0.24499464  0.88396014  0.74418670  1
  O  O366  1  0.74842003  0.38637234  0.24627012  1
  O  O367  1  0.74107946  0.38263555  0.74416270  1
  O  O368  1  0.74836622  0.87419653  0.23848754  1
  O  O369  1  0.74499277  0.88114413  0.74238168  1
  O  O370  1  0.26742956  0.12645543  0.24836576  1
  O  O371  1  0.24832510  0.11062073  0.74369188  1
  O  O372  1  0.25591945  0.61385917  0.25134200  1
  O  O373  1  0.24792545  0.61908494  0.75584226  1
  O  O374  1  0.75457636  0.11936658  0.25248182  1
  O  O375  1  0.74230312  0.11723670  0.75721922  1
  O  O376  1  0.75563911  0.61637392  0.25058579  1
  O  O377  1  0.74911725  0.62116822  0.75339303  1
  O  O378  1  0.37871245  0.13072352  0.35976431  1
  O  O379  1  0.37985609  0.11152526  0.87282625  1
  O  O380  1  0.37432123  0.61400319  0.36841706  1
  O  O381  1  0.36745087  0.61931297  0.87320140  1
  O  O382  1  0.87205754  0.12145477  0.37586172  1
  O  O383  1  0.87111351  0.11446364  0.88257611  1
  O  O384  1  0.87187324  0.61732877  0.36843136  1
  O  O385  1  0.86530339  0.62409362  0.87112050  1
  O  O386  1  0.12831776  0.38361933  0.12744062  1
  O  O387  1  0.12902540  0.37882419  0.63153274  1
  O  O388  1  0.13150206  0.87882249  0.13011984  1
  O  O389  1  0.13006705  0.88108840  0.63069034  1
  O  O390  1  0.62590434  0.38639860  0.12677857  1
  O  O391  1  0.62753973  0.38156254  0.62944864  1
  O  O392  1  0.63520688  0.88279473  0.12433226  1
  O  O393  1  0.63317505  0.88121419  0.62914136  1
  O  O394  1  0.12098921  0.25053219  0.25594818  1
  O  O395  1  0.12620612  0.25670292  0.75764274  1
  O  O396  1  0.11904337  0.75439216  0.25068793  1
  O  O397  1  0.11751608  0.75638500  0.75567908  1
  O  O398  1  0.61886012  0.24845626  0.25925229  1
  O  O399  1  0.61860423  0.25752138  0.75545411  1
  O  O400  1  0.61115342  0.75026139  0.24438950  1
  O  O401  1  0.61924615  0.75641517  0.75424841  1
  O  O402  1  0.38146532  0.24174842  0.24366213  1
  O  O403  1  0.37897534  0.24850328  0.74253653  1
  O  O404  1  0.38422028  0.74343254  0.24479187  1
  O  O405  1  0.38019992  0.75200061  0.74335620  1
  O  O406  1  0.88265409  0.24840490  0.24153436  1
  O  O407  1  0.87990440  0.25897373  0.74413628  1
  O  O408  1  0.88196832  0.74273678  0.24810078  1
  O  O409  1  0.88894109  0.75170161  0.75475585  1
  O  O410  1  0.37333390  0.50501937  0.48644991  1
  O  O411  1  0.37559281  0.49379377  0.99346092  1
  O  O412  1  0.38424153  0.99193309  0.50938431  1
  O  O413  1  0.38446452  1.00170160  0.99479800  1
  O  O414  1  0.87352571  0.49045755  0.49249987  1
  O  O415  1  0.88011857  0.49122936  1.00047290  1
  O  O416  1  0.88176586  0.98565602  0.49898544  1
  O  O417  1  0.87727527  0.99307957  0.98824962  1
  O  O418  1  0.12834609  0.00934512  0.00424975  1
  O  O419  1  0.11959408  0.00385525  0.50775594  1
  O  O420  1  0.12102853  0.50506496  0.00431019  1
  O  O421  1  0.12310656  0.50919344  0.50587012  1
  O  O422  1  0.61898581  0.00476354  0.00714732  1
  O  O423  1  0.61470819  0.00753369  0.50571383  1
  O  O424  1  0.62470259  0.50564985  0.00999029  1
  O  O425  1  0.62278938  0.51057539  0.50663611  1
  O  O426  1  0.37592020  0.36780119  0.11812604  1
  O  O427  1  0.36765209  0.36272433  0.63125386  1
  O  O428  1  0.36994296  0.86798728  0.12437804  1
  O  O429  1  0.36980402  0.87079573  0.61496735  1
  O  O430  1  0.87421013  0.36775794  0.11344169  1
  O  O431  1  0.86752395  0.37893477  0.61371864  1
  O  O432  1  0.86574549  0.87565626  0.11802247  1
  O  O433  1  0.86390865  0.88176782  0.61674687  1
  O  O434  1  0.12522374  0.13259250  0.38295815  1
  O  O435  1  0.12105719  0.13443285  0.88470880  1
  O  O436  1  0.12511823  0.62435323  0.38826571  1
  O  O437  1  0.13018659  0.63061484  0.87988275  1
  O  O438  1  0.61945845  0.13365832  0.38442372  1
  O  O439  1  0.63122212  0.13184440  0.88095408  1
  O  O440  1  0.62536467  0.61867533  0.38845462  1
  O  O441  1  0.62997826  0.63165306  0.88006372  1
