# generated using pymatgen
data_V93Zn93O256
_symmetry_space_group_name_H-M   'P 1'
_cell_length_a   17.04437662
_cell_length_b   17.04385339
_cell_length_c   17.04625657
_cell_angle_alpha   89.96864820
_cell_angle_beta   90.03421616
_cell_angle_gamma   89.92837472
_symmetry_Int_Tables_number   1
_chemical_formula_structural   V93Zn93O256
_chemical_formula_sum   'V93 Zn93 O256'
_cell_volume   4951.96367904
_cell_formula_units_Z   1
loop_
 _symmetry_equiv_pos_site_id
 _symmetry_equiv_pos_as_xyz
  1  'x, y, z'
loop_
 _atom_site_type_symbol
 _atom_site_label
 _atom_site_symmetry_multiplicity
 _atom_site_fract_x
 _atom_site_fract_y
 _atom_site_fract_z
 _atom_site_occupancy
  V  V0  1  0.62403903  0.87279613  0.24939462  1
  V  V1  1  0.00191148  0.25259492  0.75085855  1
  V  V2  1  0.74752495  0.74875679  -0.00321301  1
  V  V3  1  -0.00020273  0.00310075  0.50099742  1
  V  V4  1  0.62077532  0.49863460  0.12190972  1
  V  V5  1  0.50032492  0.12496922  0.62487165  1
  V  V6  1  0.87295101  -0.00071191  0.37470367  1
  V  V7  1  0.00046626  0.87492457  0.87566802  1
  V  V8  1  0.12523533  0.38199987  0.24627681  1
  V  V9  1  0.62465332  0.49991843  0.62579742  1
  V  V10  1  0.75091560  0.49961874  0.74956228  1
  V  V11  1  0.12413851  0.25100524  0.37518690  1
  V  V12  1  0.62590955  0.37028306  0.25361611  1
  V  V13  1  0.50316394  0.75021097  0.75146390  1
  V  V14  1  0.87572606  0.37521740  0.00074302  1
  V  V15  1  0.37577451  0.00215001  0.87520188  1
  V  V16  1  -0.00043142  0.74979989  0.75154978  1
  V  V17  1  -0.00087480  0.62539700  0.62544450  1
  V  V18  1  0.24928087  0.24956219  -0.00178002  1
  V  V19  1  0.74753901  0.62658499  0.87544973  1
  V  V20  1  0.24736185  0.38217342  0.12591473  1
  V  V21  1  0.74912819  -0.00209379  0.24956879  1
  V  V22  1  0.62634324  0.24912316  0.87448455  1
  V  V23  1  0.75280963  0.24979924  -0.00067215  1
  V  V24  1  0.24962732  0.25062195  0.49999897  1
  V  V25  1  0.37312171  0.00053468  0.37502452  1
  V  V26  1  0.00864787  0.50040944  0.00371688  1
  V  V27  1  0.25095065  0.75093144  0.00063877  1
  V  V28  1  -0.00169679  0.74959878  0.24933635  1
  V  V29  1  0.37414913  0.75028828  0.62537973  1
  V  V30  1  0.87672470  0.50068800  0.87565528  1
  V  V31  1  0.25029823  0.00107588  0.74882048  1
  V  V32  1  0.74172512  0.12786024  0.37347234  1
  V  V33  1  0.12486567  0.00275572  0.12426023  1
  V  V34  1  0.62551684  0.12359419  -0.00016801  1
  V  V35  1  0.24919533  0.00124755  0.25033870  1
  V  V36  1  0.37657963  0.87473680  0.00071205  1
  V  V37  1  0.37245647  0.50033287  0.37469356  1
  V  V38  1  0.75185591  0.62177931  0.37511932  1
  V  V39  1  0.50195517  0.37745857  0.87825779  1
  V  V40  1  0.62448092  0.62434006  0.50032752  1
  V  V41  1  -0.00239149  0.87492259  0.37492050  1
  V  V42  1  0.62880365  0.87145609  0.74922726  1
  V  V43  1  0.37493255  0.75019317  0.12572782  1
  V  V44  1  0.37582552  0.25073463  0.62562122  1
  V  V45  1  0.74887215  0.75393312  0.50359984  1
  V  V46  1  0.62726325  0.37483810  0.75061974  1
  V  V47  1  0.87623320  -0.00133383  0.87348580  1
  V  V48  1  0.12611594  0.74919524  0.87712374  1
  V  V49  1  0.12366594  0.87633818  0.25013758  1
  V  V50  1  0.87308344  0.37860774  0.49566827  1
  V  V51  1  0.50266091  0.24797065  0.25328155  1
  V  V52  1  0.49915017  0.87373121  0.37448678  1
  V  V53  1  0.75025977  0.87202589  0.12438932  1
  V  V54  1  0.37479871  0.62445394  0.25111593  1
  V  V55  1  0.50056124  0.37313062  0.37583920  1
  V  V56  1  0.87238712  0.75349885  0.62529734  1
  V  V57  1  0.37420283  0.12506802  0.25042746  1
  V  V58  1  0.38012045  0.50049128  0.87824032  1
  V  V59  1  -0.00296490  0.37894739  0.37392013  1
  V  V60  1  0.75121203  -0.00427913  0.74609497  1
  V  V61  1  0.50001554  0.62402421  0.62535305  1
  V  V62  1  0.37572865  0.25027412  0.12661710  1
  V  V63  1  0.87493337  0.62514674  0.75060740  1
  V  V64  1  0.49993188  0.74913156  0.25061672  1
  V  V65  1  0.37632640  0.62594989  0.75152729  1
  V  V66  1  0.12594706  0.87622748  0.75008238  1
  V  V67  1  0.38244492  0.37987350  0.00210764  1
  V  V68  1  0.87521789  0.12464306  0.74810050  1
  V  V69  1  0.50481209  0.87094934  0.87502892  1
  V  V70  1  0.12362773  0.75017921  0.37611743  1
  V  V71  1  0.25058296  0.50081312  0.75047983  1
  V  V72  1  0.75262584  0.49883805  0.25217608  1
  V  V73  1  0.62944919  -0.00367420  0.62304301  1
  V  V74  1  0.87082486  0.87499235  0.50300791  1
  V  V75  1  0.00020042  0.00140920  -0.00031857  1
  V  V76  1  0.00742955  0.62172388  0.12568827  1
  V  V77  1  0.87606580  0.12668628  0.24714871  1
  V  V78  1  0.50134867  0.24938431  0.74939836  1
  V  V79  1  0.49936458  0.00019521  0.50045603  1
  V  V80  1  0.37387498  0.87448174  0.50136662  1
  V  V81  1  0.12258026  0.62631437  0.50055748  1
  V  V82  1  -0.00417494  0.50111548  0.49905296  1
  V  V83  1  0.74352294  0.24972007  0.49461018  1
  V  V84  1  0.25182889  0.62601361  0.87637404  1
  V  V85  1  0.87450822  0.24900752  0.62280553  1
  V  V86  1  0.24804737  0.75016449  0.50117338  1
  V  V87  1  0.62441945  -0.00073863  0.12260106  1
  V  V88  1  0.62283791  0.62303169  -0.00265146  1
  V  V89  1  0.75011254  0.12300202  0.87323413  1
  V  V90  1  0.50040700  0.62233119  0.12307991  1
  V  V91  1  0.24896271  0.37680475  0.62708438  1
  V  V92  1  0.87473904  0.62184983  0.25125431  1
  Zn  Zn93  1  0.50049503  0.00147554  0.00029392  1
  Zn  Zn94  1  0.49962242  0.49964299  0.50034672  1
  Zn  Zn95  1  0.75015011  0.37292672  0.12565576  1
  Zn  Zn96  1  0.24785180  0.87593618  0.62480668  1
  Zn  Zn97  1  0.12662995  0.25056433  0.87315830  1
  Zn  Zn98  1  0.62179544  0.12793101  0.49606550  1
  Zn  Zn99  1  0.00335955  0.12541079  0.62435677  1
  Zn  Zn100  1  0.87546626  0.75040505  0.12397148  1
  Zn  Zn101  1  0.12590818  0.12736551  -0.00243176  1
  Zn  Zn102  1  0.50010316  0.12326928  0.12329210  1
  Zn  Zn103  1  0.24879781  0.12781045  0.87407988  1
  Zn  Zn104  1  0.24823066  0.62439564  0.37508006  1
  Zn  Zn105  1  0.12899548  0.62215597  0.00478756  1
  Zn  Zn106  1  0.12372640  0.12433358  0.50007838  1
  Zn  Zn107  1  0.12415003  0.50118820  0.62734042  1
  Zn  Zn108  1  0.12413772  0.37735210  0.75257276  1
  Zn  Zn109  1  -0.00025771  0.12856766  0.12362836  1
  Zn  Zn110  1  0.12548069  0.00170433  0.62383588  1
  Zn  Zn111  1  0.62394368  0.74849475  0.37534272  1
  Zn  Zn112  1  0.25086370  0.87546625  0.12525919  1
  Zn  Zn113  1  0.87467134  0.87227765  0.00079347  1
  Zn  Zn114  1  0.37564670  0.37756451  0.50027107  1
  Zn  Zn115  1  0.37481733  0.12680160  0.75108252  1
  Zn  Zn116  1  -0.00049414  0.25171023  0.24613781  1
  Zn  Zn117  1  0.24507363  0.50474890  0.24749962  1
  Zn  Zn118  1  0.87712188  0.25060005  0.12425605  1
  Zn  Zn119  1  0.24836867  0.12558240  0.37511398  1
  Zn  Zn120  1  0.00510592  0.37704639  0.87562381  1
  Zn  Zn121  1  0.74855444  0.37475535  0.62318061  1
  Zn  Zn122  1  0.18785296  0.19041559  0.18698864  1
  Zn  Zn123  1  0.18559832  0.18353746  0.68481509  1
  Zn  Zn124  1  0.18917225  0.68938696  0.18970362  1
  Zn  Zn125  1  0.18708993  0.68762815  0.68763708  1
  Zn  Zn126  1  0.68943606  0.18735567  0.18365408  1
  Zn  Zn127  1  0.68787482  0.18484127  0.68452390  1
  Zn  Zn128  1  0.68647154  0.68754900  0.18455081  1
  Zn  Zn129  1  0.68730222  0.68697005  0.68691589  1
  Zn  Zn130  1  0.31261073  0.31397894  0.31152577  1
  Zn  Zn131  1  0.31537354  0.31457602  0.81314015  1
  Zn  Zn132  1  0.31029424  0.81290474  0.31326350  1
  Zn  Zn133  1  0.31422836  0.81448174  0.81325699  1
  Zn  Zn134  1  0.81250841  0.31040792  0.31378630  1
  Zn  Zn135  1  0.81477582  0.31346778  0.81393018  1
  Zn  Zn136  1  0.81188770  0.80939365  0.31420414  1
  Zn  Zn137  1  0.81194661  0.81162013  0.81527303  1
  Zn  Zn138  1  0.18491175  0.43872096  0.43869114  1
  Zn  Zn139  1  0.18988258  0.43381139  0.93457746  1
  Zn  Zn140  1  0.18673964  0.93619240  0.43658030  1
  Zn  Zn141  1  0.18880536  0.93674229  0.93715856  1
  Zn  Zn142  1  0.68595017  0.43857743  0.43661487  1
  Zn  Zn143  1  0.68987069  0.43855869  0.93699768  1
  Zn  Zn144  1  0.68513415  0.93743808  0.43523705  1
  Zn  Zn145  1  0.68826304  0.93644384  0.93580714  1
  Zn  Zn146  1  0.31338699  0.06325260  0.06346803  1
  Zn  Zn147  1  0.31282166  0.06483642  0.56366831  1
  Zn  Zn148  1  0.31419122  0.56304153  0.06236018  1
  Zn  Zn149  1  0.31249163  0.56322914  0.56094857  1
  Zn  Zn150  1  0.81177910  0.06013984  0.06167551  1
  Zn  Zn151  1  0.81145017  0.06394264  0.56068633  1
  Zn  Zn152  1  0.81348361  0.56131199  0.06544083  1
  Zn  Zn153  1  0.81123591  0.56426031  0.56435883  1
  Zn  Zn154  1  0.43693077  0.43803001  0.18926998  1
  Zn  Zn155  1  0.43785967  0.43701001  0.69000110  1
  Zn  Zn156  1  0.43813158  0.93793718  0.18681658  1
  Zn  Zn157  1  0.43869172  0.93701093  0.68744955  1
  Zn  Zn158  1  0.93785755  0.43885887  0.18530138  1
  Zn  Zn159  1  0.93596945  0.43627619  0.68459955  1
  Zn  Zn160  1  0.93601969  0.93794526  0.18560788  1
  Zn  Zn161  1  0.93806711  0.93557981  0.68535664  1
  Zn  Zn162  1  0.06134350  0.06353909  0.31380023  1
  Zn  Zn163  1  0.06506617  0.06794511  0.81383049  1
  Zn  Zn164  1  0.06056087  0.56259468  0.31547357  1
  Zn  Zn165  1  0.06494130  0.56215801  0.81545828  1
  Zn  Zn166  1  0.56080232  0.05930422  0.31052672  1
  Zn  Zn167  1  0.56263953  0.06044132  0.81059270  1
  Zn  Zn168  1  0.56289867  0.56024018  0.31238598  1
  Zn  Zn169  1  0.56266154  0.56061082  0.81348416  1
  Zn  Zn170  1  0.43543215  0.18743660  0.43757771  1
  Zn  Zn171  1  0.43857820  0.18920020  0.93830829  1
  Zn  Zn172  1  0.43672684  0.68711028  0.43833244  1
  Zn  Zn173  1  0.43981591  0.68872008  0.93895863  1
  Zn  Zn174  1  0.93372048  0.18838983  0.43319364  1
  Zn  Zn175  1  0.93839214  0.18699122  0.93430102  1
  Zn  Zn176  1  0.93438734  0.68774462  0.43601143  1
  Zn  Zn177  1  0.93608926  0.68635747  0.93974199  1
  Zn  Zn178  1  0.06206976  0.31252440  0.06434635  1
  Zn  Zn179  1  0.06320470  0.31427051  0.56398484  1
  Zn  Zn180  1  0.06296064  0.81247797  0.06384993  1
  Zn  Zn181  1  0.06033494  0.81580359  0.56446962  1
  Zn  Zn182  1  0.56479723  0.30932717  0.06538168  1
  Zn  Zn183  1  0.56241187  0.31433866  0.56361386  1
  Zn  Zn184  1  0.56328503  0.80941993  0.06170905  1
  Zn  Zn185  1  0.56191866  0.81201165  0.56383888  1
  O  O186  1  0.12330579  0.11308264  0.12428481  1
  O  O187  1  0.11974404  0.11972872  0.61714728  1
  O  O188  1  0.11180131  0.62886009  0.12656377  1
  O  O189  1  0.11598289  0.62543532  0.61848011  1
  O  O190  1  0.62549913  0.11729356  0.11803445  1
  O  O191  1  0.61860814  0.11343931  0.62277128  1
  O  O192  1  0.62090405  0.61607382  0.11903816  1
  O  O193  1  0.61920442  0.61896171  0.62089007  1
  O  O194  1  0.38378278  0.38318293  0.37380887  1
  O  O195  1  0.38161912  0.38004877  0.88438706  1
  O  O196  1  0.37970462  0.88070548  0.38083113  1
  O  O197  1  0.38397331  0.88338861  0.87978039  1
  O  O198  1  0.88511393  0.36877153  0.38520818  1
  O  O199  1  0.87769016  0.38188224  0.88551171  1
  O  O200  1  0.87871582  0.87982525  0.38067724  1
  O  O201  1  0.88296228  0.88144035  0.87602917  1
  O  O202  1  0.25515538  0.00215407  0.36912181  1
  O  O203  1  0.26056027  -0.00069836  0.86752232  1
  O  O204  1  0.26090663  0.49975672  0.37433985  1
  O  O205  1  0.25917025  0.50604251  0.87092731  1
  O  O206  1  0.75432752  0.00681626  0.36945774  1
  O  O207  1  0.75658911  0.00423811  0.86750303  1
  O  O208  1  0.74417771  0.51047619  0.36379974  1
  O  O209  1  0.75712386  0.50628142  0.86857317  1
  O  O210  1  0.25589479  0.48612494  0.12660692  1
  O  O211  1  0.25122689  0.49208387  0.63024746  1
  O  O212  1  0.24055053  0.99846241  0.13027288  1
  O  O213  1  0.25101760  0.99807025  0.63670926  1
  O  O214  1  0.74046825  0.49880662  0.13683137  1
  O  O215  1  0.74361980  0.49902421  0.63186103  1
  O  O216  1  0.74394204  0.99228041  0.13019512  1
  O  O217  1  0.73853164  1.00525320  0.62938110  1
  O  O218  1  0.00512321  0.37711253  0.25833894  1
  O  O219  1  -0.00056948  0.36556789  0.74952804  1
  O  O220  1  0.00309050  0.87063875  0.25543636  1
  O  O221  1  0.00512161  0.86936427  0.75628682  1
  O  O222  1  0.50632487  0.36752443  0.25637778  1
  O  O223  1  0.50754327  0.36856571  0.75656435  1
  O  O224  1  0.50406771  0.86898427  0.25516827  1
  O  O225  1  0.50753342  0.87065836  0.75662360  1
  O  O226  1  0.49511419  0.13428527  0.25092306  1
  O  O227  1  0.49978816  0.13204045  0.74332433  1
  O  O228  1  0.49505924  0.62983542  0.24455602  1
  O  O229  1  0.49621131  0.63059928  0.74640751  1
  O  O230  1  0.98657152  0.12553370  0.25179800  1
  O  O231  1  0.99205506  0.13424488  0.74762601  1
  O  O232  1  0.99291790  0.62669460  0.24573004  1
  O  O233  1  0.99456366  0.63039177  0.74626507  1
  O  O234  1  0.36899717  0.25951836  0.00591225  1
  O  O235  1  0.36494812  0.25390527  0.50494901  1
  O  O236  1  0.37066998  0.75483026  0.00625375  1
  O  O237  1  0.36856799  0.75443744  0.50543979  1
  O  O238  1  0.87142984  0.25916255  -0.00289922  1
  O  O239  1  0.86768938  0.25778289  0.50499907  1
  O  O240  1  0.86291842  0.75028667  0.00317416  1
  O  O241  1  0.86729841  0.75411056  0.50406862  1
  O  O242  1  0.13202033  0.25305179  0.49126282  1
  O  O243  1  0.13875046  0.25128328  1.00180642  1
  O  O244  1  0.12650747  0.74682545  0.49556905  1
  O  O245  1  0.13239141  0.74972692  0.99423214  1
  O  O246  1  0.64005581  0.24908764  0.50730061  1
  O  O247  1  0.63241403  0.24485079  0.99391234  1
  O  O248  1  0.63338514  0.74392374  0.50051066  1
  O  O249  1  0.63673327  0.73610743  1.00689045  1
  O  O250  1  0.49462559  0.24959316  0.13812128  1
  O  O251  1  0.49607618  0.24590873  0.62949698  1
  O  O252  1  0.49401628  0.74342611  0.13123480  1
  O  O253  1  0.49375728  0.74348979  0.63094383  1
  O  O254  1  0.99561716  0.24527414  0.12841375  1
  O  O255  1  0.98846176  0.25085429  0.62904489  1
  O  O256  1  0.99757127  0.74126327  0.13119502  1
  O  O257  1  0.99316175  0.74469938  0.63182059  1
  O  O258  1  0.00767080  0.26199765  0.37607763  1
  O  O259  1  -0.00211845  0.25278763  0.86130807  1
  O  O260  1  0.00346978  0.75529185  0.36953456  1
  O  O261  1  0.00462074  0.75400904  0.87094773  1
  O  O262  1  0.49333236  0.25970499  0.36359059  1
  O  O263  1  0.50710634  0.25627293  0.86929421  1
  O  O264  1  0.50028059  0.75595419  0.36885961  1
  O  O265  1  0.49406536  0.76305742  0.86765096  1
  O  O266  1  0.24837629  0.13955898  0.49832351  1
  O  O267  1  0.25215069  0.13864193  1.00055370  1
  O  O268  1  0.24107738  0.63205823  0.49918714  1
  O  O269  1  0.24989414  0.63162924  0.99511098  1
  O  O270  1  0.74952870  0.13252441  0.48938831  1
  O  O271  1  0.74621124  0.12890951  0.99216535  1
  O  O272  1  0.74692310  0.63057273  0.49166089  1
  O  O273  1  0.74418299  0.62964288  0.99684826  1
  O  O274  1  0.25972469  0.36882516  0.00762568  1
  O  O275  1  0.24978688  0.36708230  0.50887148  1
  O  O276  1  0.25859654  0.86841520  0.00093007  1
  O  O277  1  0.25593229  0.86881590  0.50186036  1
  O  O278  1  0.76026057  0.36948603  -0.00109839  1
  O  O279  1  0.75760763  0.36836673  0.49577036  1
  O  O280  1  0.74827461  0.86445173  0.00384026  1
  O  O281  1  0.75429617  0.86140637  0.49054444  1
  O  O282  1  0.12641699  0.48607463  0.25903061  1
  O  O283  1  0.13477924  0.49990456  0.74765029  1
  O  O284  1  0.12783933  0.99662424  0.24357948  1
  O  O285  1  0.13510022  0.99494420  0.75262722  1
  O  O286  1  0.63286250  0.49181886  0.24256357  1
  O  O287  1  0.63157729  0.49446461  0.74557135  1
  O  O288  1  0.63024128  0.99274018  0.24353720  1
  O  O289  1  0.63011136  0.99220101  0.74150833  1
  O  O290  1  0.36955519  0.00454472  0.25493689  1
  O  O291  1  0.36792941  -0.00127931  0.75870930  1
  O  O292  1  0.37369850  0.50566610  0.25936599  1
  O  O293  1  0.37029941  0.50686249  0.75689958  1
  O  O294  1  0.86838075  0.00605498  0.25533196  1
  O  O295  1  0.87129250  0.00378127  0.75316615  1
  O  O296  1  0.86293991  0.50805802  0.24451630  1
  O  O297  1  0.87081168  0.50566815  0.75375534  1
  O  O298  1  0.11673512  0.36871460  0.36952866  1
  O  O299  1  0.12265915  0.36828891  0.86991214  1
  O  O300  1  0.11658487  0.86971990  0.36929084  1
  O  O301  1  0.11973673  0.86880054  0.86982445  1
  O  O302  1  0.61405893  0.38270017  0.36266381  1
  O  O303  1  0.62193276  0.36943670  0.87101516  1
  O  O304  1  0.61680794  0.87305979  0.36722665  1
  O  O305  1  0.61376707  0.88302479  0.86318216  1
  O  O306  1  0.37782657  0.13167382  0.13271140  1
  O  O307  1  0.38296111  0.13289711  0.62669251  1
  O  O308  1  0.38091802  0.62951183  0.13039999  1
  O  O309  1  0.38045770  0.62986124  0.63178567  1
  O  O310  1  0.87403659  0.12229167  0.13717671  1
  O  O311  1  0.87543009  0.13515848  0.62861698  1
  O  O312  1  0.88314178  0.62615248  0.13714910  1
  O  O313  1  0.88048880  0.63181311  0.63125781  1
  O  O314  1  0.25664623  0.26017942  0.11904106  1
  O  O315  1  0.25442585  0.25773953  0.61895542  1
  O  O316  1  0.25698171  0.75232451  0.11942650  1
  O  O317  1  0.25658376  0.75162960  0.61970798  1
  O  O318  1  0.75477591  0.25283821  0.11492806  1
  O  O319  1  0.75999172  0.25022989  0.61561344  1
  O  O320  1  0.75180037  0.75427724  0.11624635  1
  O  O321  1  0.75658030  0.74080104  0.61097041  1
  O  O322  1  0.24143801  0.25427594  0.38371845  1
  O  O323  1  0.25423724  0.25124624  0.88689406  1
  O  O324  1  0.24134875  0.74940488  0.38260726  1
  O  O325  1  0.24743882  0.74539508  0.88054119  1
  O  O326  1  0.75432432  0.23974522  0.38357946  1
  O  O327  1  0.74565369  0.24270612  0.87850347  1
  O  O328  1  0.74787846  0.73825809  0.38395233  1
  O  O329  1  0.75396378  0.74130818  0.88627287  1
  O  O330  1  0.00093878  0.11192259  -0.00004573  1
  O  O331  1  -0.00394385  0.11351326  0.49647527  1
  O  O332  1  0.00071259  0.61795965  0.00938547  1
  O  O333  1  0.00017233  0.61830952  0.50378016  1
  O  O334  1  0.50981729  0.12433133  0.00177702  1
  O  O335  1  0.50224968  0.11932180  0.50439907  1
  O  O336  1  0.51304794  0.63161492  0.00723284  1
  O  O337  1  0.50652594  0.62466536  0.50741348  1
  O  O338  1  0.49963109  0.37491053  0.48748239  1
  O  O339  1  0.48954593  0.36596395  0.99603979  1
  O  O340  1  0.49372225  0.87962435  0.49462561  1
  O  O341  1  0.49669137  0.87411838  0.99033461  1
  O  O342  1  0.99327731  0.38196000  0.49453621  1
  O  O343  1  0.99210209  0.38358323  1.00076974  1
  O  O344  1  0.99211477  0.88299397  0.49381573  1
  O  O345  1  0.99986621  0.88510339  0.99450488  1
  O  O346  1  0.49089247  0.49066627  0.37416827  1
  O  O347  1  0.49247017  0.49018798  0.86960478  1
  O  O348  1  0.49330396  0.99384213  0.38002035  1
  O  O349  1  0.49137373  0.99027230  0.87412029  1
  O  O350  1  1.00212063  0.48934141  0.38668279  1
  O  O351  1  0.99305572  0.50170743  0.88527096  1
  O  O352  1  0.99277857  0.99436201  0.38163327  1
  O  O353  1  0.99673380  0.99519464  0.88143255  1
  O  O354  1  0.00792892  0.00075905  0.11650950  1
  O  O355  1  -0.00174791  0.00167129  0.61174611  1
  O  O356  1  -0.00455595  0.51009839  0.11533355  1
  O  O357  1  0.00003971  0.50589067  0.61526543  1
  O  O358  1  0.50860797  0.00184131  0.12218075  1
  O  O359  1  0.50659787  0.00527970  0.61990330  1
  O  O360  1  0.51296528  0.50536637  0.13280971  1
  O  O361  1  0.50591866  0.50609250  0.62529226  1
  O  O362  1  0.24270681  0.37572327  0.24201323  1
  O  O363  1  0.25207399  0.38092768  0.74081210  1
  O  O364  1  0.24173898  0.88247949  0.24905695  1
  O  O365  1  0.24491208  0.88432159  0.75049647  1
  O  O366  1  0.74297513  0.38163231  0.25321549  1
  O  O367  1  0.74522129  0.38124802  0.74918556  1
  O  O368  1  0.74463860  0.87841023  0.24643709  1
  O  O369  1  0.73832889  0.87999894  0.75757484  1
  O  O370  1  0.25604286  0.11989782  0.25174696  1
  O  O371  1  0.25384358  0.11459373  0.75206049  1
  O  O372  1  0.25726151  0.62263849  0.25356468  1
  O  O373  1  0.25743116  0.62176200  0.75639918  1
  O  O374  1  0.75533058  0.11962454  0.25579217  1
  O  O375  1  0.75552778  0.11776826  0.75421811  1
  O  O376  1  0.75498020  0.61932479  0.25547358  1
  O  O377  1  0.75496396  0.62029251  0.75517198  1
  O  O378  1  0.37262899  0.11813940  0.36838128  1
  O  O379  1  0.37583750  0.11282816  0.87404934  1
  O  O380  1  0.37467994  0.61604808  0.36998353  1
  O  O381  1  0.37213569  0.62092447  0.87139946  1
  O  O382  1  0.86438285  0.11957970  0.36579027  1
  O  O383  1  0.86943548  0.11801130  0.86760971  1
  O  O384  1  0.86491716  0.62725151  0.36330736  1
  O  O385  1  0.86915230  0.61984738  0.86894502  1
  O  O386  1  0.13497949  0.36995230  0.13601299  1
  O  O387  1  0.13789361  0.37749720  0.62742107  1
  O  O388  1  0.12494627  0.88659400  0.13164341  1
  O  O389  1  0.12615903  0.87952779  0.63459202  1
  O  O390  1  0.62623479  0.38210346  0.13466297  1
  O  O391  1  0.62709778  0.38135265  0.63252107  1
  O  O392  1  0.63052899  0.87863330  0.13008128  1
  O  O393  1  0.61748107  0.88692792  0.63502872  1
  O  O394  1  0.12416949  0.26093159  0.26020657  1
  O  O395  1  0.11137047  0.25076803  0.74538624  1
  O  O396  1  0.11800915  0.75620003  0.25583590  1
  O  O397  1  0.11916197  0.75484594  0.75688794  1
  O  O398  1  0.61710183  0.26045797  0.24374846  1
  O  O399  1  0.62228557  0.25462709  0.75473036  1
  O  O400  1  0.61801850  0.75494045  0.25037554  1
  O  O401  1  0.61907190  0.76221026  0.74084011  1
  O  O402  1  0.38229938  0.24569894  0.24620067  1
  O  O403  1  0.38336491  0.25008265  0.74400483  1
  O  O404  1  0.37969111  0.74487383  0.24575701  1
  O  O405  1  0.38139607  0.74493308  0.74553475  1
  O  O406  1  0.87528893  0.23922574  0.24889343  1
  O  O407  1  0.87954883  0.24656880  0.74067734  1
  O  O408  1  0.88042631  0.73941198  0.24936854  1
  O  O409  1  0.87951292  0.74478634  0.74611198  1
  O  O410  1  0.37835235  0.49845849  0.48907837  1
  O  O411  1  0.37171833  0.48706547  0.99527677  1
  O  O412  1  0.37948041  0.99511101  0.49528143  1
  O  O413  1  0.37629576  0.99427138  0.99147322  1
  O  O414  1  0.88247934  0.48952818  0.50658473  1
  O  O415  1  0.88107661  0.49339259  0.99579083  1
  O  O416  1  0.87912914  0.99502811  0.49431185  1
  O  O417  1  0.88396177  0.99793149  0.99298036  1
  O  O418  1  0.11832787  -0.00022600  0.00779790  1
  O  O419  1  0.11189306  0.00029966  0.49721228  1
  O  O420  1  0.11242534  0.50044917  -0.00563120  1
  O  O421  1  0.11293240  0.50636039  0.50248340  1
  O  O422  1  0.62566155  0.00568191  0.00470000  1
  O  O423  1  0.61872566  -0.00103316  0.50826254  1
  O  O424  1  0.63450875  0.50800419  0.01320626  1
  O  O425  1  0.62371482  0.50635016  0.50717001  1
  O  O426  1  0.37015783  0.37065522  0.11993573  1
  O  O427  1  0.36579239  0.37031746  0.62344672  1
  O  O428  1  0.37501772  0.86817391  0.11894987  1
  O  O429  1  0.37541861  0.86780900  0.61856282  1
  O  O430  1  0.87214340  0.37560122  0.11237593  1
  O  O431  1  0.87197649  0.36597685  0.61319551  1
  O  O432  1  0.86576338  0.87304688  0.12227237  1
  O  O433  1  0.87869423  0.86577735  0.61661265  1
  O  O434  1  0.12570808  0.13924686  0.37626286  1
  O  O435  1  0.13074085  0.13288487  0.88007024  1
  O  O436  1  0.12342216  0.63259083  0.38239594  1
  O  O437  1  0.13413416  0.63263041  0.87760906  1
  O  O438  1  0.63778062  0.11844706  0.37436127  1
  O  O439  1  0.63103655  0.12910958  0.87837052  1
  O  O440  1  0.63409985  0.62551303  0.38017480  1
  O  O441  1  0.63217800  0.61389933  0.88824528  1
