# generated using pymatgen
data_V93Zn93O256
_symmetry_space_group_name_H-M   'P 1'
_cell_length_a   17.04845441
_cell_length_b   17.05114815
_cell_length_c   17.05118204
_cell_angle_alpha   89.98910983
_cell_angle_beta   89.98105480
_cell_angle_gamma   90.03374800
_symmetry_Int_Tables_number   1
_chemical_formula_structural   V93Zn93O256
_chemical_formula_sum   'V93 Zn93 O256'
_cell_volume   4956.70445286
_cell_formula_units_Z   1
loop_
 _symmetry_equiv_pos_site_id
 _symmetry_equiv_pos_as_xyz
  1  'x, y, z'
loop_
 _atom_site_type_symbol
 _atom_site_label
 _atom_site_symmetry_multiplicity
 _atom_site_fract_x
 _atom_site_fract_y
 _atom_site_fract_z
 _atom_site_occupancy
  V  V0  1  0.24898705  0.87558924  0.12375730  1
  V  V1  1  0.74908437  0.62762227  0.38177010  1
  V  V2  1  -0.00337337  0.75242662  0.74377827  1
  V  V3  1  0.37589592  0.37503219  -0.00023909  1
  V  V4  1  -0.00025565  0.50123649  -0.00024522  1
  V  V5  1  -0.00116458  0.87543118  0.37641515  1
  V  V6  1  0.24995740  0.00156767  0.24938445  1
  V  V7  1  0.74982158  0.49946343  0.75153100  1
  V  V8  1  0.62424738  0.24895052  0.87504078  1
  V  V9  1  0.74986864  0.12396295  0.37697131  1
  V  V10  1  0.50078050  0.87464083  0.37696974  1
  V  V11  1  0.49318111  0.24516979  0.75076138  1
  V  V12  1  0.75098114  0.37391953  0.62591354  1
  V  V13  1  0.74946061  0.37515279  0.12537841  1
  V  V14  1  0.11916048  0.75418406  0.87428824  1
  V  V15  1  0.87211799  0.86117768  0.50391575  1
  V  V16  1  0.12378496  0.87668551  0.24951546  1
  V  V17  1  0.25026131  0.25029612  -0.00057739  1
  V  V18  1  0.88827030  -0.00381239  0.87812215  1
  V  V19  1  0.87561821  0.62986011  0.74355068  1
  V  V20  1  0.62903233  0.74853410  0.38269395  1
  V  V21  1  0.62567233  0.12381279  0.50168025  1
  V  V22  1  0.49269327  0.62471064  0.12888794  1
  V  V23  1  0.50063194  0.24912642  0.25125190  1
  V  V24  1  0.11917763  0.12255474  -0.00078449  1
  V  V25  1  0.62603262  0.37274604  0.25129929  1
  V  V26  1  0.37516826  0.62648396  0.74771145  1
  V  V27  1  0.74951105  0.62604122  0.87691874  1
  V  V28  1  0.37562087  -0.00025129  0.37398698  1
  V  V29  1  0.37429159  0.24950874  0.12558681  1
  V  V30  1  0.75028171  0.12208214  0.87564528  1
  V  V31  1  0.49974412  -0.00068084  0.00092458  1
  V  V32  1  0.12053928  0.87785625  0.75221004  1
  V  V33  1  0.75214840  -0.00076583  0.75087459  1
  V  V34  1  0.49977096  0.49889702  -0.00135036  1
  V  V35  1  0.24943737  0.37583999  0.12478405  1
  V  V36  1  0.37530500  0.87548459  0.49986678  1
  V  V37  1  0.37459319  0.12461449  0.24967552  1
  V  V38  1  0.12483779  0.25130718  0.87484019  1
  V  V39  1  0.62419102  0.12292153  0.00112339  1
  V  V40  1  -0.00038663  0.00026775  0.50069504  1
  V  V41  1  0.74898976  0.49879615  0.25029619  1
  V  V42  1  -0.00072861  0.25143725  0.74829631  1
  V  V43  1  0.12367547  0.50285659  0.12426939  1
  V  V44  1  0.49350710  0.12358017  0.62949854  1
  V  V45  1  0.62630471  0.87385277  0.24896014  1
  V  V46  1  0.74962341  0.24868990  -0.00033531  1
  V  V47  1  0.25270203  0.12567399  0.86719898  1
  V  V48  1  0.87416710  0.37471959  -0.00102833  1
  V  V49  1  -0.00027568  0.12637996  0.62341031  1
  V  V50  1  0.12529185  0.37849891  0.74903015  1
  V  V51  1  0.88499241  0.87851322  -0.00383177  1
  V  V52  1  0.37249285  0.87101622  0.00148832  1
  V  V53  1  0.25084548  0.75131708  0.49872623  1
  V  V54  1  0.37272691  0.00249429  0.86918700  1
  V  V55  1  0.62399693  0.75023971  0.87693097  1
  V  V56  1  0.37598282  0.50493863  0.36851697  1
  V  V57  1  0.87494212  0.50130329  0.87498747  1
  V  V58  1  0.87165852  0.75175383  0.12338232  1
  V  V59  1  0.87452752  0.62567338  0.24919740  1
  V  V60  1  0.12663666  0.37711732  0.24884077  1
  V  V61  1  0.12788122  0.62513403  0.49898343  1
  V  V62  1  -0.00050285  0.37579054  0.87381951  1
  V  V63  1  0.49988819  0.87413709  0.87549435  1
  V  V64  1  0.87502834  0.25006772  0.62514927  1
  V  V65  1  0.25058495  0.37729640  0.62435800  1
  V  V66  1  0.62576356  0.87339682  0.75149224  1
  V  V67  1  0.87525943  0.37513306  0.50039690  1
  V  V68  1  0.87504459  -0.00090928  0.37622652  1
  V  V69  1  0.11771426  0.00147283  0.12070171  1
  V  V70  1  0.87487828  0.49974581  0.37402189  1
  V  V71  1  0.62650402  -0.00020085  0.62557423  1
  V  V72  1  0.49944694  0.12333390  0.12460782  1
  V  V73  1  0.12612078  0.25124650  0.37369681  1
  V  V74  1  0.62394579  0.37328946  0.75162254  1
  V  V75  1  0.87568278  0.12429002  0.24970241  1
  V  V76  1  0.00027285  0.37603817  0.37374038  1
  V  V77  1  0.74932274  -0.00152062  0.25045289  1
  V  V78  1  0.00249024  0.50114855  0.49884215  1
  V  V79  1  0.62524567  0.24840481  0.37613463  1
  V  V80  1  0.62385420  0.49919610  0.62601602  1
  V  V81  1  0.49365511  0.74493771  0.25123840  1
  V  V82  1  0.24997184  0.87619871  0.62641548  1
  V  V83  1  0.62483088  0.62568641  0.00133502  1
  V  V84  1  0.75411052  0.86062411  0.62292277  1
  V  V85  1  -0.00124158  0.75065965  0.24937928  1
  V  V86  1  0.24808035  0.62595989  0.87427552  1
  V  V87  1  0.87565493  0.24883940  0.12476669  1
  V  V88  1  0.50095316  0.49958721  0.50252990  1
  V  V89  1  0.12431787  0.12537849  0.49845410  1
  V  V90  1  0.12533832  0.75096369  0.37433067  1
  V  V91  1  0.00015996  0.24961464  0.24858783  1
  V  V92  1  0.25301956  0.25066695  0.49875195  1
  Zn  Zn93  1  0.37938176  0.75060849  0.62448860  1
  Zn  Zn94  1  0.25180308  0.00502489  0.74603092  1
  Zn  Zn95  1  0.37759191  0.37447422  0.50036446  1
  Zn  Zn96  1  0.36731226  0.74444899  0.13220838  1
  Zn  Zn97  1  0.49742522  0.37325640  0.87389267  1
  Zn  Zn98  1  0.12270055  0.62829290  -0.00115413  1
  Zn  Zn99  1  -0.00101007  0.62641567  0.12218041  1
  Zn  Zn100  1  0.37345697  0.24694139  0.62814106  1
  Zn  Zn101  1  0.49972115  0.37326605  0.37727975  1
  Zn  Zn102  1  0.62539268  -0.00156726  0.12487752  1
  Zn  Zn103  1  0.49902874  0.74988543  0.74919938  1
  Zn  Zn104  1  0.25123794  0.12600750  0.37430712  1
  Zn  Zn105  1  0.50200937  0.62752472  0.62695490  1
  Zn  Zn106  1  0.37221079  0.49871205  0.87305365  1
  Zn  Zn107  1  -0.00377084  0.62757301  0.62098359  1
  Zn  Zn108  1  -0.00303837  0.12257252  0.12024291  1
  Zn  Zn109  1  0.12480894  0.00204062  0.62553302  1
  Zn  Zn110  1  0.62431383  0.50040984  0.12710328  1
  Zn  Zn111  1  0.24513342  0.75004284  0.00169553  1
  Zn  Zn112  1  0.49998276  0.00020228  0.50160440  1
  Zn  Zn113  1  0.25900880  0.50929107  0.24360794  1
  Zn  Zn114  1  0.62867510  0.62832074  0.50647274  1
  Zn  Zn115  1  0.75033693  0.75265992  -0.00033969  1
  Zn  Zn116  1  0.25983201  0.63195240  0.36638211  1
  Zn  Zn117  1  0.87714057  0.12339604  0.75099217  1
  Zn  Zn118  1  0.24959871  0.50186652  0.74779561  1
  Zn  Zn119  1  0.12418276  0.50315484  0.62538135  1
  Zn  Zn120  1  0.74978335  0.87766039  0.12128598  1
  Zn  Zn121  1  0.75002880  0.24965932  0.50134203  1
  Zn  Zn122  1  0.18756543  0.18729826  0.18656804  1
  Zn  Zn123  1  0.18446835  0.19186748  0.68478670  1
  Zn  Zn124  1  0.18859783  0.68665625  0.18894681  1
  Zn  Zn125  1  0.18835710  0.69131182  0.68669631  1
  Zn  Zn126  1  0.68800271  0.18576291  0.18759131  1
  Zn  Zn127  1  0.68568272  0.18650221  0.68813399  1
  Zn  Zn128  1  0.68463182  0.68578668  0.19019581  1
  Zn  Zn129  1  0.68492621  0.68482766  0.69237413  1
  Zn  Zn130  1  0.31447112  0.31936173  0.31316206  1
  Zn  Zn131  1  0.31246542  0.31453177  0.81281669  1
  Zn  Zn132  1  0.31103061  0.81601028  0.31305206  1
  Zn  Zn133  1  0.31004676  0.81124025  0.81265226  1
  Zn  Zn134  1  0.81178526  0.31059922  0.31339468  1
  Zn  Zn135  1  0.81241852  0.31110951  0.81215174  1
  Zn  Zn136  1  0.81208698  0.81201931  0.31428423  1
  Zn  Zn137  1  0.81279594  0.81351599  0.81525398  1
  Zn  Zn138  1  0.19085690  0.43887654  0.43555627  1
  Zn  Zn139  1  0.18762324  0.43935579  0.93758547  1
  Zn  Zn140  1  0.18786414  0.93896804  0.43736252  1
  Zn  Zn141  1  0.18640957  0.93932844  0.93644652  1
  Zn  Zn142  1  0.68660495  0.43698749  0.43831684  1
  Zn  Zn143  1  0.68526447  0.43752767  0.93756001  1
  Zn  Zn144  1  0.68938365  0.93587199  0.44085609  1
  Zn  Zn145  1  0.69189820  0.93467069  0.93961577  1
  Zn  Zn146  1  0.30906613  0.06165458  0.05906898  1
  Zn  Zn147  1  0.31189982  0.06124279  0.56011358  1
  Zn  Zn148  1  0.31065238  0.56292826  0.05784868  1
  Zn  Zn149  1  0.31427401  0.56280385  0.55906821  1
  Zn  Zn150  1  0.81251481  0.05883520  0.06231857  1
  Zn  Zn151  1  0.81424789  0.05926650  0.56299057  1
  Zn  Zn152  1  0.81161372  0.56319831  0.06331224  1
  Zn  Zn153  1  0.81218240  0.55950284  0.56296081  1
  Zn  Zn154  1  0.44097132  0.43511019  0.18681839  1
  Zn  Zn155  1  0.43541132  0.43686005  0.68832566  1
  Zn  Zn156  1  0.43816876  0.93543045  0.18780289  1
  Zn  Zn157  1  0.43879540  0.93648222  0.68782815  1
  Zn  Zn158  1  0.93745928  0.43706970  0.18693231  1
  Zn  Zn159  1  0.93870033  0.44130953  0.68559204  1
  Zn  Zn160  1  0.93564281  0.93558733  0.18634433  1
  Zn  Zn161  1  0.93637846  0.93742469  0.68542402  1
  Zn  Zn162  1  0.06250447  0.06357462  0.31229957  1
  Zn  Zn163  1  0.06582827  0.06532722  0.80880996  1
  Zn  Zn164  1  0.06444280  0.56517003  0.31077176  1
  Zn  Zn165  1  0.06202335  0.56491895  0.81066163  1
  Zn  Zn166  1  0.56217121  0.06148345  0.31379722  1
  Zn  Zn167  1  0.56246547  0.06076436  0.81342740  1
  Zn  Zn168  1  0.56276447  0.56152459  0.31420729  1
  Zn  Zn169  1  0.56124517  0.56276246  0.81358953  1
  Zn  Zn170  1  0.43920460  0.18477234  0.43881511  1
  Zn  Zn171  1  0.43695303  0.18620198  0.93725968  1
  Zn  Zn172  1  0.44141433  0.68617689  0.44097541  1
  Zn  Zn173  1  0.43661838  0.68646752  0.93683649  1
  Zn  Zn174  1  0.93722517  0.18853832  0.43683359  1
  Zn  Zn175  1  0.93561968  0.18612203  0.93406604  1
  Zn  Zn176  1  0.94029108  0.68486409  0.43466580  1
  Zn  Zn177  1  0.93831236  0.68942695  0.93581463  1
  Zn  Zn178  1  0.06220539  0.31278267  0.06159786  1
  Zn  Zn179  1  0.06413400  0.31356527  0.56136973  1
  Zn  Zn180  1  0.06075107  0.81345027  0.06216885  1
  Zn  Zn181  1  0.06227831  0.81285437  0.56368557  1
  Zn  Zn182  1  0.56286549  0.31140145  0.06416484  1
  Zn  Zn183  1  0.56328086  0.31121567  0.56411991  1
  Zn  Zn184  1  0.55931434  0.80939460  0.06386071  1
  Zn  Zn185  1  0.56238990  0.81414011  0.56614148  1
  O  O186  1  0.12508478  0.11843243  0.11610204  1
  O  O187  1  0.11796181  0.12564719  0.61659744  1
  O  O188  1  0.12189137  0.61401020  0.12199301  1
  O  O189  1  0.12730495  0.62599365  0.60901994  1
  O  O190  1  0.61746934  0.12378363  0.11889340  1
  O  O191  1  0.61839327  0.11886348  0.62079033  1
  O  O192  1  0.61420126  0.62392615  0.11932547  1
  O  O193  1  0.62579595  0.61455025  0.62490183  1
  O  O194  1  0.38023487  0.38644584  0.38027109  1
  O  O195  1  0.37695010  0.37773614  0.88430161  1
  O  O196  1  0.38123546  0.88066152  0.37998138  1
  O  O197  1  0.37749236  0.88173615  0.88349535  1
  O  O198  1  0.88011760  0.38023063  0.37934634  1
  O  O199  1  0.87922164  0.38076938  0.87972314  1
  O  O200  1  0.87903080  0.87981512  0.38271242  1
  O  O201  1  0.86983139  0.88465684  0.88371428  1
  O  O202  1  0.25683801  0.00092844  0.36698861  1
  O  O203  1  0.25619809  0.00923253  0.87348577  1
  O  O204  1  0.26802281  0.49969763  0.37529848  1
  O  O205  1  0.24881332  0.51317047  0.87302187  1
  O  O206  1  0.75553712  0.00435437  0.36998921  1
  O  O207  1  0.75343819  0.00355851  0.86460460  1
  O  O208  1  0.75554822  0.50632401  0.36923961  1
  O  O209  1  0.75483285  0.50503009  0.87055111  1
  O  O210  1  0.24044753  0.49452823  0.12239126  1
  O  O211  1  0.24683156  0.48807734  0.62206051  1
  O  O212  1  0.24026878  0.99559608  0.12990675  1
  O  O213  1  0.24810564  0.99049121  0.62672583  1
  O  O214  1  0.74879412  0.49309790  0.13205402  1
  O  O215  1  0.74489756  0.49310996  0.63257501  1
  O  O216  1  0.74561062  0.99822420  0.13558558  1
  O  O217  1  0.74610931  0.99608843  0.63686899  1
  O  O218  1  0.00502346  0.36939064  0.25509464  1
  O  O219  1  0.00461656  0.37135881  0.75487478  1
  O  O220  1  0.00416782  0.87074163  0.25678712  1
  O  O221  1  0.01168524  0.86771268  0.74150895  1
  O  O222  1  0.50851208  0.36529275  0.25000647  1
  O  O223  1  0.50631825  0.36489392  0.75111712  1
  O  O224  1  0.50881861  0.86742691  0.25619906  1
  O  O225  1  0.50815331  0.87555624  0.75846216  1
  O  O226  1  0.49437861  0.12938291  0.24435083  1
  O  O227  1  0.50851839  0.13346736  0.74125607  1
  O  O228  1  0.50763654  0.63407466  0.24128687  1
  O  O229  1  0.48805664  0.62579083  0.75116005  1
  O  O230  1  0.99323427  0.13235502  0.24861328  1
  O  O231  1  1.00042723  0.13420587  0.74193383  1
  O  O232  1  0.99191207  0.63284227  0.24945327  1
  O  O233  1  0.99130823  0.63190745  0.74683609  1
  O  O234  1  0.37017432  0.25445598  0.00630623  1
  O  O235  1  0.36336040  0.25064275  0.50035521  1
  O  O236  1  0.37368637  0.76360109  0.00094451  1
  O  O237  1  0.36888367  0.75764303  0.49918801  1
  O  O238  1  0.86920489  0.25494267  0.00369755  1
  O  O239  1  0.87425688  0.25791065  0.50636178  1
  O  O240  1  0.87427553  0.75623032  0.00781800  1
  O  O241  1  0.88138600  0.76253863  0.49503377  1
  O  O242  1  0.13274002  0.24570793  0.49330724  1
  O  O243  1  0.13125029  0.24482778  0.99420934  1
  O  O244  1  0.12959016  0.74465402  0.49381236  1
  O  O245  1  0.12333682  0.75088673  0.98819944  1
  O  O246  1  0.62750712  0.24234599  0.49455604  1
  O  O247  1  0.63018316  0.24366800  0.99522871  1
  O  O248  1  0.61955439  0.74905545  0.48571244  1
  O  O249  1  0.62552739  0.74359450  0.99476217  1
  O  O250  1  0.49348050  0.24299352  0.13028375  1
  O  O251  1  0.49990644  0.24092782  0.63392070  1
  O  O252  1  0.49666212  0.74173920  0.13450518  1
  O  O253  1  0.49763264  0.74644367  0.63008539  1
  O  O254  1  0.99316108  0.24977047  0.13093195  1
  O  O255  1  0.99483698  0.24690585  0.62877793  1
  O  O256  1  0.98886542  0.74952931  0.13134664  1
  O  O257  1  1.00503549  0.74580602  0.63857714  1
  O  O258  1  0.00557226  0.25688244  0.36869674  1
  O  O259  1  0.00450980  0.25666313  0.86903706  1
  O  O260  1  0.00553009  0.75683698  0.36846051  1
  O  O261  1  0.01199187  0.74462539  0.86194283  1
  O  O262  1  0.50708272  0.24908219  0.36875284  1
  O  O263  1  0.50621439  0.24764656  0.86767082  1
  O  O264  1  0.50866765  0.75322590  0.36837997  1
  O  O265  1  0.50620967  0.75745347  0.87548389  1
  O  O266  1  0.24437950  0.13524783  0.49859527  1
  O  O267  1  0.24020125  0.13153904  0.99113141  1
  O  O268  1  0.24329603  0.63255186  0.49412614  1
  O  O269  1  0.24655479  0.62965994  0.98846821  1
  O  O270  1  0.74425734  0.12443582  0.49464961  1
  O  O271  1  0.74383098  0.12969532  0.99587660  1
  O  O272  1  0.74994084  0.61783669  0.48538158  1
  O  O273  1  0.74299360  0.62584086  0.99414778  1
  O  O274  1  0.25515859  0.36934541  0.00466279  1
  O  O275  1  0.24736820  0.36495505  0.50788606  1
  O  O276  1  0.25762808  0.87566048  0.00476788  1
  O  O277  1  0.25394789  0.87172704  0.50742165  1
  O  O278  1  0.75468020  0.36881735  0.00431578  1
  O  O279  1  0.75748922  0.37492240  0.50765939  1
  O  O280  1  0.75995543  0.87033285  0.00442934  1
  O  O281  1  0.76011876  0.87960827  0.51076059  1
  O  O282  1  0.12240883  0.49397540  0.23822037  1
  O  O283  1  0.12732805  0.49350313  0.74622997  1
  O  O284  1  0.13003356  0.99618103  0.24253046  1
  O  O285  1  0.12846550  0.99016235  0.74786070  1
  O  O286  1  0.63114240  0.49158194  0.24999914  1
  O  O287  1  0.63014562  0.49380963  0.74720508  1
  O  O288  1  0.62927968  0.98840371  0.25173599  1
  O  O289  1  0.63442307  0.99326171  0.74738056  1
  O  O290  1  0.36975819  0.00435733  0.25364886  1
  O  O291  1  0.37273694  -0.00629944  0.76587431  1
  O  O292  1  0.38095718  0.49541486  0.26489123  1
  O  O293  1  0.37110087  0.51051291  0.75325862  1
  O  O294  1  0.87041877  0.00389806  0.25658891  1
  O  O295  1  0.86543624  -0.00095809  0.75776559  1
  O  O296  1  0.86988178  0.50463536  0.25506496  1
  O  O297  1  0.87030406  0.50765410  0.75632891  1
  O  O298  1  0.11993750  0.37165884  0.36871906  1
  O  O299  1  0.11978565  0.37041293  0.87023032  1
  O  O300  1  0.11862482  0.87137134  0.36943076  1
  O  O301  1  0.13378033  0.86641937  0.86291634  1
  O  O302  1  0.62522870  0.36637291  0.36850511  1
  O  O303  1  0.62312203  0.36665020  0.86974815  1
  O  O304  1  0.62239071  0.86727907  0.36872245  1
  O  O305  1  0.61988842  0.87061642  0.87163632  1
  O  O306  1  0.37875026  0.12975104  0.12870505  1
  O  O307  1  0.38941193  0.12393932  0.62096477  1
  O  O308  1  0.38812134  0.62656519  0.11840840  1
  O  O309  1  0.37339947  0.62728630  0.63612746  1
  O  O310  1  0.87655856  0.13026837  0.13038384  1
  O  O311  1  0.88181784  0.13173228  0.62628793  1
  O  O312  1  0.87582293  0.63388377  0.13086304  1
  O  O313  1  0.87225014  0.62050069  0.64013191  1
  O  O314  1  0.25480100  0.25585887  0.11919292  1
  O  O315  1  0.25124713  0.25698131  0.61592670  1
  O  O316  1  0.25040071  0.75933420  0.12237758  1
  O  O317  1  0.25170649  0.76229189  0.61732310  1
  O  O318  1  0.75629207  0.25437796  0.11923108  1
  O  O319  1  0.75622234  0.25622030  0.62574939  1
  O  O320  1  0.76244076  0.74979541  0.12739311  1
  O  O321  1  0.74552794  0.76233780  0.63235589  1
  O  O322  1  0.24489571  0.25234514  0.38337326  1
  O  O323  1  0.24513290  0.24387770  0.87933520  1
  O  O324  1  0.24262898  0.75340366  0.38116263  1
  O  O325  1  0.23845714  0.74199058  0.87519069  1
  O  O326  1  0.74423764  0.24113481  0.37697784  1
  O  O327  1  0.74529571  0.24283325  0.88024213  1
  O  O328  1  0.74041850  0.73883912  0.36726786  1
  O  O329  1  0.74205847  0.74270166  0.87595696  1
  O  O330  1  0.01550506  0.13322468  -0.00031710  1
  O  O331  1  0.00477826  0.12076714  0.50336054  1
  O  O332  1  0.00146077  0.61621863  0.00068763  1
  O  O333  1  0.00908187  0.62031951  0.49985470  1
  O  O334  1  0.50464916  0.11923370  0.00535554  1
  O  O335  1  0.50775419  0.12283342  0.51095421  1
  O  O336  1  0.50408051  0.61740137  0.00683695  1
  O  O337  1  0.50531314  0.61208547  0.50427569  1
  O  O338  1  0.50047664  0.38528791  0.50059595  1
  O  O339  1  0.49544777  0.38311981  1.00174072  1
  O  O340  1  0.49382907  0.87717194  0.49425889  1
  O  O341  1  0.49156264  0.87967928  0.99630239  1
  O  O342  1  0.99601335  0.38066908  0.49265929  1
  O  O343  1  0.99329543  0.37961622  0.99304243  1
  O  O344  1  0.99332053  0.88000369  0.49590447  1
  O  O345  1  0.98460345  0.87370891  1.00305541  1
  O  O346  1  0.49368807  0.49788260  0.38375285  1
  O  O347  1  0.49842822  0.49834409  0.88901233  1
  O  O348  1  0.49352976  0.99224067  0.37572962  1
  O  O349  1  0.49153390  0.99547736  0.88107276  1
  O  O350  1  0.99448415  0.49520522  0.37820588  1
  O  O351  1  0.99459819  0.49453529  0.87926626  1
  O  O352  1  0.99483332  0.99408502  0.37969209  1
  O  O353  1  0.98640286  1.00636072  0.86693550  1
  O  O354  1  0.01406549  0.00225266  0.13140236  1
  O  O355  1  0.00103219  0.00817124  0.61803671  1
  O  O356  1  0.00797505  0.49911920  0.11872901  1
  O  O357  1  0.00361857  0.50416598  0.61430248  1
  O  O358  1  0.50100593  0.00564462  0.11894300  1
  O  O359  1  0.50802680  0.00727689  0.62713947  1
  O  O360  1  0.50147577  0.50715286  0.11671789  1
  O  O361  1  0.50618856  0.49975886  0.61872395  1
  O  O362  1  0.24426445  0.38069819  0.24179664  1
  O  O363  1  0.24393224  0.37456534  0.74078021  1
  O  O364  1  0.24287077  0.88164046  0.24373177  1
  O  O365  1  0.24104965  0.87428338  0.74016003  1
  O  O366  1  0.74624320  0.37887328  0.24498472  1
  O  O367  1  0.74506073  0.38036667  0.74636135  1
  O  O368  1  0.74031342  0.87947013  0.25129165  1
  O  O369  1  0.74668909  0.88250328  0.74374813  1
  O  O370  1  0.25714229  0.11992428  0.25056275  1
  O  O371  1  0.24285417  0.12726858  0.76337748  1
  O  O372  1  0.24771425  0.62079564  0.25497545  1
  O  O373  1  0.25602924  0.62620172  0.75687568  1
  O  O374  1  0.75581594  0.11882310  0.25671800  1
  O  O375  1  0.74988757  0.11386008  0.75557422  1
  O  O376  1  0.75467553  0.61833681  0.25883660  1
  O  O377  1  0.75703200  0.61908193  0.75745201  1
  O  O378  1  0.37466829  0.11810678  0.36736027  1
  O  O379  1  0.36332103  0.11443531  0.88492740  1
  O  O380  1  0.37868957  0.60938816  0.38065029  1
  O  O381  1  0.36423983  0.62601155  0.86764179  1
  O  O382  1  0.87031514  0.11922691  0.36977717  1
  O  O383  1  0.86710585  0.11563926  0.87391509  1
  O  O384  1  0.86780809  0.62026074  0.36923028  1
  O  O385  1  0.86949098  0.61941025  0.86733147  1
  O  O386  1  0.12964706  0.38275593  0.12836363  1
  O  O387  1  0.13437951  0.37454564  0.63080908  1
  O  O388  1  0.12845234  0.88338916  0.12885236  1
  O  O389  1  0.13452630  0.87695932  0.63187018  1
  O  O390  1  0.63304560  0.37368533  0.13251707  1
  O  O391  1  0.63187074  0.37927257  0.63264466  1
  O  O392  1  0.62501559  0.87306940  0.13844347  1
  O  O393  1  0.63443874  0.88101587  0.63042490  1
  O  O394  1  0.12100705  0.25679789  0.25351975  1
  O  O395  1  0.11838948  0.25810004  0.75608524  1
  O  O396  1  0.11837856  0.75809483  0.25380068  1
  O  O397  1  0.11799027  0.75786778  0.75508482  1
  O  O398  1  0.62046956  0.25214562  0.25616604  1
  O  O399  1  0.61763297  0.25430032  0.75620443  1
  O  O400  1  0.61696114  0.75722619  0.25902951  1
  O  O401  1  0.62333227  0.75671280  0.75990274  1
  O  O402  1  0.37967367  0.24540931  0.24466331  1
  O  O403  1  0.38929112  0.25289939  0.75065111  1
  O  O404  1  0.38993556  0.75766989  0.25160950  1
  O  O405  1  0.37605190  0.74021881  0.74947173  1
  O  O406  1  0.87973970  0.24433831  0.24466298  1
  O  O407  1  0.88188287  0.24858984  0.74394117  1
  O  O408  1  0.87927630  0.74698323  0.24298766  1
  O  O409  1  0.88506962  0.74095667  0.75969542  1
  O  O410  1  0.38575039  0.49733244  0.49328097  1
  O  O411  1  0.38449240  0.49352284  0.99961121  1
  O  O412  1  0.37627820  0.99304266  0.49173163  1
  O  O413  1  0.37843479  0.99053138  0.99222691  1
  O  O414  1  0.88184668  0.49476579  0.49323441  1
  O  O415  1  0.87899964  0.49414952  0.99481166  1
  O  O416  1  0.88190473  0.99355617  0.49309761  1
  O  O417  1  0.86884418  0.99182142  0.98962698  1
  O  O418  1  0.13118111  0.01023930  0.00899030  1
  O  O419  1  0.11761643  0.00704221  0.49963016  1
  O  O420  1  0.11799219  0.49860716  0.00984277  1
  O  O421  1  0.12077108  0.50998257  0.49595190  1
  O  O422  1  0.61792281  0.00460420  0.00063156  1
  O  O423  1  0.62391968  0.00545990  0.50748774  1
  O  O424  1  0.61559984  0.50514227  0.00270857  1
  O  O425  1  0.61750955  0.49959221  0.50718747  1
  O  O426  1  0.36955591  0.36914018  0.12002878  1
  O  O427  1  0.36253254  0.37092525  0.62294028  1
  O  O428  1  0.36823764  0.87579573  0.11590463  1
  O  O429  1  0.36553492  0.87602432  0.61999414  1
  O  O430  1  0.86910723  0.36906188  0.11875096  1
  O  O431  1  0.87073548  0.37076423  0.62019254  1
  O  O432  1  0.87279938  0.86696183  0.11863136  1
  O  O433  1  0.86563569  0.87971984  0.61567630  1
  O  O434  1  0.12736883  0.13325435  0.37999014  1
  O  O435  1  0.13237806  0.13070337  0.88149425  1
  O  O436  1  0.12433753  0.63274234  0.38543444  1
  O  O437  1  0.13231002  0.63484346  0.87284936  1
  O  O438  1  0.63018626  0.12823520  0.38091799  1
  O  O439  1  0.63039936  0.12873811  0.88185716  1
  O  O440  1  0.63359703  0.63205011  0.37558537  1
  O  O441  1  0.62954567  0.62995357  0.88098002  1
