# generated using pymatgen
data_V93Zn93O256
_symmetry_space_group_name_H-M   'P 1'
_cell_length_a   17.05190033
_cell_length_b   17.05592688
_cell_length_c   17.05458674
_cell_angle_alpha   89.98901698
_cell_angle_beta   89.95202385
_cell_angle_gamma   90.00067828
_symmetry_Int_Tables_number   1
_chemical_formula_structural   V93Zn93O256
_chemical_formula_sum   'V93 Zn93 O256'
_cell_volume   4960.08536525
_cell_formula_units_Z   1
loop_
 _symmetry_equiv_pos_site_id
 _symmetry_equiv_pos_as_xyz
  1  'x, y, z'
loop_
 _atom_site_type_symbol
 _atom_site_label
 _atom_site_symmetry_multiplicity
 _atom_site_fract_x
 _atom_site_fract_y
 _atom_site_fract_z
 _atom_site_occupancy
  V  V0  1  0.25103338  0.62918686  0.88080141  1
  V  V1  1  0.74893937  -0.00196306  0.74911052  1
  V  V2  1  0.62389773  0.87309835  0.24790031  1
  V  V3  1  0.25028058  0.37703414  0.62514116  1
  V  V4  1  0.37505190  0.50190365  0.87341395  1
  V  V5  1  -0.00010895  0.00109691  0.00110976  1
  V  V6  1  0.12459029  0.25020620  0.87629865  1
  V  V7  1  -0.00024291  0.37568733  0.87498751  1
  V  V8  1  0.12016948  0.25296298  0.37625001  1
  V  V9  1  0.36804198  0.74944133  0.12025113  1
  V  V10  1  0.12471226  0.62437711  0.50052672  1
  V  V11  1  0.63248555  0.24485146  0.37412465  1
  V  V12  1  0.75129813  0.12432653  0.87644566  1
  V  V13  1  0.62426232  0.49709675  0.12692225  1
  V  V14  1  0.87577925  0.00083635  0.87552807  1
  V  V15  1  -0.00158056  0.49273273  0.49379936  1
  V  V16  1  0.13002099  0.75081484  0.88273536  1
  V  V17  1  0.37642791  0.74950505  0.62442478  1
  V  V18  1  0.12373460  0.00111989  0.12605069  1
  V  V19  1  0.00114932  0.62443403  0.62556472  1
  V  V20  1  0.37476359  0.25427524  0.62706394  1
  V  V21  1  0.87225662  0.00256120  0.37750958  1
  V  V22  1  0.87538623  0.50098284  0.87477100  1
  V  V23  1  0.50259908  0.49894848  0.49914970  1
  V  V24  1  0.00099933  0.87559139  0.87483988  1
  V  V25  1  0.87727337  0.74907305  0.62492962  1
  V  V26  1  0.74977650  0.25070096  0.00024704  1
  V  V27  1  0.62567916  0.75004547  0.87378804  1
  V  V28  1  0.25209095  0.00175945  0.74879765  1
  V  V29  1  0.62746320  0.62420495  0.49868911  1
  V  V30  1  -0.00322686  0.12974692  0.62658248  1
  V  V31  1  0.37582058  0.12582575  0.75016751  1
  V  V32  1  0.62560792  0.62440176  -0.00009412  1
  V  V33  1  0.75064185  0.74962493  -0.00010546  1
  V  V34  1  0.50529899  0.25409532  0.24879580  1
  V  V35  1  0.00040795  0.00228290  0.50089175  1
  V  V36  1  0.74879680  0.87480148  0.12513958  1
  V  V37  1  0.24945239  0.74963376  0.49987755  1
  V  V38  1  0.49995661  0.87712248  0.87466254  1
  V  V39  1  0.62386912  0.12426105  -0.00016976  1
  V  V40  1  0.50018652  0.37589861  0.87482800  1
  V  V41  1  0.74404625  0.37484409  0.13167039  1
  V  V42  1  0.37271715  0.12547365  0.24743625  1
  V  V43  1  0.11869927  0.37597735  0.25353646  1
  V  V44  1  0.37534796  0.62508220  0.24908805  1
  V  V45  1  0.49913956  0.62480969  0.12415598  1
  V  V46  1  0.24824796  0.00016224  0.24779368  1
  V  V47  1  -0.00126294  0.74864631  0.25096795  1
  V  V48  1  0.24827420  0.24992540  -0.00057541  1
  V  V49  1  0.74887579  0.00228233  0.25365415  1
  V  V50  1  0.25202161  0.62472742  0.37488543  1
  V  V51  1  0.25013141  0.50093963  0.74991372  1
  V  V52  1  -0.00146673  0.12496295  0.12560190  1
  V  V53  1  0.87467239  0.87494464  0.00036653  1
  V  V54  1  0.74636656  0.49902917  0.25280828  1
  V  V55  1  0.87727359  0.87460352  0.50067658  1
  V  V56  1  0.37457841  0.25091485  0.12437200  1
  V  V57  1  0.12485709  0.75091746  0.37503258  1
  V  V58  1  0.75111008  0.62447021  0.87530396  1
  V  V59  1  0.37485810  0.37533976  0.50009654  1
  V  V60  1  -0.00577833  0.25084631  0.74771654  1
  V  V61  1  0.36813357  0.87126845  -0.00147826  1
  V  V62  1  0.50082924  0.50037711  -0.00116312  1
  V  V63  1  0.62520688  0.25047787  0.87501814  1
  V  V64  1  0.87571682  0.74913730  0.12681195  1
  V  V65  1  0.12545754  0.50000693  0.62573564  1
  V  V66  1  0.25075811  0.87538523  0.62437549  1
  V  V67  1  0.86876772  0.12602419  0.25749241  1
  V  V68  1  0.12600973  0.87538774  0.75005582  1
  V  V69  1  0.74736844  0.24951618  0.52038144  1
  V  V70  1  -0.00271797  0.25236144  0.25308425  1
  V  V71  1  0.49931770  0.87185725  0.37247632  1
  V  V72  1  0.37441906  0.37584741  -0.00038276  1
  V  V73  1  0.24941420  0.12664050  0.37457763  1
  V  V74  1  0.12576193  0.87574088  0.25051772  1
  V  V75  1  0.62971599  0.49343801  0.62351016  1
  V  V76  1  0.49949547  0.12515170  0.12327855  1
  V  V77  1  0.37683922  0.87635820  0.49658532  1
  V  V78  1  0.75238846  0.74623377  0.50014718  1
  V  V79  1  0.50587543  0.37455307  0.37053105  1
  V  V80  1  0.87434567  0.37573569  0.00116395  1
  V  V81  1  0.50058159  0.74906637  0.74761195  1
  V  V82  1  0.87161638  0.36922220  0.50825434  1
  V  V83  1  0.37548947  0.50001158  0.37386870  1
  V  V84  1  0.00095471  0.74972704  0.74954345  1
  V  V85  1  0.00340366  0.50315159  0.00184601  1
  V  V86  1  0.62693287  0.37502551  0.74883327  1
  V  V87  1  0.87312076  0.24983280  0.12690143  1
  V  V88  1  0.62392831  0.00012509  0.12399883  1
  V  V89  1  0.50004822  0.24989271  0.74925113  1
  V  V90  1  0.24728582  0.37725925  0.12711897  1
  V  V91  1  0.75140238  0.49640438  0.74724343  1
  V  V92  1  0.12537948  0.00136351  0.62494994  1
  Zn  Zn93  1  0.49786718  0.00002948  -0.00089857  1
  Zn  Zn94  1  0.37559495  -0.00108569  0.37007031  1
  Zn  Zn95  1  0.12369877  0.50385016  0.12718019  1
  Zn  Zn96  1  0.87346910  0.12828632  0.74960440  1
  Zn  Zn97  1  0.24844799  0.25156564  0.50140229  1
  Zn  Zn98  1  0.12907764  0.62961731  0.00476956  1
  Zn  Zn99  1  0.87583024  0.62477247  0.74975027  1
  Zn  Zn100  1  0.37482957  0.62502447  0.74758229  1
  Zn  Zn101  1  0.12396432  0.37531455  0.74862256  1
  Zn  Zn102  1  0.37392508  0.00064588  0.87668644  1
  Zn  Zn103  1  0.00081247  0.87725681  0.37612929  1
  Zn  Zn104  1  0.00192459  0.62538054  0.12460023  1
  Zn  Zn105  1  0.74949234  0.87561328  0.62566928  1
  Zn  Zn106  1  0.24764010  0.50044999  0.25079048  1
  Zn  Zn107  1  0.62690231  0.74536002  0.37003597  1
  Zn  Zn108  1  0.87989607  0.49434469  0.37161750  1
  Zn  Zn109  1  0.68791100  0.08409072  0.44185690  1
  Zn  Zn110  1  0.62565916  0.00160670  0.61586428  1
  Zn  Zn111  1  0.49953492  0.62383533  0.62422029  1
  Zn  Zn112  1  0.24737596  0.87281004  0.11991178  1
  Zn  Zn113  1  0.51186244  0.00521528  0.49530648  1
  Zn  Zn114  1  0.62621805  0.87457613  0.74431630  1
  Zn  Zn115  1  0.24895206  0.12429768  0.87685598  1
  Zn  Zn116  1  0.12592338  0.12454609  0.00127677  1
  Zn  Zn117  1  0.50779066  0.12498416  0.61475793  1
  Zn  Zn118  1  0.50185700  0.74830910  0.24719859  1
  Zn  Zn119  1  0.87532011  0.62106821  0.25161378  1
  Zn  Zn120  1  0.75427460  0.62164993  0.37341052  1
  Zn  Zn121  1  0.12754207  0.12668606  0.50211426  1
  Zn  Zn122  1  0.18497813  0.18895702  0.18821177  1
  Zn  Zn123  1  0.18621519  0.18853734  0.68872098  1
  Zn  Zn124  1  0.18696579  0.68628236  0.18754097  1
  Zn  Zn125  1  0.18852514  0.68735970  0.69065661  1
  Zn  Zn126  1  0.68631120  0.18680966  0.18816789  1
  Zn  Zn127  1  0.68318664  0.17958315  0.69076947  1
  Zn  Zn128  1  0.68798500  0.68459984  0.18672750  1
  Zn  Zn129  1  0.68757452  0.68355002  0.68578765  1
  Zn  Zn130  1  0.31215484  0.31246360  0.31210305  1
  Zn  Zn131  1  0.31082359  0.31479633  0.81232342  1
  Zn  Zn132  1  0.31253252  0.81024975  0.30789674  1
  Zn  Zn133  1  0.31412204  0.81198951  0.81169070  1
  Zn  Zn134  1  0.81744106  0.31911411  0.31956199  1
  Zn  Zn135  1  0.81274054  0.31464706  0.81271457  1
  Zn  Zn136  1  0.81358734  0.81396871  0.31506033  1
  Zn  Zn137  1  0.81443043  0.81306894  0.81170209  1
  Zn  Zn138  1  0.18778483  0.43833651  0.43808875  1
  Zn  Zn139  1  0.18731514  0.43806576  0.93606935  1
  Zn  Zn140  1  0.18789461  0.93948572  0.43715572  1
  Zn  Zn141  1  0.18659969  0.93935610  0.93707257  1
  Zn  Zn142  1  0.69067473  0.42890745  0.43847026  1
  Zn  Zn143  1  0.68861563  0.43747844  0.93801073  1
  Zn  Zn144  1  0.68871962  0.92246513  0.43566936  1
  Zn  Zn145  1  0.68615275  0.93754506  0.93580676  1
  Zn  Zn146  1  0.31224270  0.06040534  0.05994000  1
  Zn  Zn147  1  0.34718277  0.08342343  0.54111488  1
  Zn  Zn148  1  0.31296392  0.56175831  0.06192160  1
  Zn  Zn149  1  0.31446650  0.56279142  0.56197847  1
  Zn  Zn150  1  0.81197502  0.06235353  0.06490667  1
  Zn  Zn151  1  0.81623860  0.06564202  0.56676624  1
  Zn  Zn152  1  0.81513703  0.56305373  0.06581136  1
  Zn  Zn153  1  0.81641221  0.56067291  0.56350332  1
  Zn  Zn154  1  0.43612938  0.43895206  0.18794342  1
  Zn  Zn155  1  0.43981338  0.43913737  0.68724325  1
  Zn  Zn156  1  0.43602252  0.93681314  0.18555142  1
  Zn  Zn157  1  0.44015089  0.93971375  0.68253732  1
  Zn  Zn158  1  0.93444249  0.43757593  0.18649143  1
  Zn  Zn159  1  0.93709901  0.43549921  0.68465073  1
  Zn  Zn160  1  0.93694477  0.93682813  0.18966751  1
  Zn  Zn161  1  0.93615395  0.93869315  0.68714974  1
  Zn  Zn162  1  0.05991671  0.06510358  0.31337017  1
  Zn  Zn163  1  0.06326729  0.06500531  0.81211949  1
  Zn  Zn164  1  0.06490817  0.56406704  0.31262063  1
  Zn  Zn165  1  0.06524634  0.56468814  0.81340412  1
  Zn  Zn166  1  0.55767104  0.06131797  0.30957665  1
  Zn  Zn167  1  0.56358890  0.06312844  0.80847861  1
  Zn  Zn168  1  0.56452090  0.56157485  0.31071675  1
  Zn  Zn169  1  0.56413033  0.56378628  0.81121841  1
  Zn  Zn170  1  0.43772958  0.19250235  0.43389560  1
  Zn  Zn171  1  0.43613880  0.18798581  0.93591776  1
  Zn  Zn172  1  0.44000921  0.68802037  0.43668330  1
  Zn  Zn173  1  0.43687172  0.68877458  0.93678883  1
  Zn  Zn174  1  0.93553595  0.18980494  0.44158863  1
  Zn  Zn175  1  0.93746127  0.18768661  0.93807677  1
  Zn  Zn176  1  0.93667853  0.68076607  0.43463579  1
  Zn  Zn177  1  0.93892840  0.68741962  0.93640879  1
  Zn  Zn178  1  0.06091344  0.31348593  0.06432652  1
  Zn  Zn179  1  0.06248068  0.31411398  0.56205514  1
  Zn  Zn180  1  0.06127909  0.81542855  0.06507099  1
  Zn  Zn181  1  0.06256859  0.81394817  0.56220078  1
  Zn  Zn182  1  0.56247123  0.31225000  0.06091205  1
  Zn  Zn183  1  0.56367264  0.30992046  0.56040722  1
  Zn  Zn184  1  0.55848909  0.81131502  0.06064420  1
  Zn  Zn185  1  0.56556336  0.81627248  0.56330193  1
  O  O186  1  0.11578064  0.12000397  0.12556455  1
  O  O187  1  0.11744283  0.11908374  0.62447809  1
  O  O188  1  0.12223222  0.62182778  0.12029163  1
  O  O189  1  0.12174557  0.62041068  0.61922351  1
  O  O190  1  0.61928014  0.12035138  0.11916613  1
  O  O191  1  0.61958709  0.11666624  0.62772302  1
  O  O192  1  0.61916060  0.61817094  0.11741929  1
  O  O193  1  0.62314746  0.61375114  0.61431896  1
  O  O194  1  0.38353011  0.37909941  0.37938141  1
  O  O195  1  0.38044898  0.38121847  0.88064538  1
  O  O196  1  0.38217562  0.87134046  0.37953675  1
  O  O197  1  0.38372433  0.87316804  0.88154949  1
  O  O198  1  0.87320255  0.38116693  0.39408079  1
  O  O199  1  0.88010390  0.38162103  0.88213807  1
  O  O200  1  0.87758374  0.88388809  0.38301105  1
  O  O201  1  0.88196216  0.87968613  0.88174820  1
  O  O202  1  0.24948197  0.01097591  0.36674567  1
  O  O203  1  0.25001456  0.00054855  0.86017220  1
  O  O204  1  0.25779181  0.50709156  0.37526011  1
  O  O205  1  0.25530229  0.50668235  0.86966168  1
  O  O206  1  0.75470635  0.00135709  0.37050121  1
  O  O207  1  0.75659778  0.00457409  0.87089279  1
  O  O208  1  0.74303113  0.49472201  0.36013650  1
  O  O209  1  0.75476563  0.50522501  0.86860489  1
  O  O210  1  0.24898289  0.48684798  0.12498086  1
  O  O211  1  0.24549078  0.49712834  0.62971372  1
  O  O212  1  0.24146842  1.00032783  0.13113669  1
  O  O213  1  0.24463936  0.99352339  0.63742930  1
  O  O214  1  0.74512833  0.49202249  0.13011370  1
  O  O215  1  0.74083659  0.50646745  0.63612590  1
  O  O216  1  0.74385844  0.99365040  0.13121080  1
  O  O217  1  0.75481509  1.00040806  0.63919692  1
  O  O218  1  0.01089544  0.36888359  0.24348338  1
  O  O219  1  0.00113319  0.36788713  0.75608717  1
  O  O220  1  0.00597581  0.86543874  0.25245117  1
  O  O221  1  0.00657887  0.87087452  0.75548181  1
  O  O222  1  0.49226428  0.36477041  0.25823087  1
  O  O223  1  0.50643717  0.37048949  0.75657745  1
  O  O224  1  0.50461814  0.87378406  0.25637833  1
  O  O225  1  0.49955114  0.86463798  0.75794850  1
  O  O226  1  0.49225604  0.13410035  0.24262965  1
  O  O227  1  0.48923581  0.13290542  0.75302766  1
  O  O228  1  0.49359736  0.62382813  0.24198513  1
  O  O229  1  0.49923953  0.63770610  0.74928935  1
  O  O230  1  0.98908213  0.13086180  0.24397207  1
  O  O231  1  0.99995469  0.13370891  0.74435156  1
  O  O232  1  1.00094683  0.63833617  0.24892675  1
  O  O233  1  1.00044275  0.63151239  0.74362671  1
  O  O234  1  0.36966393  0.25714950  0.00470809  1
  O  O235  1  0.37214831  0.25976519  0.50779664  1
  O  O236  1  0.38045038  0.75895011  0.00841211  1
  O  O237  1  0.36975390  0.75751191  0.50340889  1
  O  O238  1  0.86894285  0.25521535  0.00648306  1
  O  O239  1  0.86398999  0.26094573  0.49769274  1
  O  O240  1  0.87054385  0.75591950  0.00486218  1
  O  O241  1  0.87066379  0.75201565  0.50470165  1
  O  O242  1  0.12768088  0.24935870  0.48930083  1
  O  O243  1  0.12841899  0.25074985  0.99230182  1
  O  O244  1  0.12996895  0.74465470  0.49540891  1
  O  O245  1  0.11989937  0.75302056  0.98594496  1
  O  O246  1  0.64133652  0.25452868  0.49319819  1
  O  O247  1  0.63020445  0.24451102  0.99420665  1
  O  O248  1  0.63490671  0.73943119  0.50194919  1
  O  O249  1  0.63088239  0.74387050  0.99476802  1
  O  O250  1  0.49529894  0.24725376  0.13097851  1
  O  O251  1  0.49266038  0.25148832  0.63233028  1
  O  O252  1  0.49027533  0.74160592  0.12454031  1
  O  O253  1  0.49635441  0.75057609  0.63331134  1
  O  O254  1  0.99150042  0.24600037  0.13171068  1
  O  O255  1  1.01107027  0.24191541  0.63724581  1
  O  O256  1  0.99411573  0.75182474  0.13500141  1
  O  O257  1  0.99755678  0.74445199  0.62988656  1
  O  O258  1  0.01290709  0.24200513  0.36908633  1
  O  O259  1  0.00677570  0.25535609  0.87060251  1
  O  O260  1  0.00613031  0.75095429  0.36710252  1
  O  O261  1  0.00826010  0.75611966  0.86938303  1
  O  O262  1  0.50527852  0.25719622  0.36707025  1
  O  O263  1  0.50564511  0.25711596  0.87036998  1
  O  O264  1  0.50275704  0.75957563  0.37061265  1
  O  O265  1  0.50484140  0.75669911  0.86707129  1
  O  O266  1  0.25302529  0.12825153  0.48636713  1
  O  O267  1  0.24771754  0.13395585  0.99717534  1
  O  O268  1  0.24494041  0.63048440  0.49498966  1
  O  O269  1  0.24864395  0.61865273  0.98477794  1
  O  O270  1  0.76344411  0.14457184  0.50025629  1
  O  O271  1  0.74419906  0.13108276  0.99687571  1
  O  O272  1  0.74354023  0.62922832  0.49987887  1
  O  O273  1  0.74537668  0.62968974  0.99566316  1
  O  O274  1  0.25445437  0.37076859  0.00803558  1
  O  O275  1  0.25762382  0.37611497  0.50694494  1
  O  O276  1  0.26354074  0.87963223  -0.00088834  1
  O  O277  1  0.25577491  0.86759117  0.50364137  1
  O  O278  1  0.75531114  0.37015996  0.00764629  1
  O  O279  1  0.75885185  0.36216012  0.50218622  1
  O  O280  1  0.75480161  0.86921852  0.00466107  1
  O  O281  1  0.75923424  0.86123541  0.50244581  1
  O  O282  1  0.12649137  0.48926655  0.24924260  1
  O  O283  1  0.13137698  0.49882699  0.74367775  1
  O  O284  1  0.12732953  0.99569219  0.24547329  1
  O  O285  1  0.13215385  0.99504761  0.74623363  1
  O  O286  1  0.63359674  0.50298011  0.23883477  1
  O  O287  1  0.63140000  0.49601658  0.74293792  1
  O  O288  1  0.62980599  0.99475437  0.24375705  1
  O  O289  1  0.64104143  0.99630901  0.75666737  1
  O  O290  1  0.36698627  0.00747747  0.24822464  1
  O  O291  1  0.36734470  0.00792426  0.74922528  1
  O  O292  1  0.37234932  0.50651990  0.25632145  1
  O  O293  1  0.37030939  0.50214597  0.75638795  1
  O  O294  1  0.86951214  0.00726980  0.25583943  1
  O  O295  1  0.86784752  0.00101587  0.75904963  1
  O  O296  1  0.86262975  0.49877404  0.25045100  1
  O  O297  1  0.86665368  0.49967682  0.75511272  1
  O  O298  1  0.13419938  0.36469833  0.36379197  1
  O  O299  1  0.11828850  0.36578297  0.87438061  1
  O  O300  1  0.12416669  0.86855041  0.36917027  1
  O  O301  1  0.12108878  0.86897387  0.86962158  1
  O  O302  1  0.60976239  0.36556021  0.37959005  1
  O  O303  1  0.61959677  0.37036667  0.87079678  1
  O  O304  1  0.61535220  0.86894273  0.36615516  1
  O  O305  1  0.61518217  0.86721849  0.87507618  1
  O  O306  1  0.37940289  0.13234375  0.12771260  1
  O  O307  1  0.37195163  0.13574695  0.64146359  1
  O  O308  1  0.37902306  0.63032304  0.12748819  1
  O  O309  1  0.37928142  0.63351980  0.62552411  1
  O  O310  1  0.87868658  0.13043176  0.13416748  1
  O  O311  1  0.89313094  0.12302441  0.63081935  1
  O  O312  1  0.87895412  0.63466868  0.12912150  1
  O  O313  1  0.88369207  0.63107447  0.62732796  1
  O  O314  1  0.25419133  0.25899247  0.12085344  1
  O  O315  1  0.25571525  0.25893909  0.62603021  1
  O  O316  1  0.26371775  0.75120869  0.12786924  1
  O  O317  1  0.25473848  0.75571031  0.62014631  1
  O  O318  1  0.75248021  0.25689623  0.12049056  1
  O  O319  1  0.74422783  0.24966301  0.61836900  1
  O  O320  1  0.75504580  0.75561231  0.11882557  1
  O  O321  1  0.75790075  0.74613154  0.61486585  1
  O  O322  1  0.24049656  0.24155921  0.37225077  1
  O  O323  1  0.23965705  0.25318751  0.88057676  1
  O  O324  1  0.24511556  0.74410388  0.37994205  1
  O  O325  1  0.24116787  0.74164980  0.86772450  1
  O  O326  1  0.73305203  0.25662430  0.36806755  1
  O  O327  1  0.74501853  0.24582016  0.88083109  1
  O  O328  1  0.74974251  0.74752950  0.38872433  1
  O  O329  1  0.74630382  0.74478327  0.88041411  1
  O  O330  1  -0.00072141  0.11844341  0.00819398  1
  O  O331  1  0.00156985  0.12122403  0.51006176  1
  O  O332  1  0.00246178  0.61412571  -0.00074301  1
  O  O333  1  0.00650216  0.61705747  0.50699000  1
  O  O334  1  0.50551621  0.12552398  0.00528273  1
  O  O335  1  0.46052418  0.11165425  0.50682481  1
  O  O336  1  0.50569272  0.61892726  0.00326455  1
  O  O337  1  0.51112805  0.61809333  0.49889807  1
  O  O338  1  0.49492925  0.37924831  0.49054062  1
  O  O339  1  0.49440864  0.38046433  0.99461738  1
  O  O340  1  0.49143233  0.87169539  0.48899341  1
  O  O341  1  0.49169750  0.87568141  0.98913682  1
  O  O342  1  0.98893490  0.38260415  0.50542016  1
  O  O343  1  0.99333923  0.38227668  0.99589023  1
  O  O344  1  0.99478293  0.88330991  0.49939490  1
  O  O345  1  0.99388340  0.88145625  0.99468261  1
  O  O346  1  0.49677361  0.49138549  0.37792363  1
  O  O347  1  0.49616724  0.49559418  0.87923938  1
  O  O348  1  0.49574242  0.98581575  0.37463547  1
  O  O349  1  0.49899495  0.98699801  0.87222248  1
  O  O350  1  1.00413033  0.50510904  0.39128963  1
  O  O351  1  0.99551238  0.49565763  0.88133457  1
  O  O352  1  0.99225577  1.00110062  0.38288192  1
  O  O353  1  0.99674733  0.99493542  0.88024020  1
  O  O354  1  0.00346676  0.00443447  0.12088579  1
  O  O355  1  0.00661648  0.00813447  0.62212672  1
  O  O356  1  -0.00050394  0.50021210  0.11330972  1
  O  O357  1  0.00653544  0.50527649  0.61765444  1
  O  O358  1  0.50651686  0.00781858  0.12440256  1
  O  O359  1  0.50342116  0.00178058  0.61556910  1
  O  O360  1  0.50344249  0.50383453  0.11795734  1
  O  O361  1  0.51091016  0.50155402  0.61808986  1
  O  O362  1  0.24180438  0.37424450  0.24077765  1
  O  O363  1  0.24851933  0.38375899  0.74337678  1
  O  O364  1  0.24339482  0.88209171  0.24762947  1
  O  O365  1  0.24675209  0.88186322  0.74475592  1
  O  O366  1  0.75458099  0.38080448  0.23647797  1
  O  O367  1  0.74285375  0.38853742  0.75817617  1
  O  O368  1  0.74454915  0.88098722  0.24471692  1
  O  O369  1  0.75029629  0.88417167  0.74974723  1
  O  O370  1  0.25298408  0.12157089  0.25532770  1
  O  O371  1  0.25661470  0.11755547  0.75195883  1
  O  O372  1  0.25664850  0.62288584  0.25735600  1
  O  O373  1  0.25194571  0.61880110  0.76067584  1
  O  O374  1  0.76114936  0.11871270  0.24294929  1
  O  O375  1  0.75411462  0.11721027  0.75968394  1
  O  O376  1  0.75110398  0.61292802  0.25042501  1
  O  O377  1  0.75018078  0.61343655  0.75709057  1
  O  O378  1  0.36368012  0.12652944  0.36478699  1
  O  O379  1  0.37115353  0.12426703  0.86327445  1
  O  O380  1  0.37177491  0.62026656  0.37018358  1
  O  O381  1  0.36772148  0.62058319  0.87314257  1
  O  O382  1  0.87960597  0.12194778  0.36265921  1
  O  O383  1  0.86862852  0.11821465  0.87657851  1
  O  O384  1  0.87094487  0.61386983  0.37067545  1
  O  O385  1  0.86868770  0.61878542  0.87302623  1
  O  O386  1  0.13329857  0.37358800  0.13478466  1
  O  O387  1  0.13233719  0.38292287  0.62572485  1
  O  O388  1  0.12708718  0.88222522  0.13167799  1
  O  O389  1  0.13109902  0.88028960  0.63087092  1
  O  O390  1  0.63620764  0.38069652  0.11655553  1
  O  O391  1  0.61993169  0.38703535  0.63080537  1
  O  O392  1  0.62903423  0.87974219  0.12749035  1
  O  O393  1  0.63223122  0.88169526  0.62731683  1
  O  O394  1  0.11798730  0.25721386  0.25663189  1
  O  O395  1  0.11646663  0.25241044  0.76142970  1
  O  O396  1  0.11795447  0.75545062  0.25502164  1
  O  O397  1  0.12029303  0.75691673  0.75816334  1
  O  O398  1  0.61035617  0.24491047  0.25484571  1
  O  O399  1  0.62038459  0.25606904  0.75703043  1
  O  O400  1  0.62359698  0.75663624  0.24921286  1
  O  O401  1  0.61754942  0.74953508  0.75489278  1
  O  O402  1  0.38334695  0.24561180  0.24369944  1
  O  O403  1  0.37984057  0.24587210  0.74780818  1
  O  O404  1  0.37847695  0.74283154  0.23905795  1
  O  O405  1  0.38474400  0.74969713  0.74297668  1
  O  O406  1  0.87692055  0.24434393  0.24748773  1
  O  O407  1  0.88988919  0.24921106  0.75860000  1
  O  O408  1  0.88415187  0.75214694  0.24588994  1
  O  O409  1  0.88313226  0.74838209  0.74411583  1
  O  O410  1  0.38301104  0.49556464  0.49358754  1
  O  O411  1  0.38179462  0.49450326  0.99366851  1
  O  O412  1  0.36695055  0.97951508  0.49295733  1
  O  O413  1  0.37916881  0.98993693  0.99637090  1
  O  O414  1  0.88226121  0.49064289  0.50077100  1
  O  O415  1  0.88241423  0.49550137  0.99487119  1
  O  O416  1  0.87973827  0.99551069  0.49650332  1
  O  O417  1  0.87939030  0.99392291  0.99619813  1
  O  O418  1  0.11755092  0.00126596  0.00668636  1
  O  O419  1  0.11958356  0.00260584  0.50709657  1
  O  O420  1  0.11255272  0.49847615  0.00047848  1
  O  O421  1  0.11862459  0.50419159  0.50570744  1
  O  O422  1  0.62314597  0.00685977  0.00572754  1
  O  O423  1  0.62992844  0.00042762  0.49416204  1
  O  O424  1  0.61994380  0.50512657  0.00482765  1
  O  O425  1  0.62457864  0.50334178  0.50604575  1
  O  O426  1  0.36676148  0.37064133  0.12009993  1
  O  O427  1  0.37048067  0.37341625  0.62025479  1
  O  O428  1  0.37506842  0.86644294  0.11574776  1
  O  O429  1  0.37025853  0.86853880  0.61537606  1
  O  O430  1  0.86448480  0.36821140  0.11966393  1
  O  O431  1  0.87422341  0.37825888  0.60938046  1
  O  O432  1  0.86830327  0.87031346  0.11984360  1
  O  O433  1  0.87496241  0.86663573  0.61814710  1
  O  O434  1  0.13420656  0.13405739  0.37433029  1
  O  O435  1  0.12566635  0.13805008  0.87851509  1
  O  O436  1  0.13220641  0.63125193  0.38144584  1
  O  O437  1  0.13341303  0.63492205  0.87688463  1
  O  O438  1  0.61541903  0.13725870  0.37357659  1
  O  O439  1  0.63047682  0.13142578  0.88019296  1
  O  O440  1  0.62842891  0.62436181  0.38739689  1
  O  O441  1  0.63109260  0.62986656  0.88111110  1
