# generated using pymatgen
data_V93Zn93O256
_symmetry_space_group_name_H-M   'P 1'
_cell_length_a   17.05199249
_cell_length_b   17.06404575
_cell_length_c   17.05396144
_cell_angle_alpha   89.95034317
_cell_angle_beta   90.04640840
_cell_angle_gamma   90.00554920
_symmetry_Int_Tables_number   1
_chemical_formula_structural   V93Zn93O256
_chemical_formula_sum   'V93 Zn93 O256'
_cell_volume   4962.28962943
_cell_formula_units_Z   1
loop_
 _symmetry_equiv_pos_site_id
 _symmetry_equiv_pos_as_xyz
  1  'x, y, z'
loop_
 _atom_site_type_symbol
 _atom_site_label
 _atom_site_symmetry_multiplicity
 _atom_site_fract_x
 _atom_site_fract_y
 _atom_site_fract_z
 _atom_site_occupancy
  V  V0  1  0.75054399  0.87277948  0.62605264  1
  V  V1  1  0.00021509  0.12506316  0.62616535  1
  V  V2  1  0.12563919  0.12580596  -0.00057540  1
  V  V3  1  0.12365356  0.50221948  0.62556878  1
  V  V4  1  0.37612412  0.87461739  0.50119575  1
  V  V5  1  0.12124221  0.62537662  0.50554667  1
  V  V6  1  0.62512898  0.62883361  -0.00367344  1
  V  V7  1  0.50000976  0.74990078  0.24936471  1
  V  V8  1  0.62079787  0.12519833  0.00215003  1
  V  V9  1  0.62525709  0.25155996  0.87387815  1
  V  V10  1  0.12503853  0.62681553  -0.00003256  1
  V  V11  1  0.11902696  0.75050817  0.37470177  1
  V  V12  1  -0.00034945  -0.00059263  0.50038393  1
  V  V13  1  0.62525225  0.87550089  0.24877423  1
  V  V14  1  0.12555240  -0.00045668  0.12577112  1
  V  V15  1  0.37843628  0.74986787  0.62738415  1
  V  V16  1  0.37273554  0.75129292  0.12245581  1
  V  V17  1  0.75095614  0.25148208  -0.00101466  1
  V  V18  1  0.24963334  -0.00023000  0.24969564  1
  V  V19  1  -0.01109510  0.74326005  0.74123622  1
  V  V20  1  0.74952565  0.12588197  0.37366947  1
  V  V21  1  0.25022919  0.12485251  0.37548012  1
  V  V22  1  0.49964736  0.12414464  0.62579999  1
  V  V23  1  0.37532392  0.12604927  0.24911503  1
  V  V24  1  0.25100004  -0.00029523  0.75117105  1
  V  V25  1  0.87485012  -0.00102614  0.87498289  1
  V  V26  1  -0.00052447  0.12485646  0.12508199  1
  V  V27  1  0.24970001  0.25101803  0.50072970  1
  V  V28  1  0.74855145  0.37159227  0.62476578  1
  V  V29  1  0.25296803  0.87517269  0.62669182  1
  V  V30  1  0.37572794  0.24962420  0.62498786  1
  V  V31  1  0.87201476  0.50514011  0.37107213  1
  V  V32  1  0.49653661  0.37925189  0.87321506  1
  V  V33  1  0.25303074  0.50062747  0.75195579  1
  V  V34  1  0.25007269  0.87480364  0.12378310  1
  V  V35  1  0.49586980  0.50000846  0.49695849  1
  V  V36  1  0.00060062  0.25026412  0.74978157  1
  V  V37  1  0.74771066  0.87550455  0.12559669  1
  V  V38  1  0.87511066  0.50134287  0.87317611  1
  V  V39  1  0.62414136  0.37460512  0.74993251  1
  V  V40  1  0.51119060  0.86846527  0.86966576  1
  V  V41  1  0.37484211  -0.00019366  0.37510002  1
  V  V42  1  0.37772513  0.62303028  0.75406405  1
  V  V43  1  0.74813685  0.37721731  0.12581365  1
  V  V44  1  0.25038613  0.37537782  0.62564247  1
  V  V45  1  0.25472097  0.62245678  0.87623814  1
  V  V46  1  0.50029245  0.62560359  0.12368385  1
  V  V47  1  0.49721040  0.50151955  -0.00279800  1
  V  V48  1  0.49948676  0.87509632  0.37444429  1
  V  V49  1  0.62411472  0.49766283  0.62269585  1
  V  V50  1  0.25094926  0.12544282  0.87627024  1
  V  V51  1  0.49914255  0.25079001  0.24996206  1
  V  V52  1  0.49452758  0.38010068  0.37381486  1
  V  V53  1  0.25532366  0.62135589  0.37735322  1
  V  V54  1  0.74999013  0.62662470  0.87166531  1
  V  V55  1  0.37513646  0.12484401  0.75035032  1
  V  V56  1  0.12464962  0.25041055  0.37496021  1
  V  V57  1  0.50090253  0.62515562  0.62542916  1
  V  V58  1  0.12535475  0.00001513  0.62568418  1
  V  V59  1  0.74717106  -0.00420162  0.74989740  1
  V  V60  1  0.12501182  0.87086391  0.75223666  1
  V  V61  1  0.74876343  0.12497098  0.87455983  1
  V  V62  1  0.00129464  0.37506358  0.87428371  1
  V  V63  1  0.87501201  0.37323327  0.49840929  1
  V  V64  1  0.37508306  0.25099706  0.12467087  1
  V  V65  1  0.75131597  0.49852785  0.74945363  1
  V  V66  1  0.24996025  0.37668735  0.12504738  1
  V  V67  1  0.62393193  0.62470434  0.49731247  1
  V  V68  1  0.74938879  0.24811331  0.49904544  1
  V  V69  1  0.87500534  0.12467047  0.24972036  1
  V  V70  1  0.87523772  0.37491976  -0.00073319  1
  V  V71  1  0.00160803  0.50296293  0.00137675  1
  V  V72  1  0.87496827  0.87440068  -0.00046507  1
  V  V73  1  0.37327627  0.37875749  -0.00387369  1
  V  V74  1  0.50030733  0.00000373  0.50093502  1
  V  V75  1  -0.00044219  -0.00013978  0.00014439  1
  V  V76  1  0.74841925  0.75038566  -0.00563716  1
  V  V77  1  0.62391248  0.25010462  0.37452790  1
  V  V78  1  0.62456167  0.75038935  0.37520250  1
  V  V79  1  0.25361526  0.49990547  0.25424216  1
  V  V80  1  0.25177666  0.74947107  0.50072150  1
  V  V81  1  0.62476097  -0.00308960  0.62777197  1
  V  V82  1  0.37481791  0.62319964  0.25202296  1
  V  V83  1  0.75323777  0.74890323  0.50093392  1
  V  V84  1  0.87408341  0.00058981  0.37528832  1
  V  V85  1  0.87602363  0.87214105  0.50204139  1
  V  V86  1  0.12559419  0.37581187  0.75058929  1
  V  V87  1  0.37426969  0.37922255  0.49862289  1
  V  V88  1  0.87511928  0.24825497  0.62493750  1
  V  V89  1  0.12556585  0.12491114  0.50074701  1
  V  V90  1  0.12586905  0.37529389  0.25043355  1
  V  V91  1  -0.00152641  0.50143836  0.50448462  1
  V  V92  1  0.00123215  0.24946642  0.24971726  1
  Zn  Zn93  1  0.37973226  -0.00403144  0.87636263  1
  Zn  Zn94  1  0.12410864  0.50204444  0.12860544  1
  Zn  Zn95  1  0.87552117  0.12402419  0.74940885  1
  Zn  Zn96  1  0.00070901  0.87581282  0.37253993  1
  Zn  Zn97  1  0.74852307  0.00127295  0.24940548  1
  Zn  Zn98  1  0.62498147  0.50076310  0.12723866  1
  Zn  Zn99  1  0.51926573  0.75035906  0.75087105  1
  Zn  Zn100  1  0.87830893  0.74653463  0.12657160  1
  Zn  Zn101  1  0.88015120  0.62084549  0.73218159  1
  Zn  Zn102  1  0.50023620  0.24952694  0.74925753  1
  Zn  Zn103  1  0.49846013  0.12303683  0.12405007  1
  Zn  Zn104  1  -0.00072825  0.37551781  0.37387047  1
  Zn  Zn105  1  0.62475240  0.12452928  0.49938376  1
  Zn  Zn106  1  0.74715493  0.50302047  0.24805469  1
  Zn  Zn107  1  0.24852053  0.25203441  -0.00054474  1
  Zn  Zn108  1  0.24848951  0.75152163  -0.00343326  1
  Zn  Zn109  1  0.62448899  0.37744678  0.24925166  1
  Zn  Zn110  1  0.49833565  -0.00392693  0.00063558  1
  Zn  Zn111  1  -0.00073653  0.62780857  0.13030258  1
  Zn  Zn112  1  0.74803687  0.62644496  0.36977470  1
  Zn  Zn113  1  0.87532710  0.63029978  0.24660659  1
  Zn  Zn114  1  0.62146147  0.00243655  0.12721703  1
  Zn  Zn115  1  0.87523530  0.25005609  0.12523762  1
  Zn  Zn116  1  0.12324835  0.74871553  0.87337884  1
  Zn  Zn117  1  0.12212632  0.87298469  0.25117153  1
  Zn  Zn118  1  -0.00030852  0.87218694  0.87337678  1
  Zn  Zn119  1  0.37743518  0.87746470  -0.00468720  1
  Zn  Zn120  1  0.12479348  0.25064230  0.87618490  1
  Zn  Zn121  1  -0.00218155  0.75030350  0.24730554  1
  Zn  Zn122  1  0.18851988  0.18833142  0.18600715  1
  Zn  Zn123  1  0.18723560  0.18845463  0.68923178  1
  Zn  Zn124  1  0.18490816  0.68676755  0.18841530  1
  Zn  Zn125  1  0.19018792  0.68856015  0.68830352  1
  Zn  Zn126  1  0.68756622  0.19203260  0.18759756  1
  Zn  Zn127  1  0.68633059  0.18423217  0.68835778  1
  Zn  Zn128  1  0.69078453  0.68657067  0.18611201  1
  Zn  Zn129  1  0.69455900  0.68080982  0.68083542  1
  Zn  Zn130  1  0.31329291  0.31230769  0.31292812  1
  Zn  Zn131  1  0.31281839  0.31029824  0.81206002  1
  Zn  Zn132  1  0.30987417  0.81064019  0.31183864  1
  Zn  Zn133  1  0.31749459  0.80889135  0.81513800  1
  Zn  Zn134  1  0.81402519  0.31351516  0.31149331  1
  Zn  Zn135  1  0.81435191  0.31246744  0.81214571  1
  Zn  Zn136  1  0.81543319  0.81150316  0.31377124  1
  Zn  Zn137  1  0.68847400  0.81157936  0.81012242  1
  Zn  Zn138  1  0.18624482  0.43792929  0.43704125  1
  Zn  Zn139  1  0.18731643  0.44136490  0.93535905  1
  Zn  Zn140  1  0.18835630  0.93634538  0.43814713  1
  Zn  Zn141  1  0.18903057  0.93913904  0.93815759  1
  Zn  Zn142  1  0.68490452  0.43426467  0.43665781  1
  Zn  Zn143  1  0.68533671  0.44056339  0.93887072  1
  Zn  Zn144  1  0.68734745  0.93861132  0.43774325  1
  Zn  Zn145  1  0.68560454  0.94166275  0.94069839  1
  Zn  Zn146  1  0.31559958  0.06124741  0.06030909  1
  Zn  Zn147  1  0.31308743  0.06219253  0.56343647  1
  Zn  Zn148  1  0.31163491  0.56147245  0.06476963  1
  Zn  Zn149  1  0.31317928  0.56230431  0.56569960  1
  Zn  Zn150  1  0.81037958  0.06285646  0.06356076  1
  Zn  Zn151  1  0.81307582  0.06250495  0.56119912  1
  Zn  Zn152  1  0.81514461  0.56277695  0.06283701  1
  Zn  Zn153  1  0.80725660  0.55756299  0.55705504  1
  Zn  Zn154  1  0.43651784  0.43855275  0.18569539  1
  Zn  Zn155  1  0.43664078  0.43955802  0.68563723  1
  Zn  Zn156  1  0.43866268  0.93974951  0.18516794  1
  Zn  Zn157  1  0.43938944  0.93684896  0.69331104  1
  Zn  Zn158  1  0.93800504  0.43522298  0.18573052  1
  Zn  Zn159  1  0.93683634  0.43647015  0.68635475  1
  Zn  Zn160  1  0.93796793  0.93508834  0.18960224  1
  Zn  Zn161  1  0.93669806  0.93426167  0.68819546  1
  Zn  Zn162  1  0.06194889  0.06136059  0.31241147  1
  Zn  Zn163  1  0.06320332  0.06189329  0.81297160  1
  Zn  Zn164  1  0.06068724  0.56576879  0.31583252  1
  Zn  Zn165  1  0.06473778  0.56438174  0.81357441  1
  Zn  Zn166  1  0.56327408  0.06291463  0.31124219  1
  Zn  Zn167  1  0.56103109  0.05901536  0.81416070  1
  Zn  Zn168  1  0.56427594  0.56094032  0.31014426  1
  Zn  Zn169  1  0.56481238  0.56279094  0.81146846  1
  Zn  Zn170  1  0.43777692  0.18901754  0.43816372  1
  Zn  Zn171  1  0.43651308  0.19202671  0.93582258  1
  Zn  Zn172  1  0.43795986  0.68796412  0.43817386  1
  Zn  Zn173  1  0.43876897  0.69231929  0.93512318  1
  Zn  Zn174  1  0.93792887  0.18674962  0.43640726  1
  Zn  Zn175  1  0.93771842  0.18794596  0.93724514  1
  Zn  Zn176  1  0.93680294  0.68812183  0.56290294  1
  Zn  Zn177  1  0.93735662  0.69154729  0.92975270  1
  Zn  Zn178  1  0.06409533  0.31220640  0.06328700  1
  Zn  Zn179  1  0.06189060  0.31436880  0.56293722  1
  Zn  Zn180  1  0.06233233  0.81087904  0.06353458  1
  Zn  Zn181  1  0.06588805  0.81477531  0.56321996  1
  Zn  Zn182  1  0.56240361  0.31115944  0.06235562  1
  Zn  Zn183  1  0.56134823  0.31097473  0.55982307  1
  Zn  Zn184  1  0.56230644  0.81288476  0.05887041  1
  Zn  Zn185  1  0.56481904  0.81165828  0.56426775  1
  O  O186  1  0.12057039  0.11901578  0.11953420  1
  O  O187  1  0.12103313  0.11963485  0.62002415  1
  O  O188  1  0.12562476  0.62215266  0.11133656  1
  O  O189  1  0.13756465  0.61813201  0.61231926  1
  O  O190  1  0.62440974  0.12836103  0.11361458  1
  O  O191  1  0.61935361  0.11412145  0.62248483  1
  O  O192  1  0.61840005  0.62513654  0.11337492  1
  O  O193  1  0.62064028  0.61607101  0.61607688  1
  O  O194  1  0.38628863  0.36844544  0.38288351  1
  O  O195  1  0.38471711  0.36971932  0.88391948  1
  O  O196  1  0.37924205  0.87943154  0.38027362  1
  O  O197  1  0.38603877  0.87513701  0.87654686  1
  O  O198  1  0.87751614  0.38075175  0.38271781  1
  O  O199  1  0.88095185  0.38140263  0.87966570  1
  O  O200  1  0.87473349  0.88194945  0.38827957  1
  O  O201  1  0.87360273  0.89013653  0.88940752  1
  O  O202  1  0.25574198  0.00544367  0.37117089  1
  O  O203  1  0.25072394  0.01124729  0.86897635  1
  O  O204  1  0.24529859  0.51097554  0.36757086  1
  O  O205  1  0.24759673  0.51294019  0.86681723  1
  O  O206  1  0.75620250  0.00721854  0.37459817  1
  O  O207  1  0.75554051  0.00352461  0.86785463  1
  O  O208  1  0.76297811  0.49613045  0.37689724  1
  O  O209  1  0.75511529  0.50585330  0.86999832  1
  O  O210  1  0.24769529  0.49466483  0.13615461  1
  O  O211  1  0.24396687  0.49351789  0.63122337  1
  O  O212  1  0.24620096  0.99274179  0.12989508  1
  O  O213  1  0.24501091  0.99491973  0.63059190  1
  O  O214  1  0.74923948  0.48775333  0.12182985  1
  O  O215  1  0.74254152  0.49002406  0.62825345  1
  O  O216  1  0.74586804  0.98680289  0.12460638  1
  O  O217  1  0.74403700  0.99483551  0.63033306  1
  O  O218  1  0.00828085  0.36808379  0.25049622  1
  O  O219  1  0.00581948  0.37076452  0.75449068  1
  O  O220  1  0.00469387  0.87167816  0.25569872  1
  O  O221  1  0.00950918  0.86618605  0.74775009  1
  O  O222  1  0.49649531  0.37014930  0.25862332  1
  O  O223  1  0.50433155  0.37752067  0.75839843  1
  O  O224  1  0.50402753  0.86901619  0.25529930  1
  O  O225  1  0.50064114  0.87201413  0.76372922  1
  O  O226  1  0.49207793  0.13287863  0.25060038  1
  O  O227  1  0.49364548  0.12571642  0.74388575  1
  O  O228  1  0.49471394  0.63040954  0.24435037  1
  O  O229  1  0.49318061  0.62405207  0.74490175  1
  O  O230  1  0.99556862  0.12937938  0.24425867  1
  O  O231  1  0.99959422  0.13072723  0.74351074  1
  O  O232  1  0.99670899  0.62820211  0.24870634  1
  O  O233  1  1.00134605  0.63816584  0.75310108  1
  O  O234  1  0.37343586  0.26320062  0.00536198  1
  O  O235  1  0.36814257  0.25663160  0.50584665  1
  O  O236  1  0.37236152  0.74866026  0.01465682  1
  O  O237  1  0.37137303  0.75589793  0.50649560  1
  O  O238  1  0.86890893  0.25719637  -0.00052581  1
  O  O239  1  0.87019970  0.25385585  0.50518410  1
  O  O240  1  0.86589893  0.76028210  -0.00275344  1
  O  O241  1  0.86557725  0.76192687  0.50135308  1
  O  O242  1  0.13049886  0.24472877  0.49627642  1
  O  O243  1  0.12806196  0.24212758  0.99722083  1
  O  O244  1  0.13257785  0.74280554  0.49677206  1
  O  O245  1  0.12696661  0.73899740  0.99602008  1
  O  O246  1  0.63164792  0.24741942  0.49336533  1
  O  O247  1  0.63097456  0.24459880  0.99265829  1
  O  O248  1  0.63133540  0.74543605  0.49429700  1
  O  O249  1  0.63406956  0.73758849  1.00313445  1
  O  O250  1  0.49208174  0.25033208  0.13198731  1
  O  O251  1  0.49364453  0.24322744  0.62552507  1
  O  O252  1  0.49163881  0.74579920  0.12969883  1
  O  O253  1  0.49594794  0.74306085  0.62650149  1
  O  O254  1  0.99925793  0.24244198  0.13135854  1
  O  O255  1  0.99503929  0.24508127  0.62952799  1
  O  O256  1  0.99720597  0.74655436  0.12653355  1
  O  O257  1  1.00472443  0.74999561  0.63395720  1
  O  O258  1  0.00802399  0.24996965  0.36862096  1
  O  O259  1  0.00079569  0.25690452  0.86800539  1
  O  O260  1  0.01853715  0.75179101  0.37938439  1
  O  O261  1  0.00403331  0.75524532  0.85989517  1
  O  O262  1  0.50378524  0.25815690  0.37072314  1
  O  O263  1  0.50646874  0.26374662  0.87277578  1
  O  O264  1  0.50393947  0.75613573  0.36945929  1
  O  O265  1  0.50137159  0.76309959  0.87238871  1
  O  O266  1  0.24520978  0.13045862  0.49573679  1
  O  O267  1  0.24468836  0.12536462  0.99082063  1
  O  O268  1  0.24589079  0.62801662  0.49375660  1
  O  O269  1  0.24351602  0.62221418  0.99261742  1
  O  O270  1  0.74978353  0.13161752  0.49252935  1
  O  O271  1  0.74256523  0.13115394  0.99414043  1
  O  O272  1  0.74183133  0.63416267  0.49532629  1
  O  O273  1  0.74401611  0.63101575  0.99309735  1
  O  O274  1  0.25923106  0.37895628  0.00319847  1
  O  O275  1  0.25358644  0.37077886  0.50546163  1
  O  O276  1  0.25157681  0.87316267  0.01248231  1
  O  O277  1  0.25731667  0.87038981  0.50705494  1
  O  O278  1  0.75481910  0.37126968  0.00404157  1
  O  O279  1  0.75422362  0.36746710  0.50626052  1
  O  O280  1  0.75406172  0.86882483  0.00441343  1
  O  O281  1  0.75641667  0.86958382  0.50569697  1
  O  O282  1  0.13590698  0.49486996  0.25134145  1
  O  O283  1  0.13107918  0.49534429  0.74456758  1
  O  O284  1  0.13289190  1.00023304  0.24350531  1
  O  O285  1  0.12968016  0.99104570  0.74455861  1
  O  O286  1  0.62823355  0.49466609  0.24462156  1
  O  O287  1  0.63127282  0.49389758  0.74292823  1
  O  O288  1  0.62790879  0.99105500  0.24870706  1
  O  O289  1  0.63587784  1.00545030  0.73913724  1
  O  O290  1  0.36955376  0.00552089  0.25627054  1
  O  O291  1  0.36724869  0.00795256  0.75082009  1
  O  O292  1  0.36196305  0.50680045  0.24512818  1
  O  O293  1  0.36849742  0.51455540  0.74180459  1
  O  O294  1  0.87271063  0.00650090  0.25725732  1
  O  O295  1  0.86640310  -0.00062213  0.75884370  1
  O  O296  1  0.87705634  0.49391949  0.26603466  1
  O  O297  1  0.86960958  0.49980800  0.75569084  1
  O  O298  1  0.12466539  0.36758771  0.36885360  1
  O  O299  1  0.11957133  0.37485712  0.86788114  1
  O  O300  1  0.12730163  0.86473715  0.37560828  1
  O  O301  1  0.12549859  0.87603307  0.86269957  1
  O  O302  1  0.61238731  0.36746546  0.37492403  1
  O  O303  1  0.61747967  0.37177318  0.87014261  1
  O  O304  1  0.61868188  0.87008086  0.37026297  1
  O  O305  1  0.61823863  0.87581684  0.87647059  1
  O  O306  1  0.37401767  0.13331273  0.13165126  1
  O  O307  1  0.37944480  0.12987036  0.63004452  1
  O  O308  1  0.37911949  0.63309704  0.13095495  1
  O  O309  1  0.38123988  0.63083354  0.63196852  1
  O  O310  1  0.88132102  0.12560693  0.13078108  1
  O  O311  1  0.88220559  0.13034193  0.62576771  1
  O  O312  1  0.87966738  0.62728495  0.12584674  1
  O  O313  1  0.86712513  0.62416157  0.62096189  1
  O  O314  1  0.25713390  0.25895127  0.12348963  1
  O  O315  1  0.25471058  0.25565098  0.61971097  1
  O  O316  1  0.25754503  0.75760687  0.12673831  1
  O  O317  1  0.25783686  0.75597609  0.61941094  1
  O  O318  1  0.75265680  0.26009065  0.11691305  1
  O  O319  1  0.75441856  0.25278561  0.62025475  1
  O  O320  1  0.75116409  0.76021891  0.11199758  1
  O  O321  1  0.74279591  0.76145266  0.61031173  1
  O  O322  1  0.24502936  0.24416845  0.38119308  1
  O  O323  1  0.24729292  0.23763481  0.87558441  1
  O  O324  1  0.24489469  0.74103881  0.38197492  1
  O  O325  1  0.24758106  0.73635607  0.87655552  1
  O  O326  1  0.74455280  0.24611172  0.37972293  1
  O  O327  1  0.74531643  0.24534560  0.87869459  1
  O  O328  1  0.74306078  0.75263383  0.38738851  1
  O  O329  1  0.74828408  0.74085850  0.88611666  1
  O  O330  1  0.00484197  0.11919887  0.00477011  1
  O  O331  1  0.00654930  0.11991189  0.50628340  1
  O  O332  1  0.00885468  0.61595734  -0.00787969  1
  O  O333  1  0.01305955  0.61685981  0.50262398  1
  O  O334  1  0.51216685  0.13003644  -0.00154129  1
  O  O335  1  0.49888029  0.11711259  0.50721069  1
  O  O336  1  0.50550559  0.61990304  0.00065655  1
  O  O337  1  0.50405064  0.62005107  0.50487397  1
  O  O338  1  0.49429228  0.37978003  0.49287669  1
  O  O339  1  0.49393350  0.38249916  0.99326865  1
  O  O340  1  0.49494785  0.87986770  0.49477150  1
  O  O341  1  0.50012859  0.87399986  0.98639856  1
  O  O342  1  0.99472751  0.38360228  0.49845607  1
  O  O343  1  0.99693681  0.38333232  0.99452591  1
  O  O344  1  0.99095751  0.88074859  0.50173328  1
  O  O345  1  0.99083957  0.88164670  0.99895796  1
  O  O346  1  0.50450742  0.48814407  0.38078660  1
  O  O347  1  0.50594415  0.48966371  0.88481640  1
  O  O348  1  0.49392502  0.99433782  0.38021058  1
  O  O349  1  0.50068869  0.98584901  0.87681886  1
  O  O350  1  0.99131275  0.49798815  0.38789261  1
  O  O351  1  0.99576948  0.49485736  0.88155443  1
  O  O352  1  0.99342757  1.00047643  0.38392716  1
  O  O353  1  0.99015418  0.99847939  0.87987963  1
  O  O354  1  0.00545214  0.00524616  0.11946290  1
  O  O355  1  0.00565049  0.00484862  0.62052794  1
  O  O356  1  0.00152639  0.50002586  0.11024202  1
  O  O357  1  0.00646271  0.49408187  0.61276056  1
  O  O358  1  0.50422336  0.00497961  0.12015447  1
  O  O359  1  0.50764773  0.00241445  0.62185801  1
  O  O360  1  0.49957629  0.50729291  0.11379589  1
  O  O361  1  0.50645849  0.50515010  0.61822477  1
  O  O362  1  0.24741652  0.38269118  0.24727214  1
  O  O363  1  0.24649079  0.38028653  0.74566955  1
  O  O364  1  0.25006652  0.88131773  0.23951561  1
  O  O365  1  0.24435877  0.87905308  0.74552590  1
  O  O366  1  0.74990430  0.37543876  0.23692483  1
  O  O367  1  0.74422453  0.37922736  0.74470594  1
  O  O368  1  0.74444433  0.87360073  0.23954616  1
  O  O369  1  0.74902109  0.88659665  0.73942433  1
  O  O370  1  0.25547372  0.11995269  0.25621801  1
  O  O371  1  0.25355035  0.11997336  0.75698189  1
  O  O372  1  0.25340774  0.61804171  0.25814769  1
  O  O373  1  0.25742949  0.62075558  0.75668356  1
  O  O374  1  0.75652281  0.12555995  0.25557910  1
  O  O375  1  0.75270539  0.11398165  0.75553689  1
  O  O376  1  0.75499570  0.62071982  0.25367561  1
  O  O377  1  0.75382723  0.61586438  0.75789670  1
  O  O378  1  0.36911496  0.11972631  0.37074263  1
  O  O379  1  0.36593171  0.12652840  0.86896526  1
  O  O380  1  0.36280598  0.63289208  0.36926413  1
  O  O381  1  0.36814747  0.63073834  0.86523382  1
  O  O382  1  0.86948280  0.12030047  0.36965373  1
  O  O383  1  0.86880919  0.11323108  0.87557482  1
  O  O384  1  0.87148123  0.60526746  0.37683997  1
  O  O385  1  0.86164696  0.61892605  0.87602206  1
  O  O386  1  0.13282774  0.37721018  0.13225991  1
  O  O387  1  0.13157782  0.38127239  0.63054183  1
  O  O388  1  0.13563066  0.88101540  0.12534538  1
  O  O389  1  0.13345362  0.88121582  0.63232791  1
  O  O390  1  0.63570092  0.37590757  0.12319964  1
  O  O391  1  0.62852354  0.37808647  0.62960318  1
  O  O392  1  0.63358767  0.87308536  0.12956113  1
  O  O393  1  0.63632487  0.88779993  0.61718942  1
  O  O394  1  0.12157908  0.25429344  0.25576664  1
  O  O395  1  0.11840342  0.25822066  0.75039788  1
  O  O396  1  0.12790224  0.75067735  0.26329520  1
  O  O397  1  0.12324274  0.76114068  0.74802070  1
  O  O398  1  0.61689857  0.25392203  0.25689909  1
  O  O399  1  0.62374848  0.25690620  0.75550150  1
  O  O400  1  0.61904494  0.75497211  0.25503545  1
  O  O401  1  0.63109770  0.74307599  0.74595223  1
  O  O402  1  0.37888998  0.24498075  0.24503410  1
  O  O403  1  0.37667200  0.24352391  0.74187571  1
  O  O404  1  0.37954381  0.74434230  0.24144163  1
  O  O405  1  0.37555004  0.73648870  0.74247674  1
  O  O406  1  0.88347545  0.24266286  0.24911909  1
  O  O407  1  0.88181712  0.24818138  0.74291585  1
  O  O408  1  0.87796975  0.74938983  0.24655879  1
  O  O409  1  0.89156397  0.74775957  0.74523178  1
  O  O410  1  0.38309214  0.49203110  0.50782592  1
  O  O411  1  0.38558653  0.49061016  1.00453926  1
  O  O412  1  0.37977223  0.99379347  0.49512791  1
  O  O413  1  0.37970397  0.99669105  0.99512081  1
  O  O414  1  0.88115743  0.49275974  0.49225240  1
  O  O415  1  0.88408848  0.49508514  0.99231993  1
  O  O416  1  0.87997723  0.99302121  0.49541918  1
  O  O417  1  0.87836054  0.99555230  0.99384195  1
  O  O418  1  0.11914295  0.00540513  0.00586286  1
  O  O419  1  0.12113312  0.00519835  0.50610483  1
  O  O420  1  0.11618398  0.50817530  -0.00048298  1
  O  O421  1  0.11792313  0.50646043  0.50377593  1
  O  O422  1  0.62477055  0.01557968  0.00199577  1
  O  O423  1  0.61869535  0.00210222  0.50898911  1
  O  O424  1  0.61445618  0.50995478  0.00283025  1
  O  O425  1  0.61801232  0.50412478  0.50374473  1
  O  O426  1  0.36993806  0.37104089  0.11557221  1
  O  O427  1  0.36912764  0.36932473  0.62001945  1
  O  O428  1  0.36697626  0.86573109  0.12614163  1
  O  O429  1  0.37210514  0.87058165  0.62116457  1
  O  O430  1  0.86671250  0.37335287  0.11664349  1
  O  O431  1  0.86798908  0.36803994  0.61912943  1
  O  O432  1  0.86528403  0.87828139  0.11201854  1
  O  O433  1  0.86155311  0.88442751  0.61360943  1
  O  O434  1  0.13130781  0.12968704  0.38145565  1
  O  O435  1  0.13422136  0.12478018  0.88017397  1
  O  O436  1  0.13574656  0.63091025  0.38711407  1
  O  O437  1  0.13587628  0.62538416  0.88364236  1
  O  O438  1  0.63076984  0.13199944  0.37636430  1
  O  O439  1  0.62995690  0.13137856  0.88096747  1
  O  O440  1  0.62351760  0.63285356  0.38063705  1
  O  O441  1  0.63810646  0.61634238  0.88501000  1
