# generated using pymatgen
data_V93Zn93O256
_symmetry_space_group_name_H-M   'P 1'
_cell_length_a   17.05048286
_cell_length_b   17.04834226
_cell_length_c   17.05149949
_cell_angle_alpha   90.01067282
_cell_angle_beta   89.91773029
_cell_angle_gamma   90.00526792
_symmetry_Int_Tables_number   1
_chemical_formula_structural   V93Zn93O256
_chemical_formula_sum   'V93 Zn93 O256'
_cell_volume   4956.56673076
_cell_formula_units_Z   1
loop_
 _symmetry_equiv_pos_site_id
 _symmetry_equiv_pos_as_xyz
  1  'x, y, z'
loop_
 _atom_site_type_symbol
 _atom_site_label
 _atom_site_symmetry_multiplicity
 _atom_site_fract_x
 _atom_site_fract_y
 _atom_site_fract_z
 _atom_site_occupancy
  V  V0  1  0.24932841  0.12538706  0.87626943  1
  V  V1  1  0.37383275  0.87453304  0.00135104  1
  V  V2  1  0.12609975  0.37149429  0.24842860  1
  V  V3  1  0.25166200  0.24693251  0.49754868  1
  V  V4  1  0.12661507  0.87556653  0.74984007  1
  V  V5  1  0.25124613  0.49819206  0.24908445  1
  V  V6  1  0.87342403  0.00049304  0.37568526  1
  V  V7  1  0.24863343  0.49744441  0.74709659  1
  V  V8  1  0.62644673  0.37575355  0.75007201  1
  V  V9  1  0.75153442  0.37593371  0.62459648  1
  V  V10  1  0.75032070  0.62525505  0.37377205  1
  V  V11  1  0.37499674  0.12553134  0.75159128  1
  V  V12  1  0.24514546  0.62718603  0.37907568  1
  V  V13  1  0.12357980  0.62567940  0.00015367  1
  V  V14  1  -0.00036047  0.87626775  0.87512443  1
  V  V15  1  0.37672519  0.62393535  0.75109034  1
  V  V16  1  0.37637431  0.12177511  0.25688163  1
  V  V17  1  0.62388042  0.50034984  0.12451826  1
  V  V18  1  0.74769342  0.00053043  0.25076053  1
  V  V19  1  0.87458064  0.37589380  0.00010937  1
  V  V20  1  0.00074482  0.74920734  0.74724136  1
  V  V21  1  0.75452411  0.50506051  0.25033967  1
  V  V22  1  0.62549357  0.25071962  0.87583374  1
  V  V23  1  0.62546704  0.37395026  0.25033476  1
  V  V24  1  0.12571393  0.25115231  0.87425741  1
  V  V25  1  0.50001693  0.37568768  0.87543854  1
  V  V26  1  0.74927797  0.75184142  0.50112868  1
  V  V27  1  0.00068511  0.25023803  0.25050465  1
  V  V28  1  0.75113330  0.25038754  0.49938426  1
  V  V29  1  -0.00078928  0.00088716  0.49972549  1
  V  V30  1  0.74906867  0.00087385  0.75049400  1
  V  V31  1  0.49893491  0.00517595  0.00640442  1
  V  V32  1  0.87774873  0.37801757  0.50004818  1
  V  V33  1  0.87421335  0.12627459  0.25024265  1
  V  V34  1  0.62220714  0.00335412  0.12603224  1
  V  V35  1  0.62114760  0.75150185  0.37578402  1
  V  V36  1  0.00095586  0.37615784  0.87452700  1
  V  V37  1  0.50030508  0.12556655  0.62587612  1
  V  V38  1  0.50072307  0.49876003  0.49843561  1
  V  V39  1  0.62568704  0.62584597  -0.00006976  1
  V  V40  1  0.87586825  0.12564340  0.74992905  1
  V  V41  1  -0.00082282  0.12488316  0.12450630  1
  V  V42  1  0.37530484  0.49884301  0.87583090  1
  V  V43  1  0.25432770  0.87618824  0.62106544  1
  V  V44  1  0.49731722  0.75128773  0.25548509  1
  V  V45  1  0.87546050  0.00013284  0.87547729  1
  V  V46  1  0.74969509  0.12641411  0.37551609  1
  V  V47  1  0.62614048  0.50049991  0.62457678  1
  V  V48  1  0.74900300  0.87452840  0.12533536  1
  V  V49  1  0.50053311  0.62492385  0.62485103  1
  V  V50  1  0.12372348  -0.00073861  0.12487330  1
  V  V51  1  0.50065344  0.24997305  0.74976329  1
  V  V52  1  0.75262344  0.50238052  0.74968451  1
  V  V53  1  0.87341756  0.74658350  0.13124465  1
  V  V54  1  0.62435248  0.00093846  0.62730362  1
  V  V55  1  0.00529865  0.51280325  0.50194794  1
  V  V56  1  0.62510835  0.87652126  0.75131952  1
  V  V57  1  0.24954273  0.62520005  0.87629127  1
  V  V58  1  0.62536094  0.12545139  0.49997090  1
  V  V59  1  0.00021928  0.50112403  -0.00047481  1
  V  V60  1  0.62565650  0.75004060  0.87669274  1
  V  V61  1  0.88043909  0.62573249  0.74756626  1
  V  V62  1  0.12950206  0.24603688  0.37407795  1
  V  V63  1  0.37538511  0.49729049  0.37366654  1
  V  V64  1  0.49949854  0.87560575  0.87628909  1
  V  V65  1  0.75047361  0.12610575  0.87587796  1
  V  V66  1  0.37518314  0.75084321  0.62577729  1
  V  V67  1  -0.00360940  0.62499086  0.13186232  1
  V  V68  1  0.37475774  0.37361118  0.00070280  1
  V  V69  1  0.37437685  0.25070808  0.62389021  1
  V  V70  1  0.87718828  0.50437628  0.37307131  1
  V  V71  1  0.00086656  0.25161336  0.74908862  1
  V  V72  1  0.87931319  0.74946142  0.62437376  1
  V  V73  1  0.87698268  0.25186560  0.62422765  1
  V  V74  1  0.25085671  0.37274592  0.12432689  1
  V  V75  1  0.75046606  0.25136778  0.00050600  1
  V  V76  1  0.62499090  0.62583940  0.50005910  1
  V  V77  1  0.24599978  0.00429459  0.25833253  1
  V  V78  1  0.12199764  0.86959024  0.25089647  1
  V  V79  1  0.12512180  0.75025142  0.87591286  1
  V  V80  1  0.87383572  0.87555724  0.00052665  1
  V  V81  1  0.49521472  -0.00588398  0.49371912  1
  V  V82  1  0.62252636  0.12555487  0.00444071  1
  V  V83  1  -0.00235662  0.87512808  0.37475737  1
  V  V84  1  0.50044157  0.37084764  0.37377511  1
  V  V85  1  0.61861704  0.87522712  0.25522841  1
  V  V86  1  0.12396138  0.51227486  0.61915368  1
  V  V87  1  0.38049997  0.24102757  0.12465101  1
  V  V88  1  0.12830022  0.12369885  0.49672372  1
  V  V89  1  0.25044439  0.00018832  0.75066161  1
  V  V90  1  0.00087120  0.12578217  0.62348654  1
  V  V91  1  0.50127864  0.75029386  0.75036488  1
  V  V92  1  0.37473359  0.74842214  0.12559876  1
  Zn  Zn93  1  0.75146780  0.37456524  0.12552230  1
  Zn  Zn94  1  0.87562966  0.50441288  0.87407372  1
  Zn  Zn95  1  0.87424552  0.25116695  0.12604765  1
  Zn  Zn96  1  0.00181475  0.37624845  0.37557327  1
  Zn  Zn97  1  0.24881077  0.74951732  0.00204916  1
  Zn  Zn98  1  0.37467615  0.00068487  0.87760787  1
  Zn  Zn99  1  0.12480968  -0.00059313  0.62464144  1
  Zn  Zn100  1  0.49975845  0.49969887  0.00092210  1
  Zn  Zn101  1  0.24750224  0.87379295  0.12545246  1
  Zn  Zn102  1  0.37579750  0.62365969  0.24813367  1
  Zn  Zn103  1  -0.00026100  0.00094856  -0.00128566  1
  Zn  Zn104  1  0.24503242  0.73907499  0.50759178  1
  Zn  Zn105  1  0.87312938  0.87629215  0.50234584  1
  Zn  Zn106  1  0.75183309  0.62681770  0.87446533  1
  Zn  Zn107  1  0.37525925  0.37290455  0.49986784  1
  Zn  Zn108  1  0.12438516  0.12413059  -0.00000715  1
  Zn  Zn109  1  0.24987415  0.24865528  0.00140558  1
  Zn  Zn110  1  0.50561274  0.23781547  0.24596543  1
  Zn  Zn111  1  -0.00593536  0.74324373  0.25416500  1
  Zn  Zn112  1  0.12332469  0.37742610  0.74492348  1
  Zn  Zn113  1  0.12461535  0.49998599  0.12447142  1
  Zn  Zn114  1  0.38097031  0.86027321  0.48317246  1
  Zn  Zn115  1  0.11308622  0.73711757  0.38484771  1
  Zn  Zn116  1  0.36590705  -0.00294973  0.37898207  1
  Zn  Zn117  1  0.49889338  0.62416478  0.12573159  1
  Zn  Zn118  1  0.75008537  0.87648158  0.62452925  1
  Zn  Zn119  1  0.24908484  0.37584962  0.62066559  1
  Zn  Zn120  1  0.74991127  0.75024503  -0.00006704  1
  Zn  Zn121  1  0.62564991  0.24884223  0.37396644  1
  Zn  Zn122  1  0.19178336  0.18528447  0.18763721  1
  Zn  Zn123  1  0.18772561  0.18763170  0.68549040  1
  Zn  Zn124  1  0.18665768  0.68564685  0.18863117  1
  Zn  Zn125  1  0.18858619  0.68833108  0.68958159  1
  Zn  Zn126  1  0.68914177  0.18817672  0.18466533  1
  Zn  Zn127  1  0.68866854  0.18811043  0.68686153  1
  Zn  Zn128  1  0.68652602  0.68795017  0.18698246  1
  Zn  Zn129  1  0.69106013  0.68878662  0.68773555  1
  Zn  Zn130  1  0.31296217  0.30845583  0.31172384  1
  Zn  Zn131  1  0.31323860  0.31269226  0.81219383  1
  Zn  Zn132  1  0.31087743  0.81711475  0.31037366  1
  Zn  Zn133  1  0.31264717  0.81211533  0.81258553  1
  Zn  Zn134  1  0.81377773  0.31526369  0.31343992  1
  Zn  Zn135  1  0.81413360  0.31416036  0.81341815  1
  Zn  Zn136  1  0.80887757  0.81346036  0.31271771  1
  Zn  Zn137  1  0.81082206  0.81234000  0.81288191  1
  Zn  Zn138  1  0.18620287  0.43473165  0.43737623  1
  Zn  Zn139  1  0.18755682  0.43772801  0.93828688  1
  Zn  Zn140  1  0.18396889  0.92978913  0.43981617  1
  Zn  Zn141  1  0.18737750  0.93754646  0.93851835  1
  Zn  Zn142  1  0.68857572  0.43752758  0.43692902  1
  Zn  Zn143  1  0.69041564  0.44005526  0.93554507  1
  Zn  Zn144  1  0.68536989  0.93758684  0.43912247  1
  Zn  Zn145  1  0.68709873  0.93781721  0.93864012  1
  Zn  Zn146  1  0.30993518  0.06176709  0.06599530  1
  Zn  Zn147  1  0.31229895  0.06381579  0.56537143  1
  Zn  Zn148  1  0.31175130  0.56189182  0.06176980  1
  Zn  Zn149  1  0.31455222  0.56020156  0.56162251  1
  Zn  Zn150  1  0.81063071  0.06182633  0.06297856  1
  Zn  Zn151  1  0.81271428  0.06295810  0.56322462  1
  Zn  Zn152  1  0.81215942  0.56280311  0.06286920  1
  Zn  Zn153  1  0.81550373  0.56520588  0.56195706  1
  Zn  Zn154  1  0.43771059  0.43213314  0.18641901  1
  Zn  Zn155  1  0.43672449  0.43563397  0.68619258  1
  Zn  Zn156  1  0.43525156  0.93718339  0.18869678  1
  Zn  Zn157  1  0.43687685  0.93948619  0.68710891  1
  Zn  Zn158  1  0.93927653  0.43734668  0.18640885  1
  Zn  Zn159  1  0.94238220  0.44105600  0.68440683  1
  Zn  Zn160  1  0.93541605  0.93685721  0.18824260  1
  Zn  Zn161  1  0.93770425  0.93614319  0.68660020  1
  Zn  Zn162  1  0.06156616  0.06174105  0.31241500  1
  Zn  Zn163  1  0.06331531  0.06230545  0.81040021  1
  Zn  Zn164  1  0.06435538  0.55737282  0.31224460  1
  Zn  Zn165  1  0.06267474  0.56277030  0.81117384  1
  Zn  Zn166  1  0.56124113  0.06298119  0.31328683  1
  Zn  Zn167  1  0.56134480  0.06266040  0.81743265  1
  Zn  Zn168  1  0.56204341  0.56411763  0.31149206  1
  Zn  Zn169  1  0.56364603  0.56216142  0.81356643  1
  Zn  Zn170  1  0.43781203  0.18321493  0.43559227  1
  Zn  Zn171  1  0.43734609  0.18841798  0.93838182  1
  Zn  Zn172  1  0.43206010  0.68299827  0.43616659  1
  Zn  Zn173  1  0.44012320  0.68604806  0.93877199  1
  Zn  Zn174  1  0.93966490  0.18881265  0.43629522  1
  Zn  Zn175  1  0.93821684  0.18888329  0.93846954  1
  Zn  Zn176  1  0.93371288  0.68777234  0.43800447  1
  Zn  Zn177  1  0.93662532  0.68941108  0.93859762  1
  Zn  Zn178  1  0.06311453  0.31192181  0.06135386  1
  Zn  Zn179  1  0.06482873  0.32139341  0.56222999  1
  Zn  Zn180  1  0.05787864  0.81084200  0.06191202  1
  Zn  Zn181  1  0.06585691  0.80916236  0.56140107  1
  Zn  Zn182  1  0.56085151  0.31276321  0.06322026  1
  Zn  Zn183  1  0.56389610  0.31211466  0.56184222  1
  Zn  Zn184  1  0.56039743  0.81385079  0.06572005  1
  Zn  Zn185  1  0.56351928  0.81438704  0.56471632  1
  O  O186  1  0.11612404  0.11653166  0.12647629  1
  O  O187  1  0.11874844  0.12475737  0.61418124  1
  O  O188  1  0.11562265  0.62494343  0.11800569  1
  O  O189  1  0.13463467  0.61205495  0.62496684  1
  O  O190  1  0.62994225  0.11642590  0.11751403  1
  O  O191  1  0.62012505  0.12083522  0.62059902  1
  O  O192  1  0.62467493  0.61622418  0.11774618  1
  O  O193  1  0.62019709  0.62044612  0.61992932  1
  O  O194  1  0.38607025  0.37753710  0.37401558  1
  O  O195  1  0.38031383  0.37897585  0.87992363  1
  O  O196  1  0.37131360  0.88375402  0.37458197  1
  O  O197  1  0.38011084  0.87503503  0.88576975  1
  O  O198  1  0.87469353  0.38841970  0.38164042  1
  O  O199  1  0.88199189  0.37621132  0.88506085  1
  O  O200  1  0.88288911  0.88142186  0.37390377  1
  O  O201  1  0.87975056  0.88058556  0.87918097  1
  O  O202  1  0.24267428  -0.00428307  0.36142918  1
  O  O203  1  0.25029956  0.01003390  0.87023846  1
  O  O204  1  0.25429629  0.50334307  0.36659301  1
  O  O205  1  0.25474997  0.50520863  0.86671255  1
  O  O206  1  0.75336343  0.00639348  0.37026183  1
  O  O207  1  0.75498048  0.00697292  0.87021430  1
  O  O208  1  0.75647202  0.50484416  0.36932502  1
  O  O209  1  0.75416903  0.50341666  0.86432373  1
  O  O210  1  0.25009504  0.49308195  0.13454322  1
  O  O211  1  0.24644752  0.49893545  0.63245951  1
  O  O212  1  0.23680608  0.99782747  0.13337915  1
  O  O213  1  0.24993175  0.99302869  0.63319040  1
  O  O214  1  0.74169650  0.49884145  0.13396368  1
  O  O215  1  0.74544200  0.49533097  0.62871427  1
  O  O216  1  0.74314058  0.99486866  0.13248823  1
  O  O217  1  0.74297579  1.00144862  0.63275174  1
  O  O218  1  0.00773345  0.36792878  0.24969659  1
  O  O219  1  -0.00008579  0.36879548  0.75640333  1
  O  O220  1  0.00535528  0.87572056  0.25907018  1
  O  O221  1  0.00650846  0.87036588  0.75585197  1
  O  O222  1  0.51057515  0.37562826  0.25927184  1
  O  O223  1  0.50667751  0.36950129  0.75463956  1
  O  O224  1  0.51019105  0.86606366  0.24463764  1
  O  O225  1  0.50489921  0.87059083  0.75597305  1
  O  O226  1  0.48353386  0.12057278  0.25062976  1
  O  O227  1  0.49589118  0.13102417  0.74703670  1
  O  O228  1  0.49801906  0.63597022  0.24643209  1
  O  O229  1  0.49645304  0.62994691  0.74452500  1
  O  O230  1  0.99436050  0.12942810  0.24286214  1
  O  O231  1  0.99500360  0.13130220  0.74387258  1
  O  O232  1  1.00664885  0.62386971  0.23614114  1
  O  O233  1  0.98937125  0.63341813  0.75461580  1
  O  O234  1  0.37356068  0.25454515  0.00808415  1
  O  O235  1  0.36617732  0.24540482  0.50366923  1
  O  O236  1  0.37783680  0.75854739  0.00834894  1
  O  O237  1  0.36909938  0.74686934  0.50945901  1
  O  O238  1  0.87005830  0.25987532  0.00021151  1
  O  O239  1  0.87117249  0.25602617  0.50485159  1
  O  O240  1  0.87272685  0.75757544  0.01069810  1
  O  O241  1  0.86868784  0.75065734  0.50919742  1
  O  O242  1  0.13097733  0.24361207  0.49334205  1
  O  O243  1  0.12650135  0.24718026  0.98621122  1
  O  O244  1  0.13896250  0.76929345  0.48842988  1
  O  O245  1  0.12590144  0.74510289  0.99345973  1
  O  O246  1  0.63351543  0.24375205  0.49950354  1
  O  O247  1  0.62935761  0.24633488  0.99521734  1
  O  O248  1  0.62801495  0.74554478  0.49577504  1
  O  O249  1  0.62315054  0.74205362  0.99674426  1
  O  O250  1  0.48601315  0.25675350  0.13034243  1
  O  O251  1  0.49594745  0.24496331  0.63027688  1
  O  O252  1  0.49098564  0.74936955  0.13533416  1
  O  O253  1  0.49593050  0.74409315  0.63082664  1
  O  O254  1  1.00038632  0.23916450  0.13073317  1
  O  O255  1  0.99587342  0.24671767  0.62873279  1
  O  O256  1  0.99085539  0.74201932  0.12780759  1
  O  O257  1  0.98902250  0.75877638  0.63140691  1
  O  O258  1  0.01050618  0.25207546  0.36878549  1
  O  O259  1  0.00792716  0.25388817  0.86913780  1
  O  O260  1  -0.00366531  0.75903882  0.37173203  1
  O  O261  1  0.00553398  0.75736692  0.86878453  1
  O  O262  1  0.50282312  0.25894930  0.37136271  1
  O  O263  1  0.50606108  0.25538597  0.86913851  1
  O  O264  1  0.50404471  0.74312857  0.36418420  1
  O  O265  1  0.50526648  0.75558080  0.86928733  1
  O  O266  1  0.23894412  0.13384687  0.50554853  1
  O  O267  1  0.24762739  0.12553412  0.98802389  1
  O  O268  1  0.25404145  0.61984843  0.48247487  1
  O  O269  1  0.24273265  0.62566654  0.99337532  1
  O  O270  1  0.74544352  0.13023706  0.49521507  1
  O  O271  1  0.74465294  0.13086025  0.99414423  1
  O  O272  1  0.74357650  0.63103785  0.49451518  1
  O  O273  1  0.73704842  0.62622128  0.99851111  1
  O  O274  1  0.25703763  0.37317388  0.00552765  1
  O  O275  1  0.25344911  0.35982710  0.49830174  1
  O  O276  1  0.26162658  0.87315019  0.00221407  1
  O  O277  1  0.25851858  0.88322760  0.51566281  1
  O  O278  1  0.75925324  0.37081172  -0.00093205  1
  O  O279  1  0.75613635  0.37129490  0.50585404  1
  O  O280  1  0.75495526  0.87512484  0.00810714  1
  O  O281  1  0.75154649  0.86779694  0.50167319  1
  O  O282  1  0.13628294  0.49032231  0.24824081  1
  O  O283  1  0.13418225  0.50139449  0.74202149  1
  O  O284  1  0.12770569  0.99414855  0.24276835  1
  O  O285  1  0.13217651  0.99378957  0.74790630  1
  O  O286  1  0.63237877  0.49277606  0.24421793  1
  O  O287  1  0.63100558  0.49514673  0.74366354  1
  O  O288  1  0.62714363  0.99314842  0.24689147  1
  O  O289  1  0.62901529  0.99726597  0.74761434  1
  O  O290  1  0.36524905  0.00876061  0.24616914  1
  O  O291  1  0.36960713  0.00787707  0.75432344  1
  O  O292  1  0.36567730  0.49644335  0.25371013  1
  O  O293  1  0.36847177  0.50454434  0.75440158  1
  O  O294  1  0.86722417  0.00587334  0.25572196  1
  O  O295  1  0.86993401  0.00664534  0.75522096  1
  O  O296  1  0.86384548  0.49184671  0.25871869  1
  O  O297  1  0.87226206  0.51055455  0.74705547  1
  O  O298  1  0.12435601  0.36245557  0.36718718  1
  O  O299  1  0.12037600  0.36593967  0.87241581  1
  O  O300  1  0.11111249  0.87945398  0.36400349  1
  O  O301  1  0.12065308  0.87033171  0.86994727  1
  O  O302  1  0.61814190  0.37533073  0.36652390  1
  O  O303  1  0.62076564  0.37031208  0.86936003  1
  O  O304  1  0.62971396  0.86870625  0.36242632  1
  O  O305  1  0.61848337  0.87058477  0.87117144  1
  O  O306  1  0.36985088  0.13396102  0.13280813  1
  O  O307  1  0.38062583  0.13184242  0.63293097  1
  O  O308  1  0.37714056  0.63527553  0.12487804  1
  O  O309  1  0.38124098  0.62944500  0.63133588  1
  O  O310  1  0.88365849  0.12439742  0.13151824  1
  O  O311  1  0.88073038  0.13225204  0.63010956  1
  O  O312  1  0.88411120  0.63451115  0.11840652  1
  O  O313  1  0.87098446  0.63801870  0.63495324  1
  O  O314  1  0.25933195  0.25522262  0.12325678  1
  O  O315  1  0.25569859  0.25085354  0.61559398  1
  O  O316  1  0.26128652  0.75155112  0.12461010  1
  O  O317  1  0.25688997  0.75938068  0.62838207  1
  O  O318  1  0.75395572  0.25439583  0.11639929  1
  O  O319  1  0.75718882  0.25599335  0.61978407  1
  O  O320  1  0.75645288  0.75541549  0.12413082  1
  O  O321  1  0.75875485  0.75296589  0.61917569  1
  O  O322  1  0.23929829  0.25063102  0.38276596  1
  O  O323  1  0.24217778  0.24205265  0.87323493  1
  O  O324  1  0.25504360  0.72977091  0.36788718  1
  O  O325  1  0.24360534  0.74250402  0.87542414  1
  O  O326  1  0.75008035  0.24460427  0.38192812  1
  O  O327  1  0.74467377  0.24560850  0.87978690  1
  O  O328  1  0.74337148  0.74437618  0.37996783  1
  O  O329  1  0.74046195  0.74884488  0.87878363  1
  O  O330  1  0.00104474  0.12299452  0.01168409  1
  O  O331  1  0.00802964  0.12139800  0.50435516  1
  O  O332  1  0.00448221  0.62054764  0.00725890  1
  O  O333  1  -0.00104386  0.61200871  0.49311731  1
  O  O334  1  0.50585718  0.11307738  -0.00692526  1
  O  O335  1  0.50627515  0.11822434  0.50660157  1
  O  O336  1  0.51275763  0.62073601  0.00300541  1
  O  O337  1  0.50556992  0.61894766  0.50509250  1
  O  O338  1  0.50233732  0.37937018  0.48875776  1
  O  O339  1  0.49381711  0.37660854  0.99235231  1
  O  O340  1  0.49644436  0.89059515  0.50878039  1
  O  O341  1  0.49202146  0.88268531  0.99621674  1
  O  O342  1  0.99267702  0.38414784  0.49632513  1
  O  O343  1  0.99315967  0.37965058  0.99531675  1
  O  O344  1  0.99844262  0.88194223  0.48854416  1
  O  O345  1  0.99242625  0.87792028  0.99267020  1
  O  O346  1  0.49664015  0.49163002  0.37832925  1
  O  O347  1  0.49336774  0.49267080  0.87449057  1
  O  O348  1  0.50191376  1.00345558  0.39298668  1
  O  O349  1  0.49767387  0.99356913  0.88707097  1
  O  O350  1  0.99242691  0.49777919  0.37972971  1
  O  O351  1  0.99903237  0.49369438  0.88118079  1
  O  O352  1  0.99296281  0.99434875  0.37906435  1
  O  O353  1  0.99345379  0.99503157  0.87485378  1
  O  O354  1  0.00702142  0.00911436  0.12749090  1
  O  O355  1  0.00090056  0.00700392  0.61834344  1
  O  O356  1  0.00081556  0.50901628  0.11889577  1
  O  O357  1  0.01108263  0.49835303  0.61437917  1
  O  O358  1  0.50577754  -0.00745333  0.11301455  1
  O  O359  1  0.50502471  0.00795634  0.61937053  1
  O  O360  1  0.51285692  0.49995882  0.12580771  1
  O  O361  1  0.50636001  0.50481552  0.62001420  1
  O  O362  1  0.24659687  0.37995861  0.24543952  1
  O  O363  1  0.25048388  0.38917547  0.75079373  1
  O  O364  1  0.23660995  0.88329918  0.24591222  1
  O  O365  1  0.24657069  0.88061896  0.74437757  1
  O  O366  1  0.74045754  0.38496431  0.25086962  1
  O  O367  1  0.74618950  0.38030609  0.74389259  1
  O  O368  1  0.73946626  0.88127431  0.24538836  1
  O  O369  1  0.74218130  0.88396437  0.75105647  1
  O  O370  1  0.25995551  0.11407134  0.24628594  1
  O  O371  1  0.25428766  0.12118164  0.75761629  1
  O  O372  1  0.25202964  0.61166352  0.25520220  1
  O  O373  1  0.25704003  0.61562771  0.75587851  1
  O  O374  1  0.75410440  0.12007464  0.25547534  1
  O  O375  1  0.75595612  0.12163563  0.75614748  1
  O  O376  1  0.74085187  0.61188511  0.25695688  1
  O  O377  1  0.76057560  0.62007042  0.75026678  1
  O  O378  1  0.37332457  0.11923117  0.36125877  1
  O  O379  1  0.36458654  0.12639940  0.87001965  1
  O  O380  1  0.36515973  0.61418437  0.36869772  1
  O  O381  1  0.37106719  0.61917832  0.87073096  1
  O  O382  1  0.86983265  0.12025309  0.36976545  1
  O  O383  1  0.87045410  0.12131554  0.86950042  1
  O  O384  1  0.86724682  0.61147630  0.37813183  1
  O  O385  1  0.87264829  0.62643140  0.86332424  1
  O  O386  1  0.13262129  0.37396266  0.13063815  1
  O  O387  1  0.13132042  0.38683411  0.62843004  1
  O  O388  1  0.11908653  0.88297926  0.13382454  1
  O  O389  1  0.13694153  0.87648317  0.63248523  1
  O  O390  1  0.62614621  0.38357135  0.13326261  1
  O  O391  1  0.63113656  0.38041488  0.63041032  1
  O  O392  1  0.62957620  0.88092617  0.13493214  1
  O  O393  1  0.62615278  0.88283406  0.63434334  1
  O  O394  1  0.12255746  0.25048564  0.25730861  1
  O  O395  1  0.12014505  0.25114712  0.75887077  1
  O  O396  1  0.12256399  0.76144435  0.25387107  1
  O  O397  1  0.12008508  0.75503776  0.75590285  1
  O  O398  1  0.62456372  0.26093002  0.24980506  1
  O  O399  1  0.62103661  0.25585202  0.75522964  1
  O  O400  1  0.61712447  0.75676805  0.25442749  1
  O  O401  1  0.61957128  0.75536909  0.75505182  1
  O  O402  1  0.37320816  0.23500895  0.24472536  1
  O  O403  1  0.38127597  0.24539731  0.74497746  1
  O  O404  1  0.38227281  0.75166437  0.24117758  1
  O  O405  1  0.38227979  0.74327638  0.74651686  1
  O  O406  1  0.88133148  0.24492649  0.24914322  1
  O  O407  1  0.88045109  0.24509751  0.74453489  1
  O  O408  1  0.87389483  0.75544816  0.23563565  1
  O  O409  1  0.87951505  0.74516690  0.74346666  1
  O  O410  1  0.38370905  0.49576844  0.49270076  1
  O  O411  1  0.37681040  0.49277568  0.99385363  1
  O  O412  1  0.38935120  1.00730235  0.50070213  1
  O  O413  1  0.38143810  0.99162144  1.00246309  1
  O  O414  1  0.88250604  0.49738324  0.49371495  1
  O  O415  1  0.88011386  0.49176821  0.99793144  1
  O  O416  1  0.88067192  1.00003332  0.49340672  1
  O  O417  1  0.87537901  0.99428067  0.99320131  1
  O  O418  1  0.12220738  0.00059367  0.01242887  1
  O  O419  1  0.11933094  0.00946972  0.49983752  1
  O  O420  1  0.11830295  0.50648388  0.00186675  1
  O  O421  1  0.11675412  0.49364530  0.50604418  1
  O  O422  1  0.61732805  0.00469252  0.00549155  1
  O  O423  1  0.61516012  0.00498917  0.50660996  1
  O  O424  1  0.62607813  0.50595468  0.00896796  1
  O  O425  1  0.62102180  0.50564385  0.50511765  1
  O  O426  1  0.36914757  0.36585510  0.12068528  1
  O  O427  1  0.37336495  0.36597807  0.62058522  1
  O  O428  1  0.37401949  0.86636671  0.11666125  1
  O  O429  1  0.36745891  0.86752763  0.62932332  1
  O  O430  1  0.87469735  0.37414780  0.11204055  1
  O  O431  1  0.87045628  0.37084762  0.62023385  1
  O  O432  1  0.86935025  0.86911614  0.12063940  1
  O  O433  1  0.87063249  0.86466534  0.62442349  1
  O  O434  1  0.11802289  0.13412886  0.38558430  1
  O  O435  1  0.13260146  0.13331903  0.87384048  1
  O  O436  1  0.14063529  0.62315666  0.36748404  1
  O  O437  1  0.12922592  0.63086949  0.87996245  1
  O  O438  1  0.63197743  0.12701280  0.38061843  1
  O  O439  1  0.63125466  0.13178587  0.88196891  1
  O  O440  1  0.62982549  0.63054274  0.38159331  1
  O  O441  1  0.62499920  0.63074105  0.88385042  1
