# generated using pymatgen
data_V93Zn93O256
_symmetry_space_group_name_H-M   'P 1'
_cell_length_a   17.05439911
_cell_length_b   17.05545643
_cell_length_c   17.05297759
_cell_angle_alpha   90.07654926
_cell_angle_beta   90.06628456
_cell_angle_gamma   90.08948767
_symmetry_Int_Tables_number   1
_chemical_formula_structural   V93Zn93O256
_chemical_formula_sum   'V93 Zn93 O256'
_cell_volume   4960.19534677
_cell_formula_units_Z   1
loop_
 _symmetry_equiv_pos_site_id
 _symmetry_equiv_pos_as_xyz
  1  'x, y, z'
loop_
 _atom_site_type_symbol
 _atom_site_label
 _atom_site_symmetry_multiplicity
 _atom_site_fract_x
 _atom_site_fract_y
 _atom_site_fract_z
 _atom_site_occupancy
  V  V0  1  0.62426052  0.37536681  0.74927911  1
  V  V1  1  0.12582992  0.87611876  0.74896337  1
  V  V2  1  0.00130158  0.87465560  0.37522275  1
  V  V3  1  0.24970858  0.74845042  0.49836186  1
  V  V4  1  0.24832911  0.87532321  0.62479408  1
  V  V5  1  0.00182582  0.38051229  0.37853759  1
  V  V6  1  0.37341632  0.49830295  0.37279916  1
  V  V7  1  0.62482524  0.49995055  0.62391592  1
  V  V8  1  0.12361785  0.74994920  0.87490917  1
  V  V9  1  0.00007661  0.74969474  0.25003891  1
  V  V10  1  -0.00039587  0.74981216  0.75000666  1
  V  V11  1  0.12226980  0.62478267  0.00021332  1
  V  V12  1  0.37531995  0.37278813  0.50392729  1
  V  V13  1  0.62400833  0.87601689  0.74847678  1
  V  V14  1  0.49968238  0.87380736  0.37434056  1
  V  V15  1  0.37321258  0.12833224  0.74438420  1
  V  V16  1  0.49704156  0.38168377  0.88265232  1
  V  V17  1  0.00018726  0.62031964  0.61824152  1
  V  V18  1  0.37518323  0.24402893  0.12906386  1
  V  V19  1  0.62118802  0.50438937  0.12011597  1
  V  V20  1  0.24893232  0.75224925  -0.00121317  1
  V  V21  1  0.75007870  0.87579594  0.62406868  1
  V  V22  1  0.50068227  0.37341261  0.37694997  1
  V  V23  1  0.74901083  0.24851989  -0.00039654  1
  V  V24  1  0.49797911  0.12728891  0.62438140  1
  V  V25  1  -0.00027687  0.62432295  0.12570312  1
  V  V26  1  0.62412470  0.62423102  0.50017484  1
  V  V27  1  0.49954541  0.75132319  0.74730986  1
  V  V28  1  0.87317970  0.75066252  0.12445617  1
  V  V29  1  0.12614510  0.74924299  0.37500228  1
  V  V30  1  0.37333969  0.87675970  -0.00110801  1
  V  V31  1  0.00183554  0.00065581  0.50039155  1
  V  V32  1  0.50010676  0.49956886  0.49963271  1
  V  V33  1  0.87414057  0.49943105  0.87614274  1
  V  V34  1  0.37429287  0.00166770  0.87442220  1
  V  V35  1  0.49983071  0.00324401  -0.00015880  1
  V  V36  1  0.37506030  0.00304735  0.36645744  1
  V  V37  1  -0.00048565  0.87578002  0.87478315  1
  V  V38  1  0.12780992  0.87652372  0.24976261  1
  V  V39  1  0.74985707  0.49933574  0.74984835  1
  V  V40  1  0.62453873  0.00140306  0.62436522  1
  V  V41  1  0.62394271  0.75017089  0.37439109  1
  V  V42  1  0.25288636  0.25776969  0.00167543  1
  V  V43  1  0.62616146  0.37322647  0.25202063  1
  V  V44  1  0.87210964  0.24986424  0.61976400  1
  V  V45  1  0.62498749  0.00032085  0.12540808  1
  V  V46  1  0.25092199  0.12748119  0.87511725  1
  V  V47  1  0.62441786  0.24792551  0.87622208  1
  V  V48  1  0.37415754  0.87460526  0.49883364  1
  V  V49  1  0.62766743  0.24927779  0.37829714  1
  V  V50  1  0.00042507  0.25084230  0.75130112  1
  V  V51  1  0.12506997  0.12738710  0.00160524  1
  V  V52  1  0.24889917  0.62553409  0.87294578  1
  V  V53  1  0.75460476  0.49903651  0.25298085  1
  V  V54  1  0.87476154  0.00069891  0.87410007  1
  V  V55  1  0.25609863  0.24870732  0.50520800  1
  V  V56  1  0.37487056  0.61914840  0.24707451  1
  V  V57  1  0.49619051  0.24190147  0.25129692  1
  V  V58  1  0.25443922  0.12531171  0.36911432  1
  V  V59  1  0.25033020  0.61944777  0.37128879  1
  V  V60  1  0.25406312  0.37349357  0.62554351  1
  V  V61  1  0.87510904  0.62418680  0.75045245  1
  V  V62  1  0.49520941  0.25136556  0.74581865  1
  V  V63  1  0.13112915  0.37713203  0.25191201  1
  V  V64  1  0.87470485  0.74926920  0.62513845  1
  V  V65  1  0.75090845  0.37364594  0.12685838  1
  V  V66  1  0.50027929  0.74506610  0.24447184  1
  V  V67  1  0.25205700  0.50003639  0.75182183  1
  V  V68  1  0.87552093  0.00100327  0.37509384  1
  V  V69  1  0.74834756  0.62628036  0.87555351  1
  V  V70  1  0.75028008  0.00123483  0.75025445  1
  V  V71  1  0.75051384  0.62384214  0.37533274  1
  V  V72  1  0.12571754  0.12509436  0.50051185  1
  V  V73  1  0.37458504  0.74941886  0.62390059  1
  V  V74  1  0.24920427  0.87524981  0.12602493  1
  V  V75  1  0.87807795  0.24729510  0.12760953  1
  V  V76  1  0.75175538  0.12982951  0.38099074  1
  V  V77  1  0.87702275  0.37565757  -0.00109941  1
  V  V78  1  0.87562707  0.87536446  0.49988057  1
  V  V79  1  0.12850978  0.49884652  0.13021939  1
  V  V80  1  0.75024974  -0.00072565  0.24998238  1
  V  V81  1  0.62700724  0.12869799  0.50040926  1
  V  V82  1  -0.00020114  0.00131244  0.00180272  1
  V  V83  1  0.37769501  0.74580702  0.12208966  1
  V  V84  1  0.12229422  0.49956391  0.61914911  1
  V  V85  1  0.87456538  0.12564300  0.74964326  1
  V  V86  1  0.12595603  0.37457099  0.75031851  1
  V  V87  1  0.74894064  0.75036951  0.49916837  1
  V  V88  1  0.62599643  0.75154211  0.87593254  1
  V  V89  1  0.37376877  0.62559541  0.74887409  1
  V  V90  1  0.49969200  0.00049435  0.49913184  1
  V  V91  1  0.88170224  0.38145201  0.50171908  1
  V  V92  1  0.74983966  0.37060897  0.61813778  1
  Zn  Zn93  1  0.12546014  0.25356451  0.87629277  1
  Zn  Zn94  1  0.24838271  0.00165174  0.74832204  1
  Zn  Zn95  1  0.45794032  0.56181063  0.06307184  1
  Zn  Zn96  1  0.49556068  0.12155846  0.13047084  1
  Zn  Zn97  1  0.62004495  0.62577163  0.00025415  1
  Zn  Zn98  1  0.12464484  -0.00010940  0.62679557  1
  Zn  Zn99  1  0.88118713  0.50453675  0.38306475  1
  Zn  Zn100  1  0.74869089  0.12345578  0.87593324  1
  Zn  Zn101  1  0.87614001  0.62441433  0.25192760  1
  Zn  Zn102  1  0.87239325  0.87528886  -0.00013239  1
  Zn  Zn103  1  0.62485010  0.87272826  0.24881949  1
  Zn  Zn104  1  0.49867003  0.62423663  0.62423051  1
  Zn  Zn105  1  0.00192110  0.37774852  0.87449450  1
  Zn  Zn106  1  0.12510201  0.25087364  0.37380644  1
  Zn  Zn107  1  0.87903720  0.12559471  0.25180229  1
  Zn  Zn108  1  0.12172972  0.62045540  0.49558157  1
  Zn  Zn109  1  0.00064349  0.12401014  0.62478659  1
  Zn  Zn110  1  0.12629809  0.00113554  0.12753943  1
  Zn  Zn111  1  0.49939373  0.87715452  0.87300553  1
  Zn  Zn112  1  0.25230926  0.00543045  0.24574200  1
  Zn  Zn113  1  0.75014589  0.87426703  0.12303495  1
  Zn  Zn114  1  0.00188511  0.24844488  0.25305289  1
  Zn  Zn115  1  0.74917944  0.75109130  0.00219230  1
  Zn  Zn116  1  0.38073554  0.50816268  0.88632375  1
  Zn  Zn117  1  0.25621483  0.37940619  0.13496427  1
  Zn  Zn118  1  0.00050867  0.49988744  -0.00059079  1
  Zn  Zn119  1  0.00138981  0.12437384  0.13060484  1
  Zn  Zn120  1  0.37979424  0.38449048  0.00875236  1
  Zn  Zn121  1  0.62485594  0.12556862  0.00220743  1
  Zn  Zn122  1  0.18612915  0.19309214  0.18705280  1
  Zn  Zn123  1  0.18720047  0.18870277  0.68583524  1
  Zn  Zn124  1  0.18855926  0.68834581  0.18770852  1
  Zn  Zn125  1  0.18618821  0.68736840  0.68632037  1
  Zn  Zn126  1  0.68798110  0.18510515  0.19023269  1
  Zn  Zn127  1  0.68665398  0.18780405  0.68888422  1
  Zn  Zn128  1  0.68874665  0.68469268  0.18942776  1
  Zn  Zn129  1  0.68697135  0.68716935  0.68810369  1
  Zn  Zn130  1  0.31296517  0.30925721  0.31608266  1
  Zn  Zn131  1  0.31382248  0.31459452  0.81515573  1
  Zn  Zn132  1  0.31363894  0.81024403  0.31074343  1
  Zn  Zn133  1  0.31209014  0.81358068  0.81158547  1
  Zn  Zn134  1  0.81580748  0.31347296  0.31514857  1
  Zn  Zn135  1  0.81160142  0.31240883  0.81050706  1
  Zn  Zn136  1  0.81283658  0.81319314  0.31089496  1
  Zn  Zn137  1  0.81209366  0.81426700  0.81224547  1
  Zn  Zn138  1  0.18878890  0.43602550  0.43761604  1
  Zn  Zn139  1  0.18609842  0.43999540  0.93726734  1
  Zn  Zn140  1  0.18889568  0.93907948  0.43649276  1
  Zn  Zn141  1  0.18687525  0.94013341  0.93606078  1
  Zn  Zn142  1  0.68917815  0.43652821  0.43834135  1
  Zn  Zn143  1  0.68855894  0.43493228  0.93773524  1
  Zn  Zn144  1  0.68666482  0.93883048  0.43655332  1
  Zn  Zn145  1  0.68935910  0.93474054  0.93914524  1
  Zn  Zn146  1  0.31072457  0.06403969  0.06256918  1
  Zn  Zn147  1  0.31205634  0.05980704  0.56097065  1
  Zn  Zn148  1  0.29892430  0.56331664  0.06167705  1
  Zn  Zn149  1  0.31101198  0.56081511  0.56140337  1
  Zn  Zn150  1  0.81147697  0.06471036  0.06112341  1
  Zn  Zn151  1  0.81373824  0.06297573  0.56241478  1
  Zn  Zn152  1  0.80848197  0.56495279  0.06212370  1
  Zn  Zn153  1  0.81083671  0.56158533  0.56375193  1
  Zn  Zn154  1  0.43788813  0.42949574  0.19303058  1
  Zn  Zn155  1  0.43650527  0.43939606  0.68907302  1
  Zn  Zn156  1  0.43860735  0.93208842  0.18585327  1
  Zn  Zn157  1  0.43571612  0.93916293  0.68694097  1
  Zn  Zn158  1  0.94328848  0.43506285  0.18901370  1
  Zn  Zn159  1  0.93813154  0.43704096  0.68841284  1
  Zn  Zn160  1  0.93806000  0.93661823  0.18787613  1
  Zn  Zn161  1  0.93925875  0.93871579  0.68675833  1
  Zn  Zn162  1  0.06461441  0.06320688  0.31257518  1
  Zn  Zn163  1  0.06298508  0.06401720  0.81371837  1
  Zn  Zn164  1  0.06247126  0.56107279  0.31065540  1
  Zn  Zn165  1  0.06137400  0.56040465  0.81006278  1
  Zn  Zn166  1  0.56550337  0.06149750  0.31426917  1
  Zn  Zn167  1  0.56034489  0.06296791  0.81168323  1
  Zn  Zn168  1  0.56300805  0.56105353  0.31090775  1
  Zn  Zn169  1  0.56220148  0.56543431  0.81051297  1
  Zn  Zn170  1  0.43760739  0.18699148  0.43748833  1
  Zn  Zn171  1  0.43548607  0.18944112  0.93774538  1
  Zn  Zn172  1  0.43732753  0.68597795  0.43550528  1
  Zn  Zn173  1  0.43930523  0.69175561  0.93293298  1
  Zn  Zn174  1  0.93998038  0.19139312  0.43700029  1
  Zn  Zn175  1  0.93686126  0.18706487  0.93663438  1
  Zn  Zn176  1  0.93599724  0.68824696  0.43682863  1
  Zn  Zn177  1  0.93651780  0.68691181  0.93933283  1
  Zn  Zn178  1  0.06297376  0.31369319  0.06525913  1
  Zn  Zn179  1  0.06367534  0.31084376  0.56238097  1
  Zn  Zn180  1  0.06109114  0.81355830  0.06338307  1
  Zn  Zn181  1  0.06347881  0.81004299  0.56190559  1
  Zn  Zn182  1  0.56339367  0.31278850  0.06632715  1
  Zn  Zn183  1  0.56266586  0.31152655  0.56171588  1
  Zn  Zn184  1  0.56119416  0.81602420  0.06118224  1
  Zn  Zn185  1  0.56116016  0.81281668  0.56189583  1
  O  O186  1  0.12511304  0.12448368  0.11233159  1
  O  O187  1  0.12492459  0.12314056  0.61171820  1
  O  O188  1  0.12088665  0.61910368  0.12146202  1
  O  O189  1  0.11671779  0.61720749  0.62434605  1
  O  O190  1  0.62170577  0.11209070  0.12443228  1
  O  O191  1  0.61935248  0.12049884  0.62074784  1
  O  O192  1  0.62970066  0.60717843  0.12608106  1
  O  O193  1  0.62469126  0.61807674  0.61805341  1
  O  O194  1  0.38082873  0.37965919  0.38180468  1
  O  O195  1  0.38938386  0.37852903  0.87768952  1
  O  O196  1  0.37943899  0.88153330  0.38023092  1
  O  O197  1  0.37520527  0.88265620  0.88111858  1
  O  O198  1  0.88168426  0.37582756  0.38645815  1
  O  O199  1  0.87262360  0.37998424  0.88435410  1
  O  O200  1  0.88084030  0.87985407  0.38102824  1
  O  O201  1  0.88270426  0.88212919  0.87460901  1
  O  O202  1  0.25970726  0.00764364  0.37425891  1
  O  O203  1  0.25681955  0.00963590  0.87410241  1
  O  O204  1  0.25645457  0.51190559  0.38092460  1
  O  O205  1  0.25216124  0.50826800  0.86946984  1
  O  O206  1  0.75449972  0.00719959  0.36855681  1
  O  O207  1  0.75573769  0.00037861  0.86739754  1
  O  O208  1  0.75070821  0.50412027  0.36705035  1
  O  O209  1  0.75329236  0.50466042  0.86890784  1
  O  O210  1  0.23366272  0.49633999  0.12396590  1
  O  O211  1  0.24185141  0.49487899  0.63183522  1
  O  O212  1  0.24930841  0.99229339  0.12732476  1
  O  O213  1  0.24731966  0.99037314  0.62629906  1
  O  O214  1  0.74240511  0.49362297  0.13474076  1
  O  O215  1  0.74446036  0.49075201  0.63063317  1
  O  O216  1  0.74313615  1.00169331  0.13377438  1
  O  O217  1  0.74454125  0.99508156  0.62945428  1
  O  O218  1  0.00939902  0.37196865  0.25966553  1
  O  O219  1  0.00578034  0.36592150  0.74963628  1
  O  O220  1  0.00688939  0.86994430  0.25675374  1
  O  O221  1  0.00487339  0.86892364  0.75472475  1
  O  O222  1  0.50736986  0.36406332  0.25943343  1
  O  O223  1  0.50347695  0.36759584  0.75713742  1
  O  O224  1  0.50016997  0.86232232  0.25679990  1
  O  O225  1  0.50629147  0.87043493  0.74881297  1
  O  O226  1  0.50524839  0.13848120  0.25212725  1
  O  O227  1  0.49263766  0.13270784  0.74532996  1
  O  O228  1  0.48930190  0.63567239  0.25746089  1
  O  O229  1  0.49260007  0.63264184  0.74686171  1
  O  O230  1  0.99716039  0.12896539  0.24843926  1
  O  O231  1  0.99450443  0.13421877  0.74809545  1
  O  O232  1  0.99841506  0.63208481  0.24406236  1
  O  O233  1  0.99407034  0.63088964  0.74140558  1
  O  O234  1  0.36758954  0.25323382  0.00854229  1
  O  O235  1  0.36497984  0.25631755  0.49574557  1
  O  O236  1  0.36850283  0.75656999  0.00262519  1
  O  O237  1  0.37038446  0.75527204  0.50327230  1
  O  O238  1  0.86958702  0.25703692  0.00592961  1
  O  O239  1  0.87928933  0.25921009  0.51459609  1
  O  O240  1  0.87472469  0.75112206  0.01211597  1
  O  O241  1  0.86837636  0.75609701  0.50537965  1
  O  O242  1  0.13525521  0.24156278  0.49821139  1
  O  O243  1  0.13334822  0.24426988  1.00053380  1
  O  O244  1  0.13145027  0.74637905  0.49201732  1
  O  O245  1  0.12888332  0.74564226  0.99420618  1
  O  O246  1  0.61874168  0.24133089  0.49146074  1
  O  O247  1  0.62935374  0.25040159  0.99184385  1
  O  O248  1  0.62994339  0.74498329  0.49481823  1
  O  O249  1  0.62516093  0.75466622  0.98516932  1
  O  O250  1  0.49400721  0.24865893  0.13411409  1
  O  O251  1  0.50665735  0.24506884  0.63894912  1
  O  O252  1  0.49448339  0.75623566  0.13609397  1
  O  O253  1  0.49272975  0.74861603  0.62925639  1
  O  O254  1  0.98794185  0.24864419  0.12441606  1
  O  O255  1  0.99098337  0.24921425  0.63509448  1
  O  O256  1  0.99352856  0.74469881  0.13067207  1
  O  O257  1  0.99408868  0.74185853  0.63048962  1
  O  O258  1  0.00304061  0.26430013  0.37463200  1
  O  O259  1  -0.00039070  0.25289358  0.86190047  1
  O  O260  1  0.00537257  0.75509923  0.37058221  1
  O  O261  1  0.00396547  0.75471552  0.86952993  1
  O  O262  1  0.50505503  0.25417258  0.36931624  1
  O  O263  1  0.50644110  0.25864203  0.86666651  1
  O  O264  1  0.50419824  0.75440228  0.36712475  1
  O  O265  1  0.51006812  0.75578333  0.86497063  1
  O  O266  1  0.24548393  0.13093227  0.49465350  1
  O  O267  1  0.24316517  0.13489490  0.99577300  1
  O  O268  1  0.25007910  0.63086660  0.48831736  1
  O  O269  1  0.24110174  0.63381641  0.99256674  1
  O  O270  1  0.74359614  0.11766044  0.48845961  1
  O  O271  1  0.74558654  0.13307820  0.99499123  1
  O  O272  1  0.74457436  0.63070180  0.49573071  1
  O  O273  1  0.74197465  0.62914616  0.99119185  1
  O  O274  1  0.25150731  0.36469741  0.00046152  1
  O  O275  1  0.25516025  0.36649769  0.50400354  1
  O  O276  1  0.25347326  0.87069198  0.00450675  1
  O  O277  1  0.25499435  0.86822366  0.50339364  1
  O  O278  1  0.75928646  0.36848777  0.00562930  1
  O  O279  1  0.75799026  0.37713165  0.51300871  1
  O  O280  1  0.75530735  0.87043141  0.00503841  1
  O  O281  1  0.75520435  0.87070262  0.50456044  1
  O  O282  1  0.12009505  0.49092481  0.24011109  1
  O  O283  1  0.13202559  0.49448900  0.74175738  1
  O  O284  1  0.12893885  0.99098769  0.24860572  1
  O  O285  1  0.12682215  0.99290361  0.74873982  1
  O  O286  1  0.63490722  0.49372173  0.24417459  1
  O  O287  1  0.63005108  0.49453490  0.74384035  1
  O  O288  1  0.63234233  0.99854527  0.24326938  1
  O  O289  1  0.62900344  0.99652798  0.74371471  1
  O  O290  1  0.37580036  -0.00565895  0.26314463  1
  O  O291  1  0.37455967  0.01178276  0.75595757  1
  O  O292  1  0.38362420  0.51071802  0.25606259  1
  O  O293  1  0.36853535  0.50829236  0.75292506  1
  O  O294  1  0.86664524  0.00056038  0.25631135  1
  O  O295  1  0.87033337  0.00540939  0.75360377  1
  O  O296  1  0.86228779  0.49788057  0.24952849  1
  O  O297  1  0.86897983  0.50444969  0.75521459  1
  O  O298  1  0.11873370  0.37658877  0.36963425  1
  O  O299  1  0.12251556  0.37338488  0.86649960  1
  O  O300  1  0.12076252  0.86898090  0.37042333  1
  O  O301  1  0.11946619  0.86924044  0.86970417  1
  O  O302  1  0.62095299  0.36896266  0.37235838  1
  O  O303  1  0.61642854  0.36726528  0.86997933  1
  O  O304  1  0.61796480  0.86816471  0.37430929  1
  O  O305  1  0.62482455  0.86751651  0.86593807  1
  O  O306  1  0.37570728  0.13908497  0.12273981  1
  O  O307  1  0.38089954  0.11939783  0.63620498  1
  O  O308  1  0.37311790  0.62654615  0.13195962  1
  O  O309  1  0.37446419  0.63183534  0.63018136  1
  O  O310  1  0.87548000  0.13673597  0.12592968  1
  O  O311  1  0.87476841  0.13498239  0.62965863  1
  O  O312  1  0.88019544  0.63312867  0.12722609  1
  O  O313  1  0.88069810  0.62882657  0.63022215  1
  O  O314  1  0.25823176  0.25326680  0.11777768  1
  O  O315  1  0.24607920  0.25722352  0.61318416  1
  O  O316  1  0.25676285  0.75409725  0.11751158  1
  O  O317  1  0.25500974  0.75476363  0.61849487  1
  O  O318  1  0.75630039  0.25424806  0.12082611  1
  O  O319  1  0.75946025  0.26094547  0.63415549  1
  O  O320  1  0.75978210  0.75016859  0.12733876  1
  O  O321  1  0.75489457  0.75552380  0.61941486  1
  O  O322  1  0.24950630  0.24091647  0.38664409  1
  O  O323  1  0.25093440  0.24554084  0.88552482  1
  O  O324  1  0.24615457  0.74082233  0.37899141  1
  O  O325  1  0.24287975  0.74578405  0.87954540  1
  O  O326  1  0.74457710  0.23701434  0.36722080  1
  O  O327  1  0.73818354  0.25218078  0.87860271  1
  O  O328  1  0.74458056  0.74537132  0.37970752  1
  O  O329  1  0.74067293  0.74497669  0.87142554  1
  O  O330  1  0.00904973  0.11818579  -0.00129284  1
  O  O331  1  0.01040187  0.12089136  0.49885691  1
  O  O332  1  0.00649203  0.62425752  0.00744435  1
  O  O333  1  0.00000283  0.62952830  0.51436086  1
  O  O334  1  0.50023510  0.11304918  0.00167353  1
  O  O335  1  0.50508812  0.11978083  0.50530551  1
  O  O336  1  0.50808920  0.63152230  -0.00451797  1
  O  O337  1  0.50615637  0.61767885  0.49988740  1
  O  O338  1  0.49536431  0.37937678  0.49552416  1
  O  O339  1  0.50179403  0.36937235  0.98491502  1
  O  O340  1  0.49435124  0.88067638  0.49427905  1
  O  O341  1  0.49227966  0.88787752  0.99832343  1
  O  O342  1  0.99231462  0.37146551  0.49403347  1
  O  O343  1  0.98698218  0.37489755  0.99815176  1
  O  O344  1  0.99498131  0.87860511  0.49451127  1
  O  O345  1  1.00054489  0.88604566  0.99335221  1
  O  O346  1  0.49573152  0.49247021  0.38009702  1
  O  O347  1  0.50352245  0.48446705  0.86969287  1
  O  O348  1  0.49403505  0.99552590  0.37955817  1
  O  O349  1  0.49453261  0.99946730  0.88345269  1
  O  O350  1  0.99767382  0.48687030  0.37106814  1
  O  O351  1  0.99020276  0.49835146  0.87729653  1
  O  O352  1  0.99477906  0.99363485  0.38077676  1
  O  O353  1  0.99508709  0.99597558  0.88267617  1
  O  O354  1  0.00163593  0.00172090  0.11305871  1
  O  O355  1  0.00225627  0.00347106  0.61592160  1
  O  O356  1  0.00865509  0.50618059  0.12278761  1
  O  O357  1  0.00989359  0.50960913  0.63397120  1
  O  O358  1  0.50570097  0.00064683  0.11859960  1
  O  O359  1  0.50541202  0.00632128  0.61891666  1
  O  O360  1  0.51681663  0.49241520  0.13308251  1
  O  O361  1  0.50755709  0.50011245  0.61816496  1
  O  O362  1  0.23668854  0.37083618  0.25421581  1
  O  O363  1  0.24658001  0.37873878  0.74546323  1
  O  O364  1  0.24467736  0.87334913  0.24350593  1
  O  O365  1  0.24340908  0.87574191  0.74313065  1
  O  O366  1  0.74571458  0.38125658  0.24794892  1
  O  O367  1  0.74451255  0.38049393  0.74105305  1
  O  O368  1  0.74725061  0.88837205  0.24980391  1
  O  O369  1  0.74472977  0.88138358  0.74223838  1
  O  O370  1  0.24272324  0.12677781  0.26566648  1
  O  O371  1  0.25866784  0.12810069  0.75466947  1
  O  O372  1  0.26269878  0.63235218  0.26028935  1
  O  O373  1  0.25368634  0.62095362  0.75456828  1
  O  O374  1  0.75142851  0.11365144  0.26091673  1
  O  O375  1  0.75571083  0.11854609  0.75136305  1
  O  O376  1  0.75139268  0.61439373  0.25759682  1
  O  O377  1  0.75619238  0.61888718  0.75381185  1
  O  O378  1  0.36629195  0.11398170  0.38250221  1
  O  O379  1  0.37096951  0.12157109  0.86582323  1
  O  O380  1  0.36826109  0.61950370  0.36721662  1
  O  O381  1  0.36676260  0.62729719  0.86701728  1
  O  O382  1  0.86702724  0.12034085  0.37722442  1
  O  O383  1  0.87274071  0.11886020  0.86721293  1
  O  O384  1  0.86759674  0.62179481  0.37362513  1
  O  O385  1  0.86886900  0.62026155  0.86955815  1
  O  O386  1  0.12510976  0.38246995  0.13421662  1
  O  O387  1  0.13127156  0.38188009  0.63025781  1
  O  O388  1  0.13170909  0.87482970  0.13150947  1
  O  O389  1  0.13060189  0.87356303  0.63122931  1
  O  O390  1  0.63217391  0.38089209  0.13266978  1
  O  O391  1  0.63274114  0.37844199  0.62843658  1
  O  O392  1  0.62628255  0.88856087  0.12761920  1
  O  O393  1  0.63060349  0.88154108  0.62784320  1
  O  O394  1  0.12180084  0.26168378  0.25275211  1
  O  O395  1  0.11583622  0.25499824  0.74930272  1
  O  O396  1  0.11979610  0.75567050  0.25579847  1
  O  O397  1  0.11880293  0.75481065  0.75584309  1
  O  O398  1  0.61828598  0.25464356  0.25655722  1
  O  O399  1  0.61654798  0.25520634  0.75788701  1
  O  O400  1  0.61639243  0.74856515  0.25494173  1
  O  O401  1  0.62057160  0.75627654  0.75478251  1
  O  O402  1  0.38591539  0.25641858  0.24308798  1
  O  O403  1  0.38528699  0.24064766  0.75698389  1
  O  O404  1  0.38225697  0.74056514  0.24347816  1
  O  O405  1  0.37932987  0.74590875  0.74361768  1
  O  O406  1  0.87500492  0.25082855  0.23773936  1
  O  O407  1  0.88174256  0.24715361  0.74201095  1
  O  O408  1  0.88168313  0.74917692  0.24218458  1
  O  O409  1  0.87947428  0.74445783  0.74418463  1
  O  O410  1  0.38079153  0.49401145  0.49300267  1
  O  O411  1  0.37652197  0.50141866  1.00407606  1
  O  O412  1  0.38132590  0.99361842  0.49113188  1
  O  O413  1  0.38169140  0.99736469  0.99542357  1
  O  O414  1  0.87250986  0.48634515  0.50270677  1
  O  O415  1  0.87251349  0.49003428  0.99638598  1
  O  O416  1  0.88076919  0.99413956  0.49490556  1
  O  O417  1  0.88533560  1.00181930  0.99398074  1
  O  O418  1  0.11667189  0.01002254  -0.00057193  1
  O  O419  1  0.12014125  0.00854897  0.49969701  1
  O  O420  1  0.12227127  0.50646625  0.00889852  1
  O  O421  1  0.13063205  0.50065698  0.51563677  1
  O  O422  1  0.61633876  0.00017634  0.00685582  1
  O  O423  1  0.61887594  0.00653170  0.50510003  1
  O  O424  1  0.63110996  0.49511738  0.01778586  1
  O  O425  1  0.62010790  0.50413305  0.50423415  1
  O  O426  1  0.37355734  0.36387103  0.12487898  1
  O  O427  1  0.36645302  0.38290593  0.61669420  1
  O  O428  1  0.36869833  0.86745362  0.11801179  1
  O  O429  1  0.36926134  0.86961931  0.61846426  1
  O  O430  1  0.87091679  0.36808916  0.11732257  1
  O  O431  1  0.86904260  0.36958742  0.62082238  1
  O  O432  1  0.87565378  0.86253795  0.12438679  1
  O  O433  1  0.86984338  0.86916784  0.61984197  1
  O  O434  1  0.13529819  0.12470440  0.38693539  1
  O  O435  1  0.13115724  0.12916635  0.88577413  1
  O  O436  1  0.13360672  0.62870898  0.37417574  1
  O  O437  1  0.12830170  0.63067579  0.87877898  1
  O  O438  1  0.63344616  0.12873102  0.38100775  1
  O  O439  1  0.62347017  0.13856985  0.87468406  1
  O  O440  1  0.63053283  0.63007360  0.38082458  1
  O  O441  1  0.63107887  0.63665624  0.87019507  1
