# generated using pymatgen
data_V93Zn93O256
_symmetry_space_group_name_H-M   'P 1'
_cell_length_a   17.04872208
_cell_length_b   17.04808828
_cell_length_c   17.04942267
_cell_angle_alpha   89.99267425
_cell_angle_beta   89.98703466
_cell_angle_gamma   90.07190683
_symmetry_Int_Tables_number   1
_chemical_formula_structural   V93Zn93O256
_chemical_formula_sum   'V93 Zn93 O256'
_cell_volume   4955.37856001
_cell_formula_units_Z   1
loop_
 _symmetry_equiv_pos_site_id
 _symmetry_equiv_pos_as_xyz
  1  'x, y, z'
loop_
 _atom_site_type_symbol
 _atom_site_label
 _atom_site_symmetry_multiplicity
 _atom_site_fract_x
 _atom_site_fract_y
 _atom_site_fract_z
 _atom_site_occupancy
  V  V0  1  0.36606214  0.74847084  0.62455801  1
  V  V1  1  0.49981368  0.62509866  0.12575210  1
  V  V2  1  0.25490008  0.62628247  0.87253479  1
  V  V3  1  0.50842514  0.37575347  0.87069822  1
  V  V4  1  0.62362383  0.24995846  0.37533745  1
  V  V5  1  0.24201659  0.87963457  0.12278692  1
  V  V6  1  0.50555225  0.25325957  0.74961219  1
  V  V7  1  0.62334256  0.87467032  0.24985607  1
  V  V8  1  0.75062832  0.24919308  0.00022554  1
  V  V9  1  0.12535331  0.37541802  0.24942928  1
  V  V10  1  0.87769179  0.24851462  0.12550918  1
  V  V11  1  0.24178972  0.00158780  0.24439514  1
  V  V12  1  0.12676683  0.37588692  0.74915786  1
  V  V13  1  0.87407889  0.12602512  0.25031040  1
  V  V14  1  0.37340491  0.24829122  0.62901715  1
  V  V15  1  0.75037206  0.00101495  0.75032873  1
  V  V16  1  0.75140204  0.62974161  0.88182526  1
  V  V17  1  0.74952866  0.49882163  0.25100886  1
  V  V18  1  0.37396933  0.12484842  0.24941331  1
  V  V19  1  0.12608314  0.50262310  0.12424151  1
  V  V20  1  0.87624609  0.50019021  0.87682920  1
  V  V21  1  0.12716181  0.87683949  0.74654404  1
  V  V22  1  0.62411739  -0.00018469  0.12443940  1
  V  V23  1  0.12546175  0.25073307  0.37532151  1
  V  V24  1  0.62950130  0.75071253  0.88223224  1
  V  V25  1  0.87477392  0.37476658  0.50148251  1
  V  V26  1  -0.00076183  0.12503714  0.62787758  1
  V  V27  1  0.49568613  -0.00233739  0.49961685  1
  V  V28  1  0.74481005  0.49572004  0.75177418  1
  V  V29  1  0.74812723  -0.00010114  0.25029146  1
  V  V30  1  0.12751202  0.75200504  0.37828834  1
  V  V31  1  0.37834877  0.50525350  0.87116092  1
  V  V32  1  0.37390752  0.37381106  0.50096900  1
  V  V33  1  0.25134686  0.25082834  -0.00201411  1
  V  V34  1  0.24960179  0.63079281  0.38130918  1
  V  V35  1  0.49867270  0.74989899  0.25025792  1
  V  V36  1  -0.00001994  0.74908819  0.74910645  1
  V  V37  1  0.49790345  0.87555178  0.37545799  1
  V  V38  1  0.50018454  0.25037733  0.25051313  1
  V  V39  1  0.49676118  0.62566654  0.63357968  1
  V  V40  1  0.87652275  0.00078721  0.87793160  1
  V  V41  1  0.25180358  0.75167556  -0.00082162  1
  V  V42  1  0.87530285  0.62497330  0.75152413  1
  V  V43  1  0.12710498  0.74944717  0.87434577  1
  V  V44  1  0.74883374  0.74928010  0.50248329  1
  V  V45  1  0.87243147  -0.00130870  0.37577165  1
  V  V46  1  0.62589578  0.49843905  0.12607578  1
  V  V47  1  0.00249271  0.37492161  0.87522682  1
  V  V48  1  -0.00030334  0.87635878  0.87634233  1
  V  V49  1  0.50160913  0.50057751  -0.00011316  1
  V  V50  1  0.37582290  0.00224719  0.87042548  1
  V  V51  1  0.50064694  0.87516751  0.87527971  1
  V  V52  1  0.12716675  0.62494401  0.00094023  1
  V  V53  1  0.25402432  0.00242548  0.74673431  1
  V  V54  1  0.74934425  0.62465545  0.37751814  1
  V  V55  1  0.37484441  0.50068640  0.37548232  1
  V  V56  1  -0.00161682  0.87348096  0.37284655  1
  V  V57  1  0.25132972  0.37553891  0.12361941  1
  V  V58  1  0.25482400  0.50380182  0.74890700  1
  V  V59  1  0.25504804  0.12748607  0.86927777  1
  V  V60  1  0.87454076  0.24885519  0.62667928  1
  V  V61  1  0.00041925  0.62298749  0.62468099  1
  V  V62  1  0.74893998  0.24978697  0.50144663  1
  V  V63  1  0.37569368  0.25167725  0.12386651  1
  V  V64  1  0.49915283  0.00165360  -0.00116956  1
  V  V65  1  0.50035765  0.50043244  0.50147413  1
  V  V66  1  0.87309507  0.74979238  0.62478849  1
  V  V67  1  -0.00267030  0.00004567  0.49967373  1
  V  V68  1  -0.00054804  0.24988393  0.24957161  1
  V  V69  1  0.12328133  0.11867744  0.00389270  1
  V  V70  1  0.87007615  0.74866265  0.11880234  1
  V  V71  1  0.87775624  0.37393591  0.00085714  1
  V  V72  1  0.00119385  0.50104459  0.50207427  1
  V  V73  1  0.62272606  0.12341357  0.50107411  1
  V  V74  1  0.62371490  0.62369287  0.50316228  1
  V  V75  1  0.12536466  0.12672315  0.49880580  1
  V  V76  1  0.87481103  0.49989758  0.37603803  1
  V  V77  1  0.62210176  -0.00180803  0.62581545  1
  V  V78  1  0.00016661  0.37572125  0.37586437  1
  V  V79  1  0.49986793  0.37436939  0.37559516  1
  V  V80  1  0.49252792  0.12260774  0.63209235  1
  V  V81  1  0.62562979  0.12714834  -0.00165733  1
  V  V82  1  0.25047415  0.50142526  0.24960588  1
  V  V83  1  0.87744600  0.62625880  0.24996831  1
  V  V84  1  0.37368128  0.00010005  0.37317539  1
  V  V85  1  0.37433134  0.87570231  -0.00134527  1
  V  V86  1  0.74280425  0.37471733  0.63056987  1
  V  V87  1  0.74874205  0.86997441  0.11804877  1
  V  V88  1  0.62241373  0.87201433  0.74939857  1
  V  V89  1  0.37516658  0.62623210  0.25010683  1
  V  V90  1  0.74852235  0.12465036  0.37608689  1
  V  V91  1  0.49963593  0.12613959  0.12384559  1
  V  V92  1  0.62348261  0.74941443  0.37632582  1
  Zn  Zn93  1  0.00168653  0.50158478  0.00255332  1
  Zn  Zn94  1  0.62041054  0.49709200  0.63032085  1
  Zn  Zn95  1  0.12800944  0.62719503  0.50255675  1
  Zn  Zn96  1  0.62652358  0.37402383  0.25142979  1
  Zn  Zn97  1  0.87129359  0.87064972  -0.00180208  1
  Zn  Zn98  1  0.12886204  0.50133604  0.62240709  1
  Zn  Zn99  1  0.00127676  0.62713424  0.12340192  1
  Zn  Zn100  1  0.00484690  -0.00632407  0.00966725  1
  Zn  Zn101  1  0.24990418  0.37566214  0.62396433  1
  Zn  Zn102  1  0.25036183  0.25120073  0.49957332  1
  Zn  Zn103  1  0.74989626  0.87413553  0.62342492  1
  Zn  Zn104  1  0.12012156  0.87814992  0.24412553  1
  Zn  Zn105  1  0.35973572  0.86603455  0.49248677  1
  Zn  Zn106  1  0.63033918  0.25310706  0.86970046  1
  Zn  Zn107  1  0.87659165  0.12586176  0.75220255  1
  Zn  Zn108  1  0.00085220  0.75180797  0.24790250  1
  Zn  Zn109  1  0.62964170  0.62998808  0.00443649  1
  Zn  Zn110  1  0.37444371  0.75121402  0.12450833  1
  Zn  Zn111  1  0.00601644  0.11580776  0.13166977  1
  Zn  Zn112  1  0.75119101  0.12631070  0.87504338  1
  Zn  Zn113  1  0.87180866  0.87380448  0.50097373  1
  Zn  Zn114  1  0.49308874  0.74150912  0.75497648  1
  Zn  Zn115  1  0.37617907  0.37523584  -0.00206486  1
  Zn  Zn116  1  0.12599360  -0.00053504  0.62209813  1
  Zn  Zn117  1  0.00068809  0.25013542  0.74991046  1
  Zn  Zn118  1  0.24652535  0.87256898  0.61485628  1
  Zn  Zn119  1  0.24987908  0.12549593  0.37350354  1
  Zn  Zn120  1  0.75222564  0.37498618  0.12729744  1
  Zn  Zn121  1  0.12692419  0.24987478  0.87371446  1
  Zn  Zn122  1  0.18850348  0.18902971  0.18596720  1
  Zn  Zn123  1  0.18695939  0.18906964  0.68692241  1
  Zn  Zn124  1  0.18765620  0.69212708  0.19011866  1
  Zn  Zn125  1  0.18625330  0.68484299  0.68825263  1
  Zn  Zn126  1  0.68756558  0.18810611  0.18628236  1
  Zn  Zn127  1  0.68515990  0.18483017  0.68643783  1
  Zn  Zn128  1  0.68783441  0.68632292  0.18993828  1
  Zn  Zn129  1  0.68602619  0.68475259  0.69027658  1
  Zn  Zn130  1  0.31161992  0.31163870  0.31330095  1
  Zn  Zn131  1  0.31849430  0.31610482  0.81101495  1
  Zn  Zn132  1  0.31037162  0.81444188  0.30913500  1
  Zn  Zn133  1  0.31475555  0.81335906  0.80754441  1
  Zn  Zn134  1  0.81166852  0.31311044  0.31283955  1
  Zn  Zn135  1  0.81588476  0.31199696  0.81266942  1
  Zn  Zn136  1  0.81083325  0.81146415  0.31040617  1
  Zn  Zn137  1  0.81184722  0.81340487  0.81057014  1
  Zn  Zn138  1  0.18835776  0.43933251  0.43830690  1
  Zn  Zn139  1  0.18961837  0.43916838  0.93712067  1
  Zn  Zn140  1  0.18572670  0.94012838  0.43352920  1
  Zn  Zn141  1  0.18946146  0.93888248  0.93376730  1
  Zn  Zn142  1  0.68635342  0.43719585  0.44076982  1
  Zn  Zn143  1  0.68960170  0.43840986  0.94048520  1
  Zn  Zn144  1  0.68482609  0.93553620  0.43929906  1
  Zn  Zn145  1  0.68683936  0.93965509  0.93671929  1
  Zn  Zn146  1  0.31156393  0.06332262  0.05999937  1
  Zn  Zn147  1  0.31103218  0.05994654  0.56037900  1
  Zn  Zn148  1  0.31495568  0.56288898  0.06001492  1
  Zn  Zn149  1  0.31623426  0.56377211  0.56445003  1
  Zn  Zn150  1  0.81461940  0.06128733  0.06369240  1
  Zn  Zn151  1  0.81188321  0.06104897  0.56374809  1
  Zn  Zn152  1  0.81383389  0.56028976  0.06312091  1
  Zn  Zn153  1  0.81278710  0.56142499  0.56513695  1
  Zn  Zn154  1  0.43812957  0.43708873  0.18859622  1
  Zn  Zn155  1  0.43794382  0.43498412  0.68808775  1
  Zn  Zn156  1  0.43271871  0.93743832  0.18606367  1
  Zn  Zn157  1  0.43371970  0.93054097  0.68498898  1
  Zn  Zn158  1  0.93965775  0.43844914  0.18606469  1
  Zn  Zn159  1  0.93489868  0.43770225  0.68826239  1
  Zn  Zn160  1  0.93414813  0.93848864  0.18627735  1
  Zn  Zn161  1  0.93673011  0.93685423  0.68693071  1
  Zn  Zn162  1  0.06027773  0.06208035  0.31408208  1
  Zn  Zn163  1  0.06757177  0.06261432  0.81487842  1
  Zn  Zn164  1  0.06406537  0.56308424  0.31378852  1
  Zn  Zn165  1  0.06567819  0.56112565  0.81302135  1
  Zn  Zn166  1  0.56087259  0.06283181  0.31207227  1
  Zn  Zn167  1  0.56393243  0.06517073  0.81300663  1
  Zn  Zn168  1  0.56213395  0.56239754  0.31285577  1
  Zn  Zn169  1  0.56684209  0.56311974  0.81535268  1
  Zn  Zn170  1  0.43619213  0.18555909  0.43988091  1
  Zn  Zn171  1  0.43716605  0.18939696  0.93504819  1
  Zn  Zn172  1  0.43645093  0.68745445  0.44205104  1
  Zn  Zn173  1  0.44087099  0.68781290  0.93897596  1
  Zn  Zn174  1  0.93721191  0.18809927  0.43799799  1
  Zn  Zn175  1  0.93896535  0.18836668  0.93621731  1
  Zn  Zn176  1  0.93823573  0.68848920  0.43901194  1
  Zn  Zn177  1  0.93997959  0.68739189  0.93894801  1
  Zn  Zn178  1  0.06505226  0.30845301  0.06180718  1
  Zn  Zn179  1  0.06282398  0.31288824  0.56437628  1
  Zn  Zn180  1  0.06013505  0.80764792  0.06297570  1
  Zn  Zn181  1  0.06070940  0.81098386  0.55918987  1
  Zn  Zn182  1  0.56283953  0.31518758  0.05986297  1
  Zn  Zn183  1  0.56043959  0.31105452  0.56216167  1
  Zn  Zn184  1  0.56101425  0.81289880  0.06278080  1
  Zn  Zn185  1  0.55624751  0.80985845  0.56270407  1
  O  O186  1  0.12711172  0.12966326  0.10756815  1
  O  O187  1  0.11509740  0.12649986  0.61594783  1
  O  O188  1  0.12710253  0.62112604  0.11948655  1
  O  O189  1  0.11631020  0.62280224  0.62237636  1
  O  O190  1  0.61923910  0.11913226  0.11944983  1
  O  O191  1  0.61435063  0.11780052  0.61991742  1
  O  O192  1  0.62068163  0.61559621  0.12576124  1
  O  O193  1  0.61638978  0.62237308  0.62003049  1
  O  O194  1  0.38039388  0.38027139  0.38015030  1
  O  O195  1  0.38693806  0.38681633  0.87667733  1
  O  O196  1  0.38127039  0.88154851  0.37306065  1
  O  O197  1  0.38103974  0.88119778  0.87940852  1
  O  O198  1  0.88013618  0.37978317  0.38149804  1
  O  O199  1  0.88445106  0.38009836  0.88007312  1
  O  O200  1  0.88135751  0.87965932  0.37515194  1
  O  O201  1  0.88341326  0.88034919  0.87475287  1
  O  O202  1  0.25611780  0.00349045  0.36173939  1
  O  O203  1  0.25561921  0.00741513  0.86602534  1
  O  O204  1  0.25546533  0.50790378  0.36785817  1
  O  O205  1  0.26037454  0.50497519  0.86951743  1
  O  O206  1  0.75143887  0.00521804  0.37063102  1
  O  O207  1  0.75884927  -0.00085321  0.86687248  1
  O  O208  1  0.75537700  0.50513944  0.37237832  1
  O  O209  1  0.75598860  0.50574684  0.86933303  1
  O  O210  1  0.24664833  0.49561557  0.13032166  1
  O  O211  1  0.25200196  0.49939056  0.63633900  1
  O  O212  1  0.25633149  0.99143119  0.13204598  1
  O  O213  1  0.24658760  1.00091062  0.63628686  1
  O  O214  1  0.74143663  0.49941733  0.13116452  1
  O  O215  1  0.75084073  0.49121673  0.63463749  1
  O  O216  1  0.74415765  0.99217222  0.13128562  1
  O  O217  1  0.74239657  0.99822184  0.63398235  1
  O  O218  1  0.00568670  0.37026243  0.25629759  1
  O  O219  1  0.00879983  0.37746437  0.75816193  1
  O  O220  1  -0.00088404  0.87701676  0.26215584  1
  O  O221  1  0.00773552  0.87076826  0.75802690  1
  O  O222  1  0.50135765  0.36804688  0.25810541  1
  O  O223  1  0.49927877  0.36692334  0.75876390  1
  O  O224  1  0.50440091  0.87073595  0.25405494  1
  O  O225  1  0.51166956  0.87812079  0.75710051  1
  O  O226  1  0.49478316  0.13045802  0.24307048  1
  O  O227  1  0.50202155  0.13090171  0.73806158  1
  O  O228  1  0.49467896  0.63028970  0.24613352  1
  O  O229  1  0.50678164  0.62213976  0.73793214  1
  O  O230  1  0.99236592  0.13231256  0.25253898  1
  O  O231  1  1.00276259  0.12521646  0.73860412  1
  O  O232  1  0.98552357  0.62404219  0.25094114  1
  O  O233  1  0.99551622  0.62973844  0.74708543  1
  O  O234  1  0.36903184  0.25090890  0.00681973  1
  O  O235  1  0.37560425  0.25548066  0.50993108  1
  O  O236  1  0.36925045  0.75787350  -0.00113769  1
  O  O237  1  0.38084142  0.75162857  0.51651485  1
  O  O238  1  0.86906719  0.25290157  0.00500074  1
  O  O239  1  0.86798953  0.25474396  0.50570685  1
  O  O240  1  0.87762374  0.75035624  0.01399099  1
  O  O241  1  0.86665401  0.74908965  0.50699128  1
  O  O242  1  0.12413554  0.24244401  0.49462566  1
  O  O243  1  0.13435140  0.24112280  0.99492236  1
  O  O244  1  0.11816085  0.74612406  0.48340896  1
  O  O245  1  0.13238435  0.74544206  0.99281495  1
  O  O246  1  0.62918228  0.24307769  0.49542773  1
  O  O247  1  0.63580060  0.24553199  1.00130597  1
  O  O248  1  0.62831510  0.74358248  0.49491930  1
  O  O249  1  0.62301851  0.75114777  0.98660444  1
  O  O250  1  0.49614439  0.24573123  0.12958247  1
  O  O251  1  0.49458668  0.24255700  0.63059968  1
  O  O252  1  0.49960988  0.74382197  0.13192357  1
  O  O253  1  0.49432393  0.73994842  0.62998905  1
  O  O254  1  0.99542818  0.24519671  0.13231883  1
  O  O255  1  0.99318881  0.24082896  0.62506089  1
  O  O256  1  0.98772411  0.74801067  0.13021267  1
  O  O257  1  0.99400513  0.74352605  0.63047362  1
  O  O258  1  0.00426375  0.25705427  0.37005277  1
  O  O259  1  0.00144283  0.26364205  0.87134458  1
  O  O260  1  0.00401358  0.75888835  0.37227097  1
  O  O261  1  0.00546809  0.75797555  0.86875044  1
  O  O262  1  0.50435944  0.25376823  0.37091189  1
  O  O263  1  0.49895014  0.25834234  0.86603395  1
  O  O264  1  0.50471597  0.75459043  0.37030850  1
  O  O265  1  0.50973682  0.75566187  0.87225384  1
  O  O266  1  0.23551282  0.12563107  0.49891761  1
  O  O267  1  0.24215586  0.12939716  0.99089050  1
  O  O268  1  0.25015229  0.61794007  0.48428790  1
  O  O269  1  0.24712274  0.63193330  0.99272657  1
  O  O270  1  0.74296700  0.12966180  0.49648660  1
  O  O271  1  0.74570988  0.13406423  1.00058631  1
  O  O272  1  0.74440309  0.62868984  0.49625203  1
  O  O273  1  0.74992884  0.61897625  0.98534068  1
  O  O274  1  0.25195038  0.36878921  0.00535406  1
  O  O275  1  0.25831904  0.37342320  0.50240828  1
  O  O276  1  0.25403989  0.87238183  0.00368301  1
  O  O277  1  0.24773150  0.88134156  0.50278423  1
  O  O278  1  0.75826418  0.36519063  0.00152310  1
  O  O279  1  0.75572989  0.36956074  0.50860190  1
  O  O280  1  0.74914103  0.88086035  0.01475212  1
  O  O281  1  0.74969395  0.86574896  0.50294400  1
  O  O282  1  0.13099730  0.49487373  0.24521412  1
  O  O283  1  0.13587616  0.49123155  0.75044401  1
  O  O284  1  0.13794797  1.00063546  0.25431796  1
  O  O285  1  0.13344841  0.99055915  0.74969523  1
  O  O286  1  0.63032490  0.50004123  0.24227788  1
  O  O287  1  0.64142975  0.50263891  0.75024190  1
  O  O288  1  0.62830773  0.99505500  0.24386864  1
  O  O289  1  0.63156024  0.99215840  0.74745531  1
  O  O290  1  0.36761796  0.00659087  0.25371423  1
  O  O291  1  0.36237253  -0.00921303  0.75523430  1
  O  O292  1  0.37055776  0.50593667  0.25635400  1
  O  O293  1  0.36602441  0.49346301  0.76004130  1
  O  O294  1  0.86601337  0.00628777  0.25728061  1
  O  O295  1  0.86600663  -0.00145010  0.75836913  1
  O  O296  1  0.86998564  0.50693435  0.25552065  1
  O  O297  1  0.86680226  0.50578069  0.75747497  1
  O  O298  1  0.11945857  0.37121183  0.36900444  1
  O  O299  1  0.11829297  0.37644256  0.86748899  1
  O  O300  1  0.11381612  0.86941550  0.37192822  1
  O  O301  1  0.11871161  0.87089813  0.86590308  1
  O  O302  1  0.61805900  0.36770910  0.37635287  1
  O  O303  1  0.61276641  0.37374100  0.88095744  1
  O  O304  1  0.61845245  0.86949151  0.36852243  1
  O  O305  1  0.62163767  0.86972806  0.86892754  1
  O  O306  1  0.38086495  0.13105778  0.12866799  1
  O  O307  1  0.38495005  0.13370240  0.61753667  1
  O  O308  1  0.38179314  0.62608881  0.13186905  1
  O  O309  1  0.38489811  0.63647669  0.62161192  1
  O  O310  1  0.87441546  0.13215470  0.13372647  1
  O  O311  1  0.88444618  0.12921795  0.62525518  1
  O  O312  1  0.87242941  0.63139417  0.13411546  1
  O  O313  1  0.88012906  0.62983526  0.63281543  1
  O  O314  1  0.25647827  0.25664185  0.11932574  1
  O  O315  1  0.26184348  0.25065266  0.62400675  1
  O  O316  1  0.25279617  0.76024951  0.11775144  1
  O  O317  1  0.26265866  0.74661360  0.62923373  1
  O  O318  1  0.75663155  0.25176245  0.11587562  1
  O  O319  1  0.75337505  0.25525458  0.62130604  1
  O  O320  1  0.75611994  0.75916009  0.13179951  1
  O  O321  1  0.75489809  0.74868389  0.62109003  1
  O  O322  1  0.24140598  0.24606613  0.37694168  1
  O  O323  1  0.25490485  0.24256126  0.87770125  1
  O  O324  1  0.24132922  0.74126385  0.36719691  1
  O  O325  1  0.24663110  0.74672192  0.87798053  1
  O  O326  1  0.74442995  0.24430548  0.38177940  1
  O  O327  1  0.75115992  0.24875707  0.88632723  1
  O  O328  1  0.74313083  0.74384108  0.38038729  1
  O  O329  1  0.74275759  0.74077673  0.86833080  1
  O  O330  1  0.01748920  0.12668474  -0.00476179  1
  O  O331  1  0.00559851  0.12143551  0.50751261  1
  O  O332  1  0.01153637  0.62317674  0.00092920  1
  O  O333  1  -0.00132519  0.61742835  0.50676571  1
  O  O334  1  0.50463005  0.12104527  0.00473837  1
  O  O335  1  0.50485171  0.11838293  0.50952983  1
  O  O336  1  0.50478949  0.61850283  0.00744660  1
  O  O337  1  0.50505883  0.61866907  0.50898224  1
  O  O338  1  0.49421402  0.38004687  0.49500123  1
  O  O339  1  0.49784291  0.38219245  0.99062899  1
  O  O340  1  0.49993744  0.88225288  0.49134390  1
  O  O341  1  0.49548480  0.88223333  0.99443043  1
  O  O342  1  0.99399291  0.37982922  0.49555202  1
  O  O343  1  0.99759781  0.37528422  0.99043791  1
  O  O344  1  0.99714852  0.88109387  0.48898149  1
  O  O345  1  1.00102520  0.87402728  0.98544282  1
  O  O346  1  0.49394354  0.49535613  0.38051332  1
  O  O347  1  0.49666995  0.49530582  0.87759565  1
  O  O348  1  0.49429852  0.99511654  0.37850129  1
  O  O349  1  0.49612932  0.99611245  0.87954583  1
  O  O350  1  0.99405496  0.49448397  0.38053871  1
  O  O351  1  0.99538658  0.49055295  0.87624931  1
  O  O352  1  0.99245609  0.99268125  0.37952372  1
  O  O353  1  0.99295429  0.99072314  0.87324311  1
  O  O354  1  -0.00633861  0.00422746  0.12052572  1
  O  O355  1  0.00045686  0.00911749  0.61952728  1
  O  O356  1  0.01011031  0.50438170  0.12331097  1
  O  O357  1  -0.00146730  0.50591151  0.61963941  1
  O  O358  1  0.50420947  0.00550537  0.11893713  1
  O  O359  1  0.50095552  0.00579640  0.62184048  1
  O  O360  1  0.50763797  0.50485192  0.12188925  1
  O  O361  1  0.49915328  0.50668396  0.62035511  1
  O  O362  1  0.24481666  0.38104671  0.24472524  1
  O  O363  1  0.24270835  0.38481881  0.75137590  1
  O  O364  1  0.24883571  0.88465494  0.23906412  1
  O  O365  1  0.23914020  0.88338771  0.74881733  1
  O  O366  1  0.74737101  0.38269592  0.24841585  1
  O  O367  1  0.75787626  0.38346257  0.74163418  1
  O  O368  1  0.74226073  0.88043360  0.24258612  1
  O  O369  1  0.73918311  0.88415693  0.74934674  1
  O  O370  1  0.25593456  0.11777656  0.24736363  1
  O  O371  1  0.24133053  0.11505803  0.75913651  1
  O  O372  1  0.25606808  0.62010892  0.25773242  1
  O  O373  1  0.24353307  0.61208774  0.75845883  1
  O  O374  1  0.75316047  0.12007551  0.25651471  1
  O  O375  1  0.74981240  0.11168960  0.75160722  1
  O  O376  1  0.75851092  0.61924576  0.25777480  1
  O  O377  1  0.75620765  0.61658125  0.75984902  1
  O  O378  1  0.37426063  0.11931304  0.36708819  1
  O  O379  1  0.36306331  0.11824597  0.87970733  1
  O  O380  1  0.36894859  0.62110635  0.37035104  1
  O  O381  1  0.37262621  0.61335059  0.87844257  1
  O  O382  1  0.86747997  0.12027518  0.37093562  1
  O  O383  1  0.87540765  0.11369382  0.87219957  1
  O  O384  1  0.86931623  0.62011314  0.36863069  1
  O  O385  1  0.86972780  0.62184498  0.87116810  1
  O  O386  1  0.13138503  0.38031674  0.13046140  1
  O  O387  1  0.12709584  0.37841362  0.63601402  1
  O  O388  1  0.13779514  0.87076080  0.12332020  1
  O  O389  1  0.12213609  0.87486025  0.63671216  1
  O  O390  1  0.62581387  0.38803432  0.12787720  1
  O  O391  1  0.63907706  0.37560031  0.61974093  1
  O  O392  1  0.62992398  0.87962551  0.13020338  1
  O  O393  1  0.62231946  0.87934103  0.63513210  1
  O  O394  1  0.11963615  0.25569656  0.25453106  1
  O  O395  1  0.12436957  0.26329937  0.75244409  1
  O  O396  1  0.12015491  0.75460380  0.26137016  1
  O  O397  1  0.12048680  0.75807668  0.75505605  1
  O  O398  1  0.61850897  0.24996677  0.25684472  1
  O  O399  1  0.61103410  0.24555255  0.75048295  1
  O  O400  1  0.61891816  0.75454401  0.25690734  1
  O  O401  1  0.62440101  0.76025945  0.75952423  1
  O  O402  1  0.38053943  0.24486066  0.24417287  1
  O  O403  1  0.38740385  0.25476634  0.73704545  1
  O  O404  1  0.38192016  0.74403637  0.24842375  1
  O  O405  1  0.37990725  0.75649251  0.73412207  1
  O  O406  1  0.87967845  0.24559452  0.24656037  1
  O  O407  1  0.87832458  0.24548379  0.74234044  1
  O  O408  1  0.87349026  0.73934826  0.24255197  1
  O  O409  1  0.88090241  0.74456979  0.74573025  1
  O  O410  1  0.38127900  0.49439761  0.49435840  1
  O  O411  1  0.38289674  0.49869645  0.98951037  1
  O  O412  1  0.38099365  1.00077087  0.49033578  1
  O  O413  1  0.38059046  0.99567923  0.99177754  1
  O  O414  1  0.87958138  0.49430925  0.49491385  1
  O  O415  1  0.87810086  0.49258836  0.99443110  1
  O  O416  1  0.87904021  0.99844867  0.49298968  1
  O  O417  1  0.87579573  0.99588394  0.98688425  1
  O  O418  1  0.12593534  0.01501870  -0.00805962  1
  O  O419  1  0.11538711  0.01166385  0.49960963  1
  O  O420  1  0.12794238  0.50777355  0.00658433  1
  O  O421  1  0.11602923  0.50275773  0.50161012  1
  O  O422  1  0.61871418  0.00598802  0.00518118  1
  O  O423  1  0.61727743  0.00435634  0.50603431  1
  O  O424  1  0.62099462  0.50271422  0.01084895  1
  O  O425  1  0.61781944  0.50627954  0.50289151  1
  O  O426  1  0.36919464  0.36967904  0.12387414  1
  O  O427  1  0.37556545  0.36494370  0.61843056  1
  O  O428  1  0.36538253  0.87378672  0.11586996  1
  O  O429  1  0.37183539  0.86147468  0.61886504  1
  O  O430  1  0.87612483  0.36743893  0.11881264  1
  O  O431  1  0.86613518  0.36886568  0.62008427  1
  O  O432  1  0.86415778  0.86555850  0.12569890  1
  O  O433  1  0.87248054  0.86568091  0.62361759  1
  O  O434  1  0.12175527  0.13196037  0.38517059  1
  O  O435  1  0.13733026  0.12888069  0.88211354  1
  O  O436  1  0.13354908  0.63313393  0.37395296  1
  O  O437  1  0.13298650  0.63105697  0.87988521  1
  O  O438  1  0.62886478  0.12962631  0.38112196  1
  O  O439  1  0.62851476  0.12936430  0.88372345  1
  O  O440  1  0.62932945  0.63001319  0.38137396  1
  O  O441  1  0.63432110  0.63461703  0.87643024  1
