# generated using pymatgen
data_V93Zn93O256
_symmetry_space_group_name_H-M   'P 1'
_cell_length_a   17.05178752
_cell_length_b   17.04658905
_cell_length_c   17.05099917
_cell_angle_alpha   89.96738656
_cell_angle_beta   90.01156403
_cell_angle_gamma   89.98584161
_symmetry_Int_Tables_number   1
_chemical_formula_structural   V93Zn93O256
_chemical_formula_sum   'V93 Zn93 O256'
_cell_volume   4956.29496121
_cell_formula_units_Z   1
loop_
 _symmetry_equiv_pos_site_id
 _symmetry_equiv_pos_as_xyz
  1  'x, y, z'
loop_
 _atom_site_type_symbol
 _atom_site_label
 _atom_site_symmetry_multiplicity
 _atom_site_fract_x
 _atom_site_fract_y
 _atom_site_fract_z
 _atom_site_occupancy
  V  V0  1  0.74940727  0.37453148  0.62596523  1
  V  V1  1  0.37327429  0.62958510  0.74564241  1
  V  V2  1  0.62564250  0.24980815  0.37537182  1
  V  V3  1  0.87552831  0.12392734  0.25005436  1
  V  V4  1  0.24802459  0.25082126  0.00086020  1
  V  V5  1  0.00150955  0.25076354  0.25045367  1
  V  V6  1  0.37710549  0.86935319  0.50510152  1
  V  V7  1  0.62495644  0.25060983  0.87573785  1
  V  V8  1  0.37650527  0.62286259  0.24551268  1
  V  V9  1  0.75009975  0.87581710  0.12698430  1
  V  V10  1  0.37324024  0.49939803  0.37006069  1
  V  V11  1  0.25056839  0.12381499  0.37512185  1
  V  V12  1  0.00089689  0.24988909  0.74976467  1
  V  V13  1  0.50048142  0.12582972  0.12554747  1
  V  V14  1  -0.00239864  0.00141697  -0.00468329  1
  V  V15  1  0.12531226  0.62427497  0.49983160  1
  V  V16  1  0.75011313  0.62460962  0.37489184  1
  V  V17  1  0.37450778  0.37695549  0.00016606  1
  V  V18  1  -0.00035484  0.74740823  0.24736972  1
  V  V19  1  0.87512158  0.25151605  0.12528902  1
  V  V20  1  0.00242189  0.87236229  0.37372500  1
  V  V21  1  0.62408331  0.49927228  0.62485526  1
  V  V22  1  0.49928609  0.25126611  0.75049326  1
  V  V23  1  0.12585483  0.50461201  0.13040944  1
  V  V24  1  0.50129900  0.12461612  0.62433055  1
  V  V25  1  0.75091780  0.49975325  0.25022133  1
  V  V26  1  0.25100799  0.24861206  0.50123397  1
  V  V27  1  0.87625106  0.86902297  0.50604186  1
  V  V28  1  0.49989902  0.50095735  0.50010020  1
  V  V29  1  -0.01274901  0.74736275  0.74519714  1
  V  V30  1  0.50069408  0.74677996  0.24547592  1
  V  V31  1  0.37606589  0.12388976  0.25074942  1
  V  V32  1  0.75195790  0.87187764  0.62604285  1
  V  V33  1  0.37651365  0.74639816  0.12386260  1
  V  V34  1  0.12569937  0.24957360  0.37439764  1
  V  V35  1  0.24956771  0.12608612  0.87638253  1
  V  V36  1  0.00064454  0.12431535  0.12369088  1
  V  V37  1  -0.01241028  0.62853577  0.62703870  1
  V  V38  1  0.12553565  0.37541479  0.75067111  1
  V  V39  1  0.87541266  -0.00049318  0.37473413  1
  V  V40  1  0.00121429  -0.00157058  0.50092018  1
  V  V41  1  0.75182177  0.12375858  0.37543905  1
  V  V42  1  0.25305928  0.74789842  0.50461310  1
  V  V43  1  0.62050880  0.50694274  0.12524503  1
  V  V44  1  0.00095971  0.37450812  0.37545523  1
  V  V45  1  0.24816316  0.62537530  0.87369399  1
  V  V46  1  0.00038420  0.12354475  0.62566464  1
  V  V47  1  0.24848908  0.74961081  -0.00120817  1
  V  V48  1  0.62554521  0.00011220  0.12597122  1
  V  V49  1  0.25061679  0.62205502  0.37163355  1
  V  V50  1  0.74853472  0.74863327  0.00080563  1
  V  V51  1  0.75184709  0.74829700  0.50381761  1
  V  V52  1  0.62495701  0.12686027  -0.00038056  1
  V  V53  1  0.49910450  0.00121087  0.00028930  1
  V  V54  1  0.37552737  0.12523624  0.75004449  1
  V  V55  1  0.25266383  0.87242042  0.62486666  1
  V  V56  1  0.50089557  0.25038561  0.25069256  1
  V  V57  1  0.62584206  0.37682743  0.75003096  1
  V  V58  1  0.12460775  0.87357506  0.74929660  1
  V  V59  1  0.49701225  0.62991322  0.62393057  1
  V  V60  1  0.24966715  -0.00060358  0.75046653  1
  V  V61  1  0.49931981  0.87590914  0.87425900  1
  V  V62  1  0.37424643  0.87448696  -0.00009709  1
  V  V63  1  0.75443668  0.12150369  0.87553406  1
  V  V64  1  0.00024860  0.49990946  0.49979000  1
  V  V65  1  0.49865776  0.50783149  0.00403907  1
  V  V66  1  0.24887386  0.37833388  0.13199882  1
  V  V67  1  0.87638227  0.37422753  0.49988583  1
  V  V68  1  0.87517102  0.24908618  0.62525889  1
  V  V69  1  0.75310488  0.62340506  0.86797257  1
  V  V70  1  0.24992930  0.87526535  0.12637581  1
  V  V71  1  -0.00265411  0.87714574  0.87276046  1
  V  V72  1  0.49719494  0.75088812  0.74706275  1
  V  V73  1  0.12542340  -0.00051353  0.62495681  1
  V  V74  1  0.87542192  0.12102504  0.75276891  1
  V  V75  1  0.24961576  -0.00206374  0.24945524  1
  V  V76  1  0.87486899  0.37862131  -0.00260542  1
  V  V77  1  0.50183608  0.87319049  0.37431086  1
  V  V78  1  0.75052567  0.24852654  0.50017805  1
  V  V79  1  0.62605798  0.00046600  0.62539563  1
  V  V80  1  0.87341661  0.88010842  -0.00624434  1
  V  V81  1  0.75409023  -0.00065386  0.75269992  1
  V  V82  1  0.37420439  0.00017284  0.87543578  1
  V  V83  1  0.24957624  0.50026285  0.75036146  1
  V  V84  1  0.50041575  0.37731995  0.87629566  1
  V  V85  1  0.74990140  0.37614426  0.12434709  1
  V  V86  1  0.12382944  0.74979460  0.87381431  1
  V  V87  1  0.62468509  0.87585447  0.74980783  1
  V  V88  1  -0.00086639  0.37660540  0.87484689  1
  V  V89  1  0.37534728  -0.00243916  0.37578760  1
  V  V90  1  0.37527237  0.37514525  0.50143596  1
  V  V91  1  0.62286058  0.75071500  0.87523516  1
  V  V92  1  0.12501257  0.50002588  0.62529762  1
  Zn  Zn93  1  -0.00563203  0.62511593  0.12020707  1
  Zn  Zn94  1  0.37415100  0.25169755  0.12683147  1
  Zn  Zn95  1  0.25005640  0.37387729  0.62753517  1
  Zn  Zn96  1  0.12452938  -0.00000215  0.12570397  1
  Zn  Zn97  1  0.12564831  0.87430912  0.24820473  1
  Zn  Zn98  1  0.12533885  0.12375988  0.50052545  1
  Zn  Zn99  1  0.62662014  0.87441239  0.25109156  1
  Zn  Zn100  1  0.12878887  0.37888271  0.25304308  1
  Zn  Zn101  1  0.62579652  0.12255937  0.50018187  1
  Zn  Zn102  1  0.87543313  0.62480929  0.24614651  1
  Zn  Zn103  1  0.75583986  0.50609224  0.74396388  1
  Zn  Zn104  1  0.74936592  -0.00141014  0.25166455  1
  Zn  Zn105  1  0.50172733  0.37651199  0.37453284  1
  Zn  Zn106  1  0.87606485  0.74787962  0.12431668  1
  Zn  Zn107  1  0.87667815  0.49897560  0.37316535  1
  Zn  Zn108  1  0.62439305  0.62590030  0.50007487  1
  Zn  Zn109  1  0.12492667  0.24923745  0.87495662  1
  Zn  Zn110  1  0.61861372  0.62886839  0.00228917  1
  Zn  Zn111  1  0.00038793  0.50507812  -0.00131395  1
  Zn  Zn112  1  0.50179443  -0.00131283  0.49986097  1
  Zn  Zn113  1  0.62367438  0.37606894  0.24897342  1
  Zn  Zn114  1  0.12124355  0.62446476  -0.00179835  1
  Zn  Zn115  1  0.62623594  0.74931923  0.37328662  1
  Zn  Zn116  1  0.37556487  0.50161798  0.87484746  1
  Zn  Zn117  1  0.12471020  0.12389656  0.00016263  1
  Zn  Zn118  1  0.74955081  0.25054563  0.00008589  1
  Zn  Zn119  1  0.37510259  0.25017909  0.62598865  1
  Zn  Zn120  1  0.88006702  0.50939466  0.86706759  1
  Zn  Zn121  1  0.12660435  0.74816474  0.37312965  1
  Zn  Zn122  1  0.18602937  0.18710890  0.18656345  1
  Zn  Zn123  1  0.18694007  0.18719733  0.68748911  1
  Zn  Zn124  1  0.18799682  0.68946208  0.18934586  1
  Zn  Zn125  1  0.18119059  0.68666791  0.68658624  1
  Zn  Zn126  1  0.68939887  0.18713642  0.18811894  1
  Zn  Zn127  1  0.68727584  0.18825904  0.68986897  1
  Zn  Zn128  1  0.68629779  0.68744742  0.18854197  1
  Zn  Zn129  1  0.68352113  0.68904431  0.68578841  1
  Zn  Zn130  1  0.31400302  0.31111403  0.31423545  1
  Zn  Zn131  1  0.31369993  0.31366569  0.81463906  1
  Zn  Zn132  1  0.31409267  0.80964102  0.31399570  1
  Zn  Zn133  1  0.31217909  0.81129980  0.81217606  1
  Zn  Zn134  1  0.81363894  0.31302956  0.31198604  1
  Zn  Zn135  1  0.81225671  0.31095407  0.81170856  1
  Zn  Zn136  1  0.81623107  0.81006516  0.31431139  1
  Zn  Zn137  1  0.81040738  0.81187226  0.81454647  1
  Zn  Zn138  1  0.18790694  0.43711502  0.43775105  1
  Zn  Zn139  1  0.18506499  0.44009993  0.94016948  1
  Zn  Zn140  1  0.18802460  0.93671388  0.43808568  1
  Zn  Zn141  1  0.18393289  0.93714779  0.93868142  1
  Zn  Zn142  1  0.68705549  0.43632933  0.43856642  1
  Zn  Zn143  1  0.68498852  0.43966989  0.94008277  1
  Zn  Zn144  1  0.68753694  0.93773238  0.43952550  1
  Zn  Zn145  1  0.68581945  0.93954926  0.93809253  1
  Zn  Zn146  1  0.31332254  0.06395420  0.06472951  1
  Zn  Zn147  1  0.31524019  0.05935721  0.56229604  1
  Zn  Zn148  1  0.30853395  0.56154354  0.06152753  1
  Zn  Zn149  1  0.31246904  0.56095172  0.56284273  1
  Zn  Zn150  1  0.81344409  0.06265660  0.06216830  1
  Zn  Zn151  1  0.81367063  0.05993251  0.56334304  1
  Zn  Zn152  1  0.81204672  0.56378455  0.06149846  1
  Zn  Zn153  1  0.81201245  0.55924184  0.55999364  1
  Zn  Zn154  1  0.43722704  0.43611808  0.18604967  1
  Zn  Zn155  1  0.43703328  0.44080237  0.68777645  1
  Zn  Zn156  1  0.43649815  0.93592171  0.18752185  1
  Zn  Zn157  1  0.43729351  0.93910895  0.68689539  1
  Zn  Zn158  1  0.93968968  0.43772264  0.18678063  1
  Zn  Zn159  1  0.93582288  0.44120053  0.68843811  1
  Zn  Zn160  1  0.93655034  0.93721793  0.18514815  1
  Zn  Zn161  1  0.93747207  0.93738110  0.68850955  1
  Zn  Zn162  1  0.06453955  0.06206054  0.31187513  1
  Zn  Zn163  1  0.06403934  0.06303068  0.81470677  1
  Zn  Zn164  1  0.06323607  0.56222679  0.31110819  1
  Zn  Zn165  1  0.06098829  0.56435289  0.80926683  1
  Zn  Zn166  1  0.56431175  0.06085104  0.31216181  1
  Zn  Zn167  1  0.56490856  0.06297873  0.81222649  1
  Zn  Zn168  1  0.56286644  0.56360294  0.31309620  1
  Zn  Zn169  1  0.56503492  0.56291115  0.81378715  1
  Zn  Zn170  1  0.43802144  0.18608554  0.43766302  1
  Zn  Zn171  1  0.43542690  0.19004707  0.93837340  1
  Zn  Zn172  1  0.43702145  0.68759400  0.43537074  1
  Zn  Zn173  1  0.43366292  0.68747251  0.93335502  1
  Zn  Zn174  1  0.93868970  0.18649522  0.43809319  1
  Zn  Zn175  1  0.93626286  0.19092994  0.93820061  1
  Zn  Zn176  1  0.93606841  0.68517990  0.43602654  1
  Zn  Zn177  1  0.93742341  0.69155800  0.93753771  1
  Zn  Zn178  1  0.06358192  0.31550037  0.06341419  1
  Zn  Zn179  1  0.06409541  0.31249940  0.56330961  1
  Zn  Zn180  1  0.06397106  0.81432999  0.06237839  1
  Zn  Zn181  1  0.06547991  0.80834874  0.56308156  1
  Zn  Zn182  1  0.56340274  0.31645535  0.06310282  1
  Zn  Zn183  1  0.56232681  0.31194407  0.56186456  1
  Zn  Zn184  1  0.56230397  0.81410362  0.06382095  1
  Zn  Zn185  1  0.56737430  0.81067939  0.56118716  1
  O  O186  1  0.11584494  0.12261149  0.12127216  1
  O  O187  1  0.11860482  0.11734758  0.62406008  1
  O  O188  1  0.12915262  0.61218647  0.12489053  1
  O  O189  1  0.11820297  0.61779891  0.61716412  1
  O  O190  1  0.62041960  0.12044829  0.11957610  1
  O  O191  1  0.61626900  0.12024842  0.62663150  1
  O  O192  1  0.62945944  0.61136640  0.12242175  1
  O  O193  1  0.61388338  0.61794882  0.62405999  1
  O  O194  1  0.37492237  0.38357147  0.38327714  1
  O  O195  1  0.38257478  0.37886422  0.88191443  1
  O  O196  1  0.38336239  0.87755219  0.38378460  1
  O  O197  1  0.37982252  0.88052634  0.87969748  1
  O  O198  1  0.88234804  0.37432042  0.38268237  1
  O  O199  1  0.88296600  0.37110062  0.88314658  1
  O  O200  1  0.88434159  0.87921295  0.38446574  1
  O  O201  1  0.87920079  0.87160675  0.88693156  1
  O  O202  1  0.25593133  0.00376989  0.37066405  1
  O  O203  1  0.25496698  0.00428331  0.87027069  1
  O  O204  1  0.26196536  0.51003074  0.38207971  1
  O  O205  1  0.25012926  0.50722891  0.86809383  1
  O  O206  1  0.75721695  0.00476294  0.37496155  1
  O  O207  1  0.74243126  0.01324590  0.86908061  1
  O  O208  1  0.74897828  0.50562350  0.36689814  1
  O  O209  1  0.74473433  0.51841431  0.87757064  1
  O  O210  1  0.23760552  0.48968638  0.11919364  1
  O  O211  1  0.24291187  0.49865638  0.63130290  1
  O  O212  1  0.25228308  0.99302458  0.13181111  1
  O  O213  1  0.24565278  0.99386791  0.63099542  1
  O  O214  1  0.74215721  0.49600761  0.13217269  1
  O  O215  1  0.74198850  0.49280224  0.62306247  1
  O  O216  1  0.74485456  0.99057234  0.12400816  1
  O  O217  1  0.74495135  0.99288825  0.63139293  1
  O  O218  1  0.00059403  0.36751594  0.25770924  1
  O  O219  1  0.00457849  0.36950018  0.75707690  1
  O  O220  1  -0.00143091  0.86830026  0.25945906  1
  O  O221  1  0.00549257  0.86893836  0.75258518  1
  O  O222  1  0.50068047  0.36254867  0.25294339  1
  O  O223  1  0.50488963  0.37150403  0.75502212  1
  O  O224  1  0.49703154  0.86533135  0.25954463  1
  O  O225  1  0.50389089  0.87134138  0.75455145  1
  O  O226  1  0.49637127  0.13205802  0.24594953  1
  O  O227  1  0.49578911  0.13000252  0.74356610  1
  O  O228  1  0.48866876  0.63615977  0.25810799  1
  O  O229  1  0.49275776  0.62933378  0.74366379  1
  O  O230  1  0.99438290  0.13014966  0.24501299  1
  O  O231  1  0.99560568  0.12918736  0.74589588  1
  O  O232  1  0.99861803  0.63590650  0.24971471  1
  O  O233  1  1.00488375  0.63536357  0.73934718  1
  O  O234  1  0.36536154  0.25736528  0.00271854  1
  O  O235  1  0.36783396  0.25841848  0.49818792  1
  O  O236  1  0.36997803  0.75518288  0.00372686  1
  O  O237  1  0.36576924  0.75911395  0.49493666  1
  O  O238  1  0.87281701  0.26127501  0.00716157  1
  O  O239  1  0.87052095  0.25425125  0.50587625  1
  O  O240  1  0.86313089  0.76161126  0.00117034  1
  O  O241  1  0.86525129  0.76007595  0.49340930  1
  O  O242  1  0.13619068  0.24880938  0.49496071  1
  O  O243  1  0.13746498  0.25025460  0.99850333  1
  O  O244  1  0.13545937  0.74303281  0.49515918  1
  O  O245  1  0.13139864  0.75045874  0.99147263  1
  O  O246  1  0.63078030  0.24782038  0.49090709  1
  O  O247  1  0.62555685  0.24443779  0.99435082  1
  O  O248  1  0.63840705  0.74820697  0.49452890  1
  O  O249  1  0.63211699  0.75193925  0.99489269  1
  O  O250  1  0.50101828  0.24534980  0.13550073  1
  O  O251  1  0.49942436  0.24045556  0.63103518  1
  O  O252  1  0.49264725  0.75680107  0.13635881  1
  O  O253  1  0.50757558  0.73796741  0.63057668  1
  O  O254  1  0.99473726  0.24569795  0.12996226  1
  O  O255  1  0.99506377  0.24380898  0.62962032  1
  O  O256  1  1.00013597  0.75137049  0.13570182  1
  O  O257  1  1.00657506  0.74071605  0.63318646  1
  O  O258  1  0.00630979  0.25406486  0.37143287  1
  O  O259  1  0.00124040  0.25965826  0.86861421  1
  O  O260  1  -0.00001730  0.75767446  0.36819472  1
  O  O261  1  0.00468696  0.75672104  0.86571579  1
  O  O262  1  0.50885883  0.24788023  0.36744599  1
  O  O263  1  0.50497902  0.25623215  0.87028774  1
  O  O264  1  0.49959827  0.75804948  0.36618057  1
  O  O265  1  0.50314330  0.75701611  0.86885726  1
  O  O266  1  0.25269395  0.13326279  0.49459180  1
  O  O267  1  0.25183922  0.13464760  0.99589651  1
  O  O268  1  0.24843363  0.63096963  0.49336971  1
  O  O269  1  0.24931356  0.63310280  0.99138172  1
  O  O270  1  0.75070217  0.13109587  0.49411068  1
  O  O271  1  0.74450370  0.12568887  0.99188025  1
  O  O272  1  0.75061669  0.63228731  0.49319066  1
  O  O273  1  0.74555544  0.63769280  0.99342644  1
  O  O274  1  0.25459064  0.36813934  0.00668392  1
  O  O275  1  0.25900392  0.36580451  0.49995963  1
  O  O276  1  0.25627056  0.86986315  0.00401604  1
  O  O277  1  0.25774529  0.86688895  0.50321243  1
  O  O278  1  0.75853063  0.37457339  0.00429158  1
  O  O279  1  0.75559408  0.36793220  0.50580113  1
  O  O280  1  0.75439402  0.87001367  0.00436983  1
  O  O281  1  0.75799920  0.86767462  0.50391977  1
  O  O282  1  0.12351975  0.49770692  0.23581236  1
  O  O283  1  0.13028172  0.49477132  0.74446258  1
  O  O284  1  0.13418430  0.99617363  0.24814105  1
  O  O285  1  0.13057639  0.99329706  0.74492343  1
  O  O286  1  0.63190392  0.49876380  0.24343425  1
  O  O287  1  0.62848811  0.49393276  0.74296660  1
  O  O288  1  0.62853692  0.99602453  0.24170445  1
  O  O289  1  0.63208965  0.99398924  0.74524702  1
  O  O290  1  0.37051469  0.00466608  0.25632022  1
  O  O291  1  0.36905504  0.00460909  0.75638404  1
  O  O292  1  0.38342052  0.50847164  0.26073382  1
  O  O293  1  0.36897912  0.51126749  0.75133226  1
  O  O294  1  0.87417215  0.00573896  0.25683195  1
  O  O295  1  0.86690878  0.00781048  0.74488798  1
  O  O296  1  0.86164892  0.50027476  0.25035215  1
  O  O297  1  0.86654109  0.49384497  0.75636957  1
  O  O298  1  0.12027621  0.36871121  0.37354036  1
  O  O299  1  0.11481190  0.37393156  0.86986296  1
  O  O300  1  0.11168614  0.87347277  0.37591964  1
  O  O301  1  0.11840971  0.86974951  0.86809600  1
  O  O302  1  0.62385916  0.36165342  0.37286340  1
  O  O303  1  0.62045197  0.37040742  0.87057298  1
  O  O304  1  0.61316043  0.87432009  0.37410002  1
  O  O305  1  0.61852321  0.87150556  0.86966894  1
  O  O306  1  0.38315554  0.12783245  0.13284670  1
  O  O307  1  0.38517780  0.12371025  0.63157157  1
  O  O308  1  0.36541794  0.62880948  0.13845927  1
  O  O309  1  0.38571454  0.61946302  0.63358488  1
  O  O310  1  0.88004130  0.13111765  0.12995654  1
  O  O311  1  0.88077905  0.12973194  0.63123132  1
  O  O312  1  0.87587792  0.62973491  0.12800381  1
  O  O313  1  0.88898361  0.62165390  0.61769935  1
  O  O314  1  0.25074265  0.25773645  0.11637076  1
  O  O315  1  0.25326870  0.25030616  0.61363184  1
  O  O316  1  0.25659448  0.75525619  0.11899192  1
  O  O317  1  0.24376040  0.75467383  0.61193639  1
  O  O318  1  0.75669287  0.25751817  0.12466539  1
  O  O319  1  0.75506932  0.25389526  0.61990280  1
  O  O320  1  0.74635357  0.75938675  0.11567384  1
  O  O321  1  0.74398131  0.75596071  0.61329681  1
  O  O322  1  0.24661746  0.24420336  0.38305400  1
  O  O323  1  0.25043689  0.24526957  0.88508043  1
  O  O324  1  0.25074729  0.73997830  0.38576697  1
  O  O325  1  0.24392160  0.74599523  0.87900028  1
  O  O326  1  0.74358738  0.24478531  0.37922389  1
  O  O327  1  0.74218228  0.23937638  0.87538299  1
  O  O328  1  0.74954711  0.74193983  0.38212592  1
  O  O329  1  0.74306282  0.74453898  0.88265265  1
  O  O330  1  -0.00266197  0.11689931  0.00349295  1
  O  O331  1  0.00078033  0.11685675  0.50750900  1
  O  O332  1  0.00289859  0.62415184  0.00163259  1
  O  O333  1  0.00573016  0.62081516  0.50479458  1
  O  O334  1  0.50413792  0.12076697  0.00499949  1
  O  O335  1  0.50074115  0.12300159  0.51240108  1
  O  O336  1  0.49798277  0.61263716  -0.00559380  1
  O  O337  1  0.49869081  0.62114079  0.50810636  1
  O  O338  1  0.48991773  0.37939747  0.49797926  1
  O  O339  1  0.49416531  0.38331179  0.99578997  1
  O  O340  1  0.49282709  0.87148520  0.49257498  1
  O  O341  1  0.49398737  0.88106151  0.99408632  1
  O  O342  1  0.99625654  0.37943726  0.49548915  1
  O  O343  1  0.99158876  0.37433099  0.99072055  1
  O  O344  1  0.99397917  0.87609929  0.49438677  1
  O  O345  1  0.99142948  0.88067152  0.99468652  1
  O  O346  1  0.49044778  0.49956646  0.38122917  1
  O  O347  1  0.50100647  0.49429123  0.88493855  1
  O  O348  1  0.49460929  0.98960607  0.37542141  1
  O  O349  1  0.49469058  0.99570035  0.87977479  1
  O  O350  1  0.99979029  0.49360294  0.38146620  1
  O  O351  1  0.99932297  0.48806454  0.87475859  1
  O  O352  1  0.99572897  0.99144547  0.38040584  1
  O  O353  1  1.00417519  0.99282044  0.88544777  1
  O  O354  1  -0.00055397  0.00542678  0.11464843  1
  O  O355  1  0.00614194  0.00378912  0.62051362  1
  O  O356  1  0.01349451  0.50033291  0.12272255  1
  O  O357  1  0.00595545  0.50761289  0.61959627  1
  O  O358  1  0.50420709  0.00516913  0.11968778  1
  O  O359  1  0.50679620  0.00955680  0.62648276  1
  O  O360  1  0.50879192  0.49387306  0.11608954  1
  O  O361  1  0.50451469  0.50908257  0.61988028  1
  O  O362  1  0.25031666  0.36702312  0.23645134  1
  O  O363  1  0.24474473  0.38106699  0.74967006  1
  O  O364  1  0.25249962  0.87934612  0.24520989  1
  O  O365  1  0.24603809  0.87960132  0.74482459  1
  O  O366  1  0.74862421  0.38438926  0.24479533  1
  O  O367  1  0.74141074  0.37178574  0.74218383  1
  O  O368  1  0.75099088  0.87365037  0.23828805  1
  O  O369  1  0.74443182  0.87838586  0.74631090  1
  O  O370  1  0.25662768  0.12011395  0.25567430  1
  O  O371  1  0.25576096  0.11921995  0.75497709  1
  O  O372  1  0.26145818  0.63330616  0.26367545  1
  O  O373  1  0.25613972  0.62225793  0.75188614  1
  O  O374  1  0.75816509  0.12332920  0.25715937  1
  O  O375  1  0.75460062  0.12027860  0.75714576  1
  O  O376  1  0.74886872  0.61674882  0.25821670  1
  O  O377  1  0.74360959  0.62993828  0.76500960  1
  O  O378  1  0.37079618  0.11786162  0.37063050  1
  O  O379  1  0.37039280  0.11911389  0.86984160  1
  O  O380  1  0.36907187  0.61747144  0.36871211  1
  O  O381  1  0.36735685  0.62343003  0.86250737  1
  O  O382  1  0.87157920  0.11953215  0.37016336  1
  O  O383  1  0.86210101  0.13307909  0.86925726  1
  O  O384  1  0.86169068  0.62051204  0.37234018  1
  O  O385  1  0.85631194  0.62846612  0.88141886  1
  O  O386  1  0.13205382  0.38471128  0.12708076  1
  O  O387  1  0.12583288  0.38208614  0.63222931  1
  O  O388  1  0.13580998  0.87770025  0.12691949  1
  O  O389  1  0.13221764  0.88017124  0.62958922  1
  O  O390  1  0.63215832  0.38598395  0.12658339  1
  O  O391  1  0.62896442  0.37926978  0.62962281  1
  O  O392  1  0.63492918  0.88177478  0.12421750  1
  O  O393  1  0.63086884  0.88022856  0.63124655  1
  O  O394  1  0.11866790  0.25125352  0.25740175  1
  O  O395  1  0.11890765  0.25678191  0.75067116  1
  O  O396  1  0.11545429  0.75336989  0.25454239  1
  O  O397  1  0.11895015  0.75726246  0.75531072  1
  O  O398  1  0.61737088  0.24928101  0.25836143  1
  O  O399  1  0.61788409  0.25620861  0.75592065  1
  O  O400  1  0.61380481  0.75242833  0.25136759  1
  O  O401  1  0.61738506  0.75782865  0.75544643  1
  O  O402  1  0.38614312  0.24289783  0.25212848  1
  O  O403  1  0.38137845  0.24383809  0.74877460  1
  O  O404  1  0.38189113  0.74193238  0.24509452  1
  O  O405  1  0.38049686  0.73850323  0.75282261  1
  O  O406  1  0.88150827  0.24439713  0.24499325  1
  O  O407  1  0.88124289  0.24304851  0.74334596  1
  O  O408  1  0.88657987  0.74899123  0.24759672  1
  O  O409  1  0.88847041  0.75662404  0.75250520  1
  O  O410  1  0.37936436  0.49285568  0.49220567  1
  O  O411  1  0.38257700  0.49532790  0.99984370  1
  O  O412  1  0.37721109  0.98715990  0.49370190  1
  O  O413  1  0.38007120  0.99505295  0.99464100  1
  O  O414  1  0.88254799  0.49087160  0.49763732  1
  O  O415  1  0.87561800  0.48803906  0.99464076  1
  O  O416  1  0.88128115  0.98964287  0.49482218  1
  O  O417  1  0.88429916  0.99039614  1.00362234  1
  O  O418  1  0.11177832  0.00056164  0.00340524  1
  O  O419  1  0.11966144  0.00009546  0.50713105  1
  O  O420  1  0.12160562  0.50252138  0.01257845  1
  O  O421  1  0.11990560  0.50446897  0.50500172  1
  O  O422  1  0.61748411  0.00663698  0.00538161  1
  O  O423  1  0.62209048  0.00231963  0.50921582  1
  O  O424  1  0.61535448  0.50192737  0.00880354  1
  O  O425  1  0.61716955  0.50025479  0.50624064  1
  O  O426  1  0.36550957  0.37454863  0.11909683  1
  O  O427  1  0.37365244  0.37456198  0.61278558  1
  O  O428  1  0.36994454  0.86822192  0.11812920  1
  O  O429  1  0.36982504  0.88028209  0.61329799  1
  O  O430  1  0.87084085  0.37202349  0.11631271  1
  O  O431  1  0.87029111  0.36766979  0.61906438  1
  O  O432  1  0.86423805  0.87349209  0.11407768  1
  O  O433  1  0.86963747  0.88001778  0.61212429  1
  O  O434  1  0.13259984  0.13075443  0.37850934  1
  O  O435  1  0.13417171  0.12850332  0.87861625  1
  O  O436  1  0.13643848  0.62206066  0.38088205  1
  O  O437  1  0.13165086  0.63243712  0.87299320  1
  O  O438  1  0.63119575  0.13409996  0.37628575  1
  O  O439  1  0.63186997  0.13086903  0.87981348  1
  O  O440  1  0.63731654  0.62573267  0.37833077  1
  O  O441  1  0.63276284  0.63401582  0.87899069  1
