# generated using pymatgen
data_V93Zn93O256
_symmetry_space_group_name_H-M   'P 1'
_cell_length_a   17.05284642
_cell_length_b   17.05521115
_cell_length_c   17.05679035
_cell_angle_alpha   89.91480087
_cell_angle_beta   89.97406844
_cell_angle_gamma   89.97328968
_symmetry_Int_Tables_number   1
_chemical_formula_structural   V93Zn93O256
_chemical_formula_sum   'V93 Zn93 O256'
_cell_volume   4960.78860857
_cell_formula_units_Z   1
loop_
 _symmetry_equiv_pos_site_id
 _symmetry_equiv_pos_as_xyz
  1  'x, y, z'
loop_
 _atom_site_type_symbol
 _atom_site_label
 _atom_site_symmetry_multiplicity
 _atom_site_fract_x
 _atom_site_fract_y
 _atom_site_fract_z
 _atom_site_occupancy
  V  V0  1  0.74814432  0.24768495  -0.00025997  1
  V  V1  1  0.37511210  0.12388090  0.25140722  1
  V  V2  1  0.74537732  0.50109212  0.24679864  1
  V  V3  1  0.37386010  0.74996174  0.62463258  1
  V  V4  1  -0.00050061  0.37422479  0.37495133  1
  V  V5  1  -0.00787517  0.24756572  0.75175114  1
  V  V6  1  0.37547413  0.50082539  0.87527045  1
  V  V7  1  0.12740063  0.62574770  0.00066029  1
  V  V8  1  0.25001827  0.50118243  0.25032453  1
  V  V9  1  0.75094833  0.75132191  -0.00089263  1
  V  V10  1  0.12704375  0.00074917  0.62579507  1
  V  V11  1  0.12424455  0.37478686  0.25116366  1
  V  V12  1  0.50035065  0.74903138  0.74983986  1
  V  V13  1  0.74941249  0.37576894  0.62310927  1
  V  V14  1  0.62446659  0.12330341  0.49817113  1
  V  V15  1  0.49867416  0.12317341  0.62538611  1
  V  V16  1  0.62432925  0.24866741  0.37491224  1
  V  V17  1  0.12550097  0.37421712  0.75038580  1
  V  V18  1  -0.00289707  0.87794263  0.87828401  1
  V  V19  1  0.37555521  0.25031570  0.12561736  1
  V  V20  1  0.87291196  0.12246946  0.25379902  1
  V  V21  1  0.12498914  0.74997687  0.37518249  1
  V  V22  1  0.75965619  0.00323068  0.74928639  1
  V  V23  1  0.37883802  0.62798921  0.25101287  1
  V  V24  1  0.62490591  0.49989353  0.62363605  1
  V  V25  1  0.87473258  0.25186584  0.12653521  1
  V  V26  1  0.62538963  -0.00349455  0.62288156  1
  V  V27  1  0.74918469  0.24911003  0.49908886  1
  V  V28  1  0.12457025  0.00086734  0.12662580  1
  V  V29  1  0.87324170  0.49942316  0.37357545  1
  V  V30  1  -0.00670851  0.12638653  0.63025348  1
  V  V31  1  0.74838365  -0.00355852  0.24916842  1
  V  V32  1  0.49965415  0.62459648  0.62480035  1
  V  V33  1  0.37628445  -0.00004627  0.87382770  1
  V  V34  1  0.49887872  0.37472196  0.37510090  1
  V  V35  1  0.74468533  0.38085842  0.12510880  1
  V  V36  1  0.87559537  0.50369975  0.87255930  1
  V  V37  1  0.62419063  0.62698783  0.49809182  1
  V  V38  1  -0.00584595  -0.00524388  0.49746449  1
  V  V39  1  0.37524097  -0.00363074  0.37432536  1
  V  V40  1  0.24993214  0.24988012  0.00039278  1
  V  V41  1  0.12477675  0.25072239  0.37653512  1
  V  V42  1  0.50194813  -0.00050966  -0.00134439  1
  V  V43  1  0.62520630  0.62401979  0.00241710  1
  V  V44  1  0.37477035  0.62424032  0.75095529  1
  V  V45  1  0.00036778  0.12531187  0.12557254  1
  V  V46  1  0.00023576  0.37577157  0.87599144  1
  V  V47  1  0.76372163  0.86930018  0.61841421  1
  V  V48  1  0.00065622  0.50047282  -0.00019980  1
  V  V49  1  0.50465081  0.62531228  0.12797545  1
  V  V50  1  0.50357452  0.12410592  0.12262037  1
  V  V51  1  0.25061095  0.12480632  0.87650008  1
  V  V52  1  0.12349881  0.50107205  0.62579987  1
  V  V53  1  0.12407776  0.87485915  0.25193048  1
  V  V54  1  0.25060441  0.87525932  0.12528550  1
  V  V55  1  0.37477897  0.24856838  0.62536746  1
  V  V56  1  0.87334409  0.62502324  0.24832716  1
  V  V57  1  0.49878608  0.49917381  0.49946031  1
  V  V58  1  0.75053779  0.62524548  0.87394576  1
  V  V59  1  0.25141358  0.62524721  0.87619225  1
  V  V60  1  0.12486649  0.12549061  0.00197555  1
  V  V61  1  0.12533591  0.62457992  0.49978313  1
  V  V62  1  0.62606083  0.87346275  0.74629709  1
  V  V63  1  0.25019439  0.37559252  0.12549607  1
  V  V64  1  0.00073439  0.62546877  0.12463147  1
  V  V65  1  0.12679406  0.75013561  0.87681793  1
  V  V66  1  0.74827906  0.62710300  0.37357686  1
  V  V67  1  0.37523232  0.12451873  0.75014996  1
  V  V68  1  0.61232530  0.75259384  0.37188130  1
  V  V69  1  0.62531616  0.37394014  0.75039890  1
  V  V70  1  0.37532075  0.37381620  0.50103387  1
  V  V71  1  0.37597659  0.37552745  0.00039681  1
  V  V72  1  0.12480551  0.50043014  0.12545021  1
  V  V73  1  -0.00560176  0.74655114  0.74528842  1
  V  V74  1  -0.00055430  0.49916614  0.49962640  1
  V  V75  1  0.50033555  0.87460169  0.87413925  1
  V  V76  1  0.87397686  0.75355192  0.12262473  1
  V  V77  1  0.50037924  0.25024380  0.24969890  1
  V  V78  1  0.12507074  0.12653396  0.50031898  1
  V  V79  1  0.61119912  0.87118897  0.25251156  1
  V  V80  1  0.37517428  0.87292762  0.49737663  1
  V  V81  1  0.50170005  0.37423790  0.87521551  1
  V  V82  1  0.50643194  0.50005841  0.00517930  1
  V  V83  1  0.00017908  0.75071207  0.24990392  1
  V  V84  1  0.12709619  0.87577110  0.75103893  1
  V  V85  1  0.24964740  0.62551090  0.37503879  1
  V  V86  1  0.24983594  0.24999462  0.50099566  1
  V  V87  1  0.76078764  0.75288168  0.49969833  1
  V  V88  1  0.62537429  0.74885101  0.87426045  1
  V  V89  1  0.62416581  0.37858351  0.24832450  1
  V  V90  1  0.49982853  -0.00626661  0.49582999  1
  V  V91  1  0.87327446  0.37365034  0.49954946  1
  V  V92  1  0.37949033  0.75063198  0.12728225  1
  Zn  Zn93  1  0.37516906  0.87323663  -0.00098909  1
  Zn  Zn94  1  0.62536600  -0.00383682  0.12369316  1
  Zn  Zn95  1  0.75132376  0.50255119  0.74742723  1
  Zn  Zn96  1  0.62876153  0.12318565  -0.00745501  1
  Zn  Zn97  1  0.25170437  0.75023696  0.00050355  1
  Zn  Zn98  1  0.25126047  0.37476396  0.62662394  1
  Zn  Zn99  1  0.62534440  0.24722053  0.87471091  1
  Zn  Zn100  1  0.25056397  0.00080309  0.75170677  1
  Zn  Zn101  1  0.87144643  0.87987686  -0.00176000  1
  Zn  Zn102  1  0.86629342  -0.00994886  0.38339609  1
  Zn  Zn103  1  0.37394038  0.49955541  0.37588975  1
  Zn  Zn104  1  0.87169424  0.24793323  0.62738948  1
  Zn  Zn105  1  -0.00666410  0.86908219  0.38097622  1
  Zn  Zn106  1  0.75676658  0.13433397  0.86277582  1
  Zn  Zn107  1  0.24761172  0.75083363  0.50211021  1
  Zn  Zn108  1  -0.00374411  0.00176587  0.00117829  1
  Zn  Zn109  1  0.74934785  0.12336769  0.37579269  1
  Zn  Zn110  1  0.74710066  0.87644832  0.12299894  1
  Zn  Zn111  1  0.12362717  0.24889345  0.87587567  1
  Zn  Zn112  1  0.87459640  0.37696196  0.00125858  1
  Zn  Zn113  1  -0.00784396  0.63257268  0.61795995  1
  Zn  Zn114  1  0.50059782  0.24795365  0.75176452  1
  Zn  Zn115  1  0.24875065  0.00154373  0.25260692  1
  Zn  Zn116  1  -0.00014357  0.24924788  0.25231356  1
  Zn  Zn117  1  0.87803451  0.01071295  0.87765482  1
  Zn  Zn118  1  0.25047471  0.87344153  0.62576394  1
  Zn  Zn119  1  0.25055965  0.49910291  0.75040223  1
  Zn  Zn120  1  0.24898777  0.12467327  0.37414467  1
  Zn  Zn121  1  0.86706887  0.63193460  0.74075203  1
  Zn  Zn122  1  0.18852763  0.18785053  0.18984835  1
  Zn  Zn123  1  0.18640539  0.18768298  0.68878829  1
  Zn  Zn124  1  0.18995926  0.68923825  0.18832921  1
  Zn  Zn125  1  0.18688428  0.68677958  0.68792299  1
  Zn  Zn126  1  0.68800511  0.18849457  0.18702930  1
  Zn  Zn127  1  0.68529329  0.18713054  0.68290086  1
  Zn  Zn128  1  0.68671239  0.69114287  0.18793042  1
  Zn  Zn129  1  0.68915504  0.68821808  0.68422091  1
  Zn  Zn130  1  0.31187584  0.31173690  0.31441143  1
  Zn  Zn131  1  0.31301438  0.31101180  0.81317198  1
  Zn  Zn132  1  0.31230092  0.81177608  0.31270096  1
  Zn  Zn133  1  0.31317560  0.81201749  0.81285185  1
  Zn  Zn134  1  0.80989092  0.31226658  0.31270175  1
  Zn  Zn135  1  0.81286558  0.31870368  0.81413981  1
  Zn  Zn136  1  0.80941956  0.81430293  0.31514000  1
  Zn  Zn137  1  0.81212277  0.81744793  0.81096551  1
  Zn  Zn138  1  0.18916117  0.43717987  0.43816651  1
  Zn  Zn139  1  0.18817986  0.43822425  0.93707536  1
  Zn  Zn140  1  0.18767546  0.93664881  0.43783037  1
  Zn  Zn141  1  0.18674686  0.93991335  0.94027148  1
  Zn  Zn142  1  0.68614340  0.43767513  0.43525001  1
  Zn  Zn143  1  0.68942182  0.43662870  0.93727036  1
  Zn  Zn144  1  0.68752114  0.93291199  0.43408450  1
  Zn  Zn145  1  0.68736215  0.93611463  0.93466843  1
  Zn  Zn146  1  0.31395674  0.06116400  0.06226637  1
  Zn  Zn147  1  0.31135053  0.06294356  0.56169844  1
  Zn  Zn148  1  0.31482297  0.56257080  0.06251337  1
  Zn  Zn149  1  0.31065177  0.56142405  0.56311886  1
  Zn  Zn150  1  0.81437397  0.06179275  0.06371447  1
  Zn  Zn151  1  0.81083856  0.06205753  0.56616506  1
  Zn  Zn152  1  0.81338499  0.56411940  0.06021240  1
  Zn  Zn153  1  0.81189679  0.56469318  0.56148830  1
  Zn  Zn154  1  0.43714961  0.44027332  0.18829458  1
  Zn  Zn155  1  0.43855729  0.43644155  0.68774141  1
  Zn  Zn156  1  0.43603820  0.93899472  0.18674136  1
  Zn  Zn157  1  0.43728888  0.93681258  0.68611368  1
  Zn  Zn158  1  0.93615658  0.43763522  0.18886269  1
  Zn  Zn159  1  0.93709152  0.43794441  0.68640942  1
  Zn  Zn160  1  0.93812804  0.93772593  0.19056486  1
  Zn  Zn161  1  0.94072995  0.93433463  0.68532992  1
  Zn  Zn162  1  0.06241665  0.06372030  0.31249600  1
  Zn  Zn163  1  0.06283056  0.06430597  0.81456046  1
  Zn  Zn164  1  0.06183495  0.56301126  0.31290466  1
  Zn  Zn165  1  0.06404882  0.56323985  0.81372925  1
  Zn  Zn166  1  0.56173126  0.06010622  0.31257916  1
  Zn  Zn167  1  0.56991467  0.06355068  0.81120812  1
  Zn  Zn168  1  0.56277240  0.56147880  0.31336008  1
  Zn  Zn169  1  0.56315837  0.56054409  0.81367771  1
  Zn  Zn170  1  0.43689433  0.18488128  0.43800684  1
  Zn  Zn171  1  0.43822470  0.18819045  0.93634955  1
  Zn  Zn172  1  0.43548694  0.68658733  0.43818040  1
  Zn  Zn173  1  0.43721096  0.68822670  0.94046124  1
  Zn  Zn174  1  0.93817139  0.18542975  0.43977059  1
  Zn  Zn175  1  0.93378721  0.18562843  0.93645665  1
  Zn  Zn176  1  0.93892951  0.68443199  0.43439405  1
  Zn  Zn177  1  0.93885290  0.68883665  0.93517771  1
  Zn  Zn178  1  0.06195546  0.31221047  0.06270490  1
  Zn  Zn179  1  0.06133595  0.31265516  0.56466230  1
  Zn  Zn180  1  0.06348734  0.81333756  0.06254993  1
  Zn  Zn181  1  0.06351847  0.81315299  0.56307069  1
  Zn  Zn182  1  0.56470040  0.31188312  0.06203714  1
  Zn  Zn183  1  0.56148178  0.31053075  0.56315694  1
  Zn  Zn184  1  0.56381283  0.81150522  0.06428404  1
  Zn  Zn185  1  0.56583464  0.81087241  0.56053459  1
  O  O186  1  0.12047988  0.12126315  0.12261290  1
  O  O187  1  0.11673153  0.11729588  0.62179517  1
  O  O188  1  0.12071008  0.61993402  0.12161445  1
  O  O189  1  0.12018347  0.61599429  0.62034502  1
  O  O190  1  0.61051957  0.12454614  0.12488071  1
  O  O191  1  0.61856912  0.11663685  0.61690403  1
  O  O192  1  0.61258512  0.63404192  0.11931456  1
  O  O193  1  0.61859974  0.62004621  0.61843753  1
  O  O194  1  0.38187327  0.37564129  0.38163885  1
  O  O195  1  0.38106109  0.38019765  0.88130014  1
  O  O196  1  0.37029060  0.88327862  0.38481054  1
  O  O197  1  0.38274479  0.88059670  0.87589733  1
  O  O198  1  0.87879244  0.38001024  0.37878842  1
  O  O199  1  0.88203462  0.38673741  0.87926133  1
  O  O200  1  0.88316339  0.88120809  0.36361867  1
  O  O201  1  0.88728547  0.87817611  0.87495650  1
  O  O202  1  0.26168355  0.00269443  0.37491851  1
  O  O203  1  0.25784806  0.00649609  0.87599295  1
  O  O204  1  0.25126595  0.50708038  0.36800654  1
  O  O205  1  0.25802579  0.50667275  0.87465600  1
  O  O206  1  0.74939669  0.00346651  0.36424077  1
  O  O207  1  0.74986624  -0.00692972  0.85453107  1
  O  O208  1  0.75442858  0.50630511  0.36870128  1
  O  O209  1  0.76014220  0.50629506  0.87595387  1
  O  O210  1  0.24487499  0.49498571  0.12977935  1
  O  O211  1  0.23615612  0.49778328  0.62780242  1
  O  O212  1  0.24635323  0.99070611  0.12744163  1
  O  O213  1  0.23673886  0.99982696  0.62721917  1
  O  O214  1  0.75848396  0.48854384  0.12952159  1
  O  O215  1  0.74095801  0.49333194  0.62382183  1
  O  O216  1  0.74478906  0.99953248  0.13529452  1
  O  O217  1  0.74522004  0.98944114  0.62972388  1
  O  O218  1  0.00607943  0.37430718  0.25694612  1
  O  O219  1  0.00848087  0.36880595  0.75480578  1
  O  O220  1  0.00958916  0.86672374  0.24783655  1
  O  O221  1  0.00903175  0.86725869  0.75662977  1
  O  O222  1  0.50340204  0.37020025  0.25361695  1
  O  O223  1  0.50960869  0.37418164  0.75584400  1
  O  O224  1  0.51275156  0.87880903  0.24750552  1
  O  O225  1  0.50532792  0.86856255  0.75418954  1
  O  O226  1  0.49529590  0.12938727  0.24145171  1
  O  O227  1  0.49473566  0.12407012  0.74301948  1
  O  O228  1  0.48996862  0.61546779  0.23948174  1
  O  O229  1  0.49533179  0.62948137  0.74498212  1
  O  O230  1  0.98970982  0.12672020  0.24467880  1
  O  O231  1  1.00909382  0.13676254  0.74210056  1
  O  O232  1  0.99385595  0.62971554  0.24386032  1
  O  O233  1  1.00379619  0.64211806  0.75335634  1
  O  O234  1  0.37060434  0.25613417  0.00653401  1
  O  O235  1  0.37051147  0.25364851  0.50551158  1
  O  O236  1  0.37259510  0.75217541  0.01242792  1
  O  O237  1  0.37554241  0.75881101  0.50496794  1
  O  O238  1  0.86751228  0.25313693  0.01337837  1
  O  O239  1  0.86768291  0.25613032  0.50060290  1
  O  O240  1  0.87061308  0.74991424  0.00836122  1
  O  O241  1  0.85946878  0.74298100  0.49135180  1
  O  O242  1  0.12932888  0.24656487  0.49645807  1
  O  O243  1  0.13272361  0.24435800  1.00060446  1
  O  O244  1  0.12436973  0.74321102  0.49436593  1
  O  O245  1  0.12712953  0.74292167  0.99485112  1
  O  O246  1  0.62890581  0.24351166  0.49480882  1
  O  O247  1  0.63571403  0.24910965  0.99867834  1
  O  O248  1  0.63003262  0.74434713  0.49016286  1
  O  O249  1  0.63022992  0.74432654  0.99324724  1
  O  O250  1  0.49484013  0.24278931  0.12885376  1
  O  O251  1  0.49303638  0.24060004  0.62543158  1
  O  O252  1  0.48919248  0.73888404  0.11980728  1
  O  O253  1  0.49518686  0.74365700  0.63005827  1
  O  O254  1  0.98922801  0.24693769  0.12826550  1
  O  O255  1  0.99893531  0.24230916  0.63299193  1
  O  O256  1  0.99317947  0.74425135  0.12904898  1
  O  O257  1  1.00630037  0.75205465  0.64186477  1
  O  O258  1  0.00601337  0.25683730  0.37508613  1
  O  O259  1  0.00160165  0.25692025  0.86800401  1
  O  O260  1  0.00753268  0.74824158  0.36729862  1
  O  O261  1  0.00752563  0.75876156  0.86702096  1
  O  O262  1  0.50417263  0.25464246  0.36933778  1
  O  O263  1  0.50349716  0.25888530  0.87354934  1
  O  O264  1  0.51334568  0.74383282  0.37710467  1
  O  O265  1  0.50530468  0.75404262  0.87000061  1
  O  O266  1  0.24246347  0.13188339  0.49914714  1
  O  O267  1  0.24637342  0.13074889  0.99725613  1
  O  O268  1  0.24336982  0.62581793  0.49296344  1
  O  O269  1  0.24469698  0.62548605  0.99482684  1
  O  O270  1  0.74253803  0.12950217  0.49979589  1
  O  O271  1  0.74814560  0.14029774  1.00841419  1
  O  O272  1  0.74212811  0.63160687  0.49312559  1
  O  O273  1  0.74411241  0.63081881  0.99444721  1
  O  O274  1  0.25591567  0.37101451  0.00610880  1
  O  O275  1  0.25721054  0.36834105  0.50224923  1
  O  O276  1  0.25197517  0.87414789  0.01353854  1
  O  O277  1  0.26158696  0.87355982  0.50403611  1
  O  O278  1  0.75140933  0.36885917  0.01018766  1
  O  O279  1  0.75301471  0.36938489  0.50325739  1
  O  O280  1  0.75049149  0.86654175  0.00235155  1
  O  O281  1  0.74421018  0.86532667  0.50665467  1
  O  O282  1  0.12986888  0.49526904  0.24439580  1
  O  O283  1  0.12295430  0.49154141  0.74271872  1
  O  O284  1  0.12654995  0.99386670  0.24492049  1
  O  O285  1  0.12319244  0.99192621  0.74215211  1
  O  O286  1  0.63293523  0.49173907  0.25539723  1
  O  O287  1  0.62472713  0.49004919  0.74314183  1
  O  O288  1  0.62978896  0.98857912  0.25064698  1
  O  O289  1  0.63251399  0.99127519  0.74130382  1
  O  O290  1  0.37620261  0.00392930  0.26037363  1
  O  O291  1  0.37382323  0.00570826  0.75569116  1
  O  O292  1  0.36804068  0.51088407  0.25030274  1
  O  O293  1  0.37532591  0.50625474  0.75676810  1
  O  O294  1  0.86551425  0.01039640  0.24601485  1
  O  O295  1  0.86124091  -0.00626919  0.74594579  1
  O  O296  1  0.86762250  0.50604451  0.25460206  1
  O  O297  1  0.87589676  0.49998254  0.76443116  1
  O  O298  1  0.11928371  0.37099565  0.37061864  1
  O  O299  1  0.11910647  0.37609280  0.86608593  1
  O  O300  1  0.12179776  0.86836863  0.36980941  1
  O  O301  1  0.11912855  0.87234176  0.86834535  1
  O  O302  1  0.61797268  0.36815499  0.36912283  1
  O  O303  1  0.62069054  0.37636132  0.86477886  1
  O  O304  1  0.62627852  0.86718672  0.36134290  1
  O  O305  1  0.61922886  0.86757847  0.86694921  1
  O  O306  1  0.38531168  0.12959657  0.12944793  1
  O  O307  1  0.37937706  0.12800013  0.63008915  1
  O  O308  1  0.38163521  0.63181013  0.13164301  1
  O  O309  1  0.38055835  0.62914585  0.63037262  1
  O  O310  1  0.87932458  0.13466792  0.13425975  1
  O  O311  1  0.88956885  0.12646954  0.62313177  1
  O  O312  1  0.88071176  0.63328576  0.12841921  1
  O  O313  1  0.88298207  0.61147373  0.63173240  1
  O  O314  1  0.25637120  0.25639830  0.12061156  1
  O  O315  1  0.25631647  0.25063493  0.61876390  1
  O  O316  1  0.25928450  0.75858656  0.12464790  1
  O  O317  1  0.25785716  0.75131019  0.62312614  1
  O  O318  1  0.75674761  0.25952491  0.12099320  1
  O  O319  1  0.75102171  0.25673041  0.61740213  1
  O  O320  1  0.76042197  0.74855690  0.11811752  1
  O  O321  1  0.74296599  0.75790742  0.61226702  1
  O  O322  1  0.24280495  0.24876850  0.38291144  1
  O  O323  1  0.24918895  0.24351791  0.88362625  1
  O  O324  1  0.24275962  0.74280123  0.37652776  1
  O  O325  1  0.24484237  0.74404637  0.87764125  1
  O  O326  1  0.74168891  0.24777116  0.38102460  1
  O  O327  1  0.75108544  0.25564654  0.88825812  1
  O  O328  1  0.74013040  0.74445381  0.38062781  1
  O  O329  1  0.74488326  0.74590981  0.87865555  1
  O  O330  1  0.00740907  0.12698370  0.00850502  1
  O  O331  1  0.00689179  0.11785409  0.51042093  1
  O  O332  1  0.00743255  0.62050207  0.00517585  1
  O  O333  1  0.00739179  0.61669823  0.49856871  1
  O  O334  1  0.50064697  0.11736208  0.00711722  1
  O  O335  1  0.50386938  0.11384914  0.50543328  1
  O  O336  1  0.50448627  0.61777565  0.00749807  1
  O  O337  1  0.50406822  0.61930599  0.50568233  1
  O  O338  1  0.49533017  0.37922939  0.49474245  1
  O  O339  1  0.49643178  0.38252793  0.99797909  1
  O  O340  1  0.48958488  0.88512255  0.50614959  1
  O  O341  1  0.50051965  0.88351860  0.99419093  1
  O  O342  1  0.99397528  0.37982431  0.49421245  1
  O  O343  1  0.99949142  0.38279772  0.99499797  1
  O  O344  1  1.00440520  0.89183911  0.50367428  1
  O  O345  1  1.00060711  0.87539870  0.98834284  1
  O  O346  1  0.49776975  0.49287010  0.38202782  1
  O  O347  1  0.49458448  0.49540229  0.88526206  1
  O  O348  1  0.48903500  1.00401045  0.38661224  1
  O  O349  1  0.49741013  0.99550057  0.88113307  1
  O  O350  1  0.99362493  0.49436146  0.37943615  1
  O  O351  1  0.99433569  0.49729694  0.88039660  1
  O  O352  1  1.00330038  1.00237667  0.39289835  1
  O  O353  1  1.00025504  0.98947802  0.87488767  1
  O  O354  1  0.00706283  0.00753355  0.12570120  1
  O  O355  1  0.00816130  0.00616832  0.61932741  1
  O  O356  1  0.00467269  0.50579688  0.12092788  1
  O  O357  1  0.01210217  0.49679821  0.61815344  1
  O  O358  1  0.49891642  0.00836443  0.11596119  1
  O  O359  1  0.50443004  0.00361460  0.61517144  1
  O  O360  1  0.49334686  0.51074125  0.11368243  1
  O  O361  1  0.50530554  0.50535458  0.61881999  1
  O  O362  1  0.24503647  0.38054464  0.24477908  1
  O  O363  1  0.23822986  0.37636426  0.75015049  1
  O  O364  1  0.24402240  0.87560119  0.23996051  1
  O  O365  1  0.23766453  0.87743622  0.75016603  1
  O  O366  1  0.74462711  0.38041342  0.24322647  1
  O  O367  1  0.74110651  0.37875915  0.74303777  1
  O  O368  1  0.74336821  0.88575144  0.24661911  1
  O  O369  1  0.74454405  0.87955228  0.73848664  1
  O  O370  1  0.25987486  0.12243949  0.25183256  1
  O  O371  1  0.25565187  0.12362737  0.75800933  1
  O  O372  1  0.25842471  0.62013692  0.25399784  1
  O  O373  1  0.25676298  0.62318627  0.75797772  1
  O  O374  1  0.75584504  0.11665928  0.24984053  1
  O  O375  1  0.74545536  0.10587158  0.74027010  1
  O  O376  1  0.75367057  0.62080354  0.25330890  1
  O  O377  1  0.74907046  0.62273833  0.75786038  1
  O  O378  1  0.37426510  0.11478805  0.36997064  1
  O  O379  1  0.37102871  0.11959202  0.87000926  1
  O  O380  1  0.37019525  0.62470040  0.36543957  1
  O  O381  1  0.37190369  0.62095915  0.87065484  1
  O  O382  1  0.87408962  0.12193858  0.36308967  1
  O  O383  1  0.86801758  0.12329467  0.87302585  1
  O  O384  1  0.86819452  0.61870734  0.36704055  1
  O  O385  1  0.87016815  0.61833708  0.87215680  1
  O  O386  1  0.13047681  0.38090040  0.13063023  1
  O  O387  1  0.12544017  0.38267568  0.63414805  1
  O  O388  1  0.13302483  0.87911782  0.13054574  1
  O  O389  1  0.12485802  0.88397101  0.63460834  1
  O  O390  1  0.63692842  0.36932658  0.13230044  1
  O  O391  1  0.62827729  0.37993766  0.63094911  1
  O  O392  1  0.62658227  0.87387441  0.13888335  1
  O  O393  1  0.63006640  0.87942398  0.62884350  1
  O  O394  1  0.12371179  0.25749312  0.25688827  1
  O  O395  1  0.11609994  0.26057513  0.75099141  1
  O  O396  1  0.11971653  0.75394744  0.25482423  1
  O  O397  1  0.11855428  0.75919502  0.75630550  1
  O  O398  1  0.61876535  0.25627809  0.25478628  1
  O  O399  1  0.62445454  0.26301414  0.74880196  1
  O  O400  1  0.62982904  0.76383765  0.25682865  1
  O  O401  1  0.61915681  0.75332231  0.75466938  1
  O  O402  1  0.38124959  0.24541625  0.24476015  1
  O  O403  1  0.37706889  0.24274312  0.74365329  1
  O  O404  1  0.37067808  0.73784989  0.24082022  1
  O  O405  1  0.38161444  0.74416986  0.74510818  1
  O  O406  1  0.87213890  0.24134125  0.24206560  1
  O  O407  1  0.88877504  0.26064025  0.74713693  1
  O  O408  1  0.87851797  0.74303860  0.24077288  1
  O  O409  1  0.89174976  0.75151261  0.75634108  1
  O  O410  1  0.38121976  0.49315347  0.49991074  1
  O  O411  1  0.38468586  0.49493402  0.99546506  1
  O  O412  1  0.38083317  0.99309589  0.49463985  1
  O  O413  1  0.38729641  0.99840426  0.99394602  1
  O  O414  1  0.87894178  0.49363175  0.49126577  1
  O  O415  1  0.88255263  0.50158001  0.98989234  1
  O  O416  1  0.89103193  1.00758214  0.50142297  1
  O  O417  1  0.87848873  0.99578783  0.99823860  1
  O  O418  1  0.12247599  0.00812087  0.00934173  1
  O  O419  1  0.11783152  0.00504295  0.50946538  1
  O  O420  1  0.12045642  0.50545484  0.00648647  1
  O  O421  1  0.11996971  0.50340593  0.50701800  1
  O  O422  1  0.61405617  0.00109601  0.00085903  1
  O  O423  1  0.61660627  0.00157434  0.50146978  1
  O  O424  1  0.61315133  0.50590716  -0.00536356  1
  O  O425  1  0.61882631  0.50627980  0.50337291  1
  O  O426  1  0.37018528  0.37046954  0.12049434  1
  O  O427  1  0.37452103  0.36776715  0.61948569  1
  O  O428  1  0.36847583  0.86681910  0.12725195  1
  O  O429  1  0.37315801  0.86934988  0.61647263  1
  O  O430  1  0.86593180  0.36629146  0.12729952  1
  O  O431  1  0.86755813  0.37586025  0.61656066  1
  O  O432  1  0.87527280  0.86110418  0.12520936  1
  O  O433  1  0.86266539  0.87533023  0.62543864  1
  O  O434  1  0.12533705  0.13266308  0.38199783  1
  O  O435  1  0.13245342  0.12624523  0.88347785  1
  O  O436  1  0.13025161  0.62950172  0.37948707  1
  O  O437  1  0.13166682  0.62952105  0.88119904  1
  O  O438  1  0.62334652  0.13142210  0.38079355  1
  O  O439  1  0.63825071  0.12920897  0.87480348  1
  O  O440  1  0.62960887  0.63210372  0.37769587  1
  O  O441  1  0.62957654  0.63001971  0.88134927  1
