# generated using pymatgen
data_V93Zn93O256
_symmetry_space_group_name_H-M   'P 1'
_cell_length_a   17.04783199
_cell_length_b   17.05283093
_cell_length_c   17.05361026
_cell_angle_alpha   90.01254460
_cell_angle_beta   90.01865399
_cell_angle_gamma   89.96688410
_symmetry_Int_Tables_number   1
_chemical_formula_structural   V93Zn93O256
_chemical_formula_sum   'V93 Zn93 O256'
_cell_volume   4957.71857589
_cell_formula_units_Z   1
loop_
 _symmetry_equiv_pos_site_id
 _symmetry_equiv_pos_as_xyz
  1  'x, y, z'
loop_
 _atom_site_type_symbol
 _atom_site_label
 _atom_site_symmetry_multiplicity
 _atom_site_fract_x
 _atom_site_fract_y
 _atom_site_fract_z
 _atom_site_occupancy
  V  V0  1  0.49971514  0.37611139  0.87472905  1
  V  V1  1  0.12062071  0.37412268  0.75612608  1
  V  V2  1  0.24881097  0.24854551  -0.00287124  1
  V  V3  1  0.37129022  0.87620231  0.00806441  1
  V  V4  1  0.12549020  0.37545213  0.25115100  1
  V  V5  1  0.62852721  0.12915639  -0.00111080  1
  V  V6  1  0.37380958  0.37966582  0.49573396  1
  V  V7  1  0.12858296  -0.00387253  0.12394550  1
  V  V8  1  0.87970754  0.62420296  0.24813731  1
  V  V9  1  0.62503754  0.25144502  0.37374532  1
  V  V10  1  0.88183296  0.87886525  0.49948814  1
  V  V11  1  -0.00035666  0.62350736  0.62366134  1
  V  V12  1  0.62553949  0.49887348  0.12436634  1
  V  V13  1  0.75000020  0.25107112  0.49814033  1
  V  V14  1  0.87542602  -0.00406847  0.87339186  1
  V  V15  1  0.62396264  0.87442559  0.75101216  1
  V  V16  1  0.25365515  0.62294997  0.37595085  1
  V  V17  1  0.62752550  0.00089595  0.12480931  1
  V  V18  1  0.12824564  0.87615235  0.75063940  1
  V  V19  1  0.37441115  0.25125555  0.12487254  1
  V  V20  1  0.37294139  0.00187200  0.87401282  1
  V  V21  1  0.62562128  0.25054949  0.87658029  1
  V  V22  1  0.00063054  0.37428037  0.37389428  1
  V  V23  1  0.62545661  0.37589579  0.24771602  1
  V  V24  1  0.88133055  -0.00044931  0.37784502  1
  V  V25  1  0.25332641  0.49951850  0.25307018  1
  V  V26  1  0.74989656  0.87559556  0.62445220  1
  V  V27  1  0.87522117  0.12320705  0.74732682  1
  V  V28  1  0.49948191  0.25114275  0.25004045  1
  V  V29  1  0.62490531  0.12599162  0.49951063  1
  V  V30  1  0.49866726  0.50153034  -0.00003731  1
  V  V31  1  0.62412794  0.50087850  0.62455360  1
  V  V32  1  0.75024022  0.62499064  0.37456353  1
  V  V33  1  0.76256657  0.36952727  0.11830040  1
  V  V34  1  0.37455514  0.87590353  0.50045904  1
  V  V35  1  0.24862732  0.75086154  0.49954469  1
  V  V36  1  0.24859129  0.49946163  0.74978342  1
  V  V37  1  0.87450168  0.62468425  0.74983434  1
  V  V38  1  0.37344607  0.50110243  0.87453782  1
  V  V39  1  0.00091802  0.74930454  0.25008969  1
  V  V40  1  0.49913879  0.62515014  0.62438357  1
  V  V41  1  0.75014029  0.50053715  0.75043779  1
  V  V42  1  0.75028405  0.00055369  0.75010639  1
  V  V43  1  0.87472060  0.24927390  0.62415493  1
  V  V44  1  0.00117069  -0.00428520  0.00072169  1
  V  V45  1  0.87496077  0.37486866  0.49843463  1
  V  V46  1  0.87831421  0.74529907  0.12501695  1
  V  V47  1  0.49898289  0.00112115  0.50021498  1
  V  V48  1  0.37367976  0.62492946  0.75078299  1
  V  V49  1  0.37446966  0.12545039  0.25031305  1
  V  V50  1  0.87633077  0.12635859  0.24764423  1
  V  V51  1  0.87526139  0.50071534  0.37431109  1
  V  V52  1  0.25036140  0.75317430  0.00716919  1
  V  V53  1  0.11932473  -0.00070805  0.62081862  1
  V  V54  1  0.37510709  0.00156230  0.37456338  1
  V  V55  1  0.75070103  0.12608332  0.37362326  1
  V  V56  1  0.11977633  0.50555629  0.12687033  1
  V  V57  1  0.12266948  0.62600769  0.00196192  1
  V  V58  1  0.37678585  0.62363279  0.25092335  1
  V  V59  1  0.62461761  0.62602479  0.49874607  1
  V  V60  1  0.87431160  0.75025139  0.62435288  1
  V  V61  1  0.74990877  -0.00194381  0.24878091  1
  V  V62  1  0.25214163  -0.00378351  0.24630935  1
  V  V63  1  0.50371332  0.87354997  0.37361942  1
  V  V64  1  0.75108057  0.74848824  0.00075531  1
  V  V65  1  0.37459150  0.37555327  0.00041745  1
  V  V66  1  0.00194808  0.74987646  0.75241453  1
  V  V67  1  0.62509227  0.62600122  0.00047218  1
  V  V68  1  0.49841460  0.12598479  0.62484627  1
  V  V69  1  0.49891527  0.25062759  0.74915081  1
  V  V70  1  0.74929208  0.62491207  0.87609251  1
  V  V71  1  0.62371013  0.37595554  0.74980861  1
  V  V72  1  0.12342985  0.49907172  0.62560830  1
  V  V73  1  0.87932756  0.49468298  0.87786760  1
  V  V74  1  0.62428583  0.00068771  0.62537100  1
  V  V75  1  0.37218228  0.25113773  0.62333942  1
  V  V76  1  0.74867739  0.37565536  0.62319308  1
  V  V77  1  0.87560570  0.87293640  0.00060836  1
  V  V78  1  0.49700467  0.50082199  0.49628354  1
  V  V79  1  -0.00080204  0.49788668  -0.00111405  1
  V  V80  1  0.50121753  0.12654993  0.12490099  1
  V  V81  1  0.50018587  0.75081772  0.75123755  1
  V  V82  1  0.00051258  0.49971819  0.50026761  1
  V  V83  1  0.11849081  0.12111416  0.49612965  1
  V  V84  1  -0.00207102  0.25027806  0.24575584  1
  V  V85  1  0.12873811  0.87336891  0.24907145  1
  V  V86  1  0.49801317  0.37930175  0.37462076  1
  V  V87  1  0.74911345  0.75001649  0.49911648  1
  V  V88  1  -0.00228694  0.12660367  0.12414804  1
  V  V89  1  0.37401227  0.75076025  0.62607217  1
  V  V90  1  0.50071077  -0.00053546  -0.00056321  1
  V  V91  1  0.49897616  0.62713769  0.12537088  1
  V  V92  1  -0.00092845  0.25280300  0.75286963  1
  Zn  Zn93  1  0.75078456  0.12665043  0.87520342  1
  Zn  Zn94  1  0.12698353  0.24970529  0.37599663  1
  Zn  Zn95  1  0.77257844  0.25172768  -0.00005049  1
  Zn  Zn96  1  0.37181902  0.12515406  0.74988040  1
  Zn  Zn97  1  0.25058782  0.87734447  0.62568011  1
  Zn  Zn98  1  0.24701078  0.37438094  0.62263902  1
  Zn  Zn99  1  0.24765358  0.24986141  0.49679161  1
  Zn  Zn100  1  0.50199293  0.75049384  0.24868749  1
  Zn  Zn101  1  0.24951074  0.62656563  0.87612719  1
  Zn  Zn102  1  0.50045076  0.87338695  0.87679726  1
  Zn  Zn103  1  0.00384547  0.87737119  0.37879196  1
  Zn  Zn104  1  -0.06267928  0.33213318  0.93817703  1
  Zn  Zn105  1  0.25041355  0.12696362  0.37585378  1
  Zn  Zn106  1  0.11965952  0.24914292  0.87784188  1
  Zn  Zn107  1  0.00202274  0.87339699  0.87697111  1
  Zn  Zn108  1  0.37355238  0.75581533  0.12921597  1
  Zn  Zn109  1  0.62523350  0.87117647  0.24720597  1
  Zn  Zn110  1  0.62417773  0.75168418  0.87655553  1
  Zn  Zn111  1  0.25022347  0.37599563  0.12547228  1
  Zn  Zn112  1  0.24972546  0.00397171  0.74796167  1
  Zn  Zn113  1  0.12450972  0.62497758  0.49858359  1
  Zn  Zn114  1  0.75172485  0.49917678  0.24721256  1
  Zn  Zn115  1  0.74915750  0.87313367  0.12530682  1
  Zn  Zn116  1  0.62549483  0.74953918  0.37185751  1
  Zn  Zn117  1  0.12375624  0.75088537  0.37624665  1
  Zn  Zn118  1  0.24492673  0.12594215  0.86981196  1
  Zn  Zn119  1  0.12711693  0.12313211  -0.00316197  1
  Zn  Zn120  1  0.12755015  0.74963445  0.87704422  1
  Zn  Zn121  1  -0.00291413  0.12163008  0.62020546  1
  Zn  Zn122  1  0.18712349  0.18585677  0.18619309  1
  Zn  Zn123  1  0.18674836  0.18517849  0.68550135  1
  Zn  Zn124  1  0.18870477  0.68653579  0.18647524  1
  Zn  Zn125  1  0.18728652  0.68575994  0.68617251  1
  Zn  Zn126  1  0.68984625  0.19013773  0.18556068  1
  Zn  Zn127  1  0.68721331  0.18758108  0.68790199  1
  Zn  Zn128  1  0.68832142  0.68765793  0.18880307  1
  Zn  Zn129  1  0.68676676  0.68829027  0.68754644  1
  Zn  Zn130  1  0.31078447  0.31149196  0.31525070  1
  Zn  Zn131  1  0.31005788  0.31474908  0.81099478  1
  Zn  Zn132  1  0.31461747  0.81161017  0.31383121  1
  Zn  Zn133  1  0.31166471  0.81319218  0.81982553  1
  Zn  Zn134  1  0.81326400  0.31383131  0.30738191  1
  Zn  Zn135  1  0.80749023  0.30910020  0.81009465  1
  Zn  Zn136  1  0.81277985  0.81264651  0.31429577  1
  Zn  Zn137  1  0.81166579  0.81261754  0.81371441  1
  Zn  Zn138  1  0.18749587  0.43765682  0.43763398  1
  Zn  Zn139  1  0.18757310  0.43705964  0.93767726  1
  Zn  Zn140  1  0.18831075  0.93968434  0.43497068  1
  Zn  Zn141  1  0.18992363  0.93483425  0.93580132  1
  Zn  Zn142  1  0.68602486  0.44015224  0.43522870  1
  Zn  Zn143  1  0.68928383  0.43792759  0.93893294  1
  Zn  Zn144  1  0.68982360  0.93835254  0.43774084  1
  Zn  Zn145  1  0.68915464  0.93645706  0.93679431  1
  Zn  Zn146  1  0.31301990  0.06408716  0.06189357  1
  Zn  Zn147  1  0.30528844  0.06412679  0.56240770  1
  Zn  Zn148  1  0.30955632  0.56510241  0.06513123  1
  Zn  Zn149  1  0.31120235  0.56169046  0.56446122  1
  Zn  Zn150  1  0.81422301  0.06199830  0.06110211  1
  Zn  Zn151  1  0.81203514  0.06226848  0.56168588  1
  Zn  Zn152  1  0.81280673  0.55960775  0.06315385  1
  Zn  Zn153  1  0.81243402  0.56256356  0.56158966  1
  Zn  Zn154  1  0.43710619  0.43884583  0.18686283  1
  Zn  Zn155  1  0.43585453  0.43770491  0.68492531  1
  Zn  Zn156  1  0.44100964  0.93993530  0.18732280  1
  Zn  Zn157  1  0.43704680  0.93659627  0.68884270  1
  Zn  Zn158  1  0.94058700  0.43938184  0.18567026  1
  Zn  Zn159  1  0.93690949  0.43601487  0.68815556  1
  Zn  Zn160  1  0.93886180  0.93475260  0.18769148  1
  Zn  Zn161  1  0.94001539  0.93637614  0.68698691  1
  Zn  Zn162  1  0.06354545  0.06172831  0.31018980  1
  Zn  Zn163  1  0.06240727  0.06379474  0.81206966  1
  Zn  Zn164  1  0.06478788  0.56415065  0.31557646  1
  Zn  Zn165  1  0.06316787  0.56248885  0.81564664  1
  Zn  Zn166  1  0.56278447  0.06263088  0.31237686  1
  Zn  Zn167  1  0.55975373  0.06277234  0.81314328  1
  Zn  Zn168  1  0.56368032  0.56094119  0.31212389  1
  Zn  Zn169  1  0.56174372  0.56453520  0.81331059  1
  Zn  Zn170  1  0.43694433  0.19026929  0.43720415  1
  Zn  Zn171  1  0.43735570  0.18692548  0.93712019  1
  Zn  Zn172  1  0.43568211  0.68829675  0.43674100  1
  Zn  Zn173  1  0.43593538  0.69020192  0.93758942  1
  Zn  Zn174  1  0.93963164  0.18832545  0.43394255  1
  Zn  Zn175  1  0.93993578  0.17059598  0.93433070  1
  Zn  Zn176  1  0.93729430  0.68931818  0.43615925  1
  Zn  Zn177  1  0.93900938  0.68212381  0.93754380  1
  Zn  Zn178  1  0.06771210  0.31465125  0.06717520  1
  Zn  Zn179  1  0.06242043  0.30970800  0.56504007  1
  Zn  Zn180  1  0.06227840  0.81114620  0.06622601  1
  Zn  Zn181  1  0.06391927  0.81148243  0.56605661  1
  Zn  Zn182  1  0.56388694  0.31409462  0.06309871  1
  Zn  Zn183  1  0.56022023  0.31345213  0.56129829  1
  Zn  Zn184  1  0.56162269  0.81331467  0.06386524  1
  Zn  Zn185  1  0.56207087  0.81230984  0.56260946  1
  O  O186  1  0.11515293  0.11208686  0.12615231  1
  O  O187  1  0.12303223  0.11696740  0.61330093  1
  O  O188  1  0.12981583  0.61449738  0.11640123  1
  O  O189  1  0.11675690  0.61738995  0.62324256  1
  O  O190  1  0.62094487  0.12206837  0.11739607  1
  O  O191  1  0.61938084  0.12086556  0.61866585  1
  O  O192  1  0.62020597  0.61866704  0.11993404  1
  O  O193  1  0.61930675  0.61980785  0.61927878  1
  O  O194  1  0.38322697  0.36791016  0.38739296  1
  O  O195  1  0.38135032  0.38134371  0.87980358  1
  O  O196  1  0.38401021  0.88155864  0.38038919  1
  O  O197  1  0.37783573  0.88526686  0.88622441  1
  O  O198  1  0.88020997  0.38048586  0.37881546  1
  O  O199  1  0.86818016  0.39053301  0.86775880  1
  O  O200  1  0.87425615  0.88323230  0.38360393  1
  O  O201  1  0.87811716  0.87883961  0.88160730  1
  O  O202  1  0.25765780  0.00215884  0.36320691  1
  O  O203  1  0.26167245  0.00188833  0.87488319  1
  O  O204  1  0.24356451  0.51026899  0.36331258  1
  O  O205  1  0.25707693  0.50067825  0.86780828  1
  O  O206  1  0.75743537  0.00668112  0.36689787  1
  O  O207  1  0.75717032  0.00080343  0.86703024  1
  O  O208  1  0.75781712  0.50620115  0.37245816  1
  O  O209  1  0.75714147  0.50569908  0.87017690  1
  O  O210  1  0.24053404  0.49985541  0.13682206  1
  O  O211  1  0.24153464  0.49942608  0.63236617  1
  O  O212  1  0.24073690  1.00571731  0.13517322  1
  O  O213  1  0.23686009  0.99598040  0.62722689  1
  O  O214  1  0.74354210  0.48935335  0.12509259  1
  O  O215  1  0.74450299  0.49527968  0.62990669  1
  O  O216  1  0.74715939  1.00098967  0.13513419  1
  O  O217  1  0.74360438  0.99496266  0.62967311  1
  O  O218  1  0.00436108  0.36798998  0.25276797  1
  O  O219  1  0.00715429  0.36471352  0.74425712  1
  O  O220  1  0.00866358  0.86622735  0.25276557  1
  O  O221  1  0.00835675  0.86373685  0.74914838  1
  O  O222  1  0.50414860  0.37051955  0.25451106  1
  O  O223  1  0.50539822  0.37172104  0.75463796  1
  O  O224  1  0.50122214  0.87636524  0.26205938  1
  O  O225  1  0.50694756  0.86800620  0.74983935  1
  O  O226  1  0.49550326  0.13102472  0.24471369  1
  O  O227  1  0.49783789  0.13277933  0.74219164  1
  O  O228  1  0.48998616  0.62234574  0.24624685  1
  O  O229  1  0.49441830  0.62972582  0.74311857  1
  O  O230  1  0.99731861  0.13128359  0.24321695  1
  O  O231  1  0.99311410  0.13528494  0.74584564  1
  O  O232  1  0.98933745  0.63479008  0.25761461  1
  O  O233  1  0.99510627  0.63198861  0.74451950  1
  O  O234  1  0.36981561  0.25553334  0.00533432  1
  O  O235  1  0.37739605  0.25989370  0.50908960  1
  O  O236  1  0.36818064  0.75898686  0.00183145  1
  O  O237  1  0.36721185  0.75508546  0.50561526  1
  O  O238  1  0.88433340  0.24917282  -0.00946057  1
  O  O239  1  0.86923740  0.25529162  0.50262341  1
  O  O240  1  0.87336588  0.75005486  0.00817729  1
  O  O241  1  0.86859684  0.75768473  0.50509566  1
  O  O242  1  0.12568007  0.23686883  0.50051453  1
  O  O243  1  0.13607135  0.25075880  0.99994473  1
  O  O244  1  0.13626331  0.74865370  0.49978021  1
  O  O245  1  0.13006764  0.74288574  1.00320910  1
  O  O246  1  0.63010146  0.24609046  0.49402607  1
  O  O247  1  0.61975910  0.23925502  0.99441811  1
  O  O248  1  0.63143690  0.74337256  0.49947990  1
  O  O249  1  0.63276058  0.74334355  1.00055350  1
  O  O250  1  0.49497836  0.24579881  0.13090312  1
  O  O251  1  0.49318158  0.24590454  0.62906303  1
  O  O252  1  0.49659710  0.74131229  0.12755988  1
  O  O253  1  0.49359624  0.74417084  0.62969916  1
  O  O254  1  1.00907208  0.23838049  0.13426622  1
  O  O255  1  0.99049300  0.24804438  0.63410359  1
  O  O256  1  0.98915621  0.75261407  0.13765127  1
  O  O257  1  0.99395393  0.74400185  0.63373043  1
  O  O258  1  0.00390830  0.25628443  0.36359961  1
  O  O259  1  -0.00298699  0.25142919  0.86174899  1
  O  O260  1  0.00166470  0.75372175  0.36340144  1
  O  O261  1  0.00103857  0.74858883  0.86185746  1
  O  O262  1  0.50657675  0.25709708  0.36914036  1
  O  O263  1  0.50437576  0.25701901  0.86920406  1
  O  O264  1  0.50028735  0.76270042  0.37551432  1
  O  O265  1  0.50270780  0.75155651  0.86634342  1
  O  O266  1  0.23633216  0.12768809  0.49621791  1
  O  O267  1  0.24906319  0.13714871  0.99995256  1
  O  O268  1  0.25251886  0.63245653  0.49191839  1
  O  O269  1  0.24095323  0.63198296  0.99885273  1
  O  O270  1  0.74448964  0.13149144  0.49361371  1
  O  O271  1  0.73929873  0.12848426  1.00068425  1
  O  O272  1  0.74526844  0.63006297  0.49528981  1
  O  O273  1  0.74508478  0.62882477  0.99598146  1
  O  O274  1  0.25677563  0.36713737  0.00202367  1
  O  O275  1  0.26022373  0.37424606  0.50128742  1
  O  O276  1  0.25984728  0.86629898  -0.00269471  1
  O  O277  1  0.25594471  0.86523264  0.49755406  1
  O  O278  1  0.74624048  0.37327631  0.01402651  1
  O  O279  1  0.75435106  0.37053998  0.50332882  1
  O  O280  1  0.75813807  0.86699480  0.00160619  1
  O  O281  1  0.75794729  0.87020015  0.50564878  1
  O  O282  1  0.13041690  0.49809878  0.24375085  1
  O  O283  1  0.12662766  0.49310042  0.74581120  1
  O  O284  1  0.13240677  0.99288459  0.24429783  1
  O  O285  1  0.12460753  0.98983522  0.74286497  1
  O  O286  1  0.62737497  0.49381350  0.24217932  1
  O  O287  1  0.62989023  0.49587471  0.74444833  1
  O  O288  1  0.63632715  1.00303873  0.24474021  1
  O  O289  1  0.62923545  0.99579410  0.74385188  1
  O  O290  1  0.36873978  0.00475689  0.25263483  1
  O  O291  1  0.37411501  -0.00042143  0.76088101  1
  O  O292  1  0.36355926  0.50984818  0.24449915  1
  O  O293  1  0.36976278  0.50458917  0.75377971  1
  O  O294  1  0.86697659  0.00445890  0.25642123  1
  O  O295  1  0.87006944  0.00233340  0.75210345  1
  O  O296  1  0.87792982  0.51006766  0.25517060  1
  O  O297  1  0.87001314  0.50564098  0.75575853  1
  O  O298  1  0.11687929  0.37623268  0.36802426  1
  O  O299  1  0.12774789  0.37270688  0.86001603  1
  O  O300  1  0.12269607  0.87442370  0.36290221  1
  O  O301  1  0.12148171  0.87205205  0.86398202  1
  O  O302  1  0.62035889  0.36968579  0.36859038  1
  O  O303  1  0.61918098  0.37205026  0.86942537  1
  O  O304  1  0.61430592  0.87645803  0.37545693  1
  O  O305  1  0.62307891  0.87288964  0.86661049  1
  O  O306  1  0.38228570  0.13071975  0.13067637  1
  O  O307  1  0.38126212  0.13520922  0.62213264  1
  O  O308  1  0.38088200  0.62553195  0.13503612  1
  O  O309  1  0.38042150  0.63058416  0.63085166  1
  O  O310  1  0.89047406  0.11587715  0.13135717  1
  O  O311  1  0.87509941  0.13094395  0.62862385  1
  O  O312  1  0.87041289  0.63401158  0.13607949  1
  O  O313  1  0.87914262  0.63017844  0.63026431  1
  O  O314  1  0.25638454  0.25179914  0.11726011  1
  O  O315  1  0.26274238  0.25206411  0.62253515  1
  O  O316  1  0.25346836  0.74562728  0.11200256  1
  O  O317  1  0.25555709  0.74935151  0.61410442  1
  O  O318  1  0.74836457  0.26481315  0.12236325  1
  O  O319  1  0.75380166  0.25634481  0.61816491  1
  O  O320  1  0.76159100  0.75062871  0.11986345  1
  O  O321  1  0.75580841  0.75550149  0.61999892  1
  O  O322  1  0.24418686  0.24466732  0.37703542  1
  O  O323  1  0.25164284  0.25007725  0.88720129  1
  O  O324  1  0.25005690  0.74259653  0.38455308  1
  O  O325  1  0.24726895  0.74684673  0.88980203  1
  O  O326  1  0.74543672  0.24586510  0.37825565  1
  O  O327  1  0.74039363  0.24780488  0.87937245  1
  O  O328  1  0.74990369  0.74323072  0.38201469  1
  O  O329  1  0.75056598  0.74165725  0.88220134  1
  O  O330  1  0.00513521  0.11358183  0.01027732  1
  O  O331  1  0.01301515  0.12823008  0.50045734  1
  O  O332  1  0.01289914  0.61450413  -0.00268398  1
  O  O333  1  -0.00041201  0.61893944  0.50539018  1
  O  O334  1  0.50870377  0.12023062  0.00587296  1
  O  O335  1  0.50599358  0.12060760  0.50409488  1
  O  O336  1  0.50426773  0.62030473  0.00519194  1
  O  O337  1  0.50327796  0.62094971  0.50472687  1
  O  O338  1  0.49398107  0.38091699  0.49468895  1
  O  O339  1  0.49483762  0.38152759  0.99418582  1
  O  O340  1  0.49498918  0.88164033  0.49371568  1
  O  O341  1  0.49201606  0.88225355  0.99877284  1
  O  O342  1  0.99362904  0.37911635  0.49455916  1
  O  O343  1  1.01024477  0.39112767  1.00070846  1
  O  O344  1  0.98525893  0.86742855  0.49962489  1
  O  O345  1  0.99369478  0.87840625  1.00026175  1
  O  O346  1  0.50606172  0.49158004  0.38376529  1
  O  O347  1  0.49413104  0.49533930  0.88001114  1
  O  O348  1  0.49561963  0.99380448  0.38066126  1
  O  O349  1  0.49118241  0.99888979  0.88217776  1
  O  O350  1  0.99474846  0.49477506  0.38024221  1
  O  O351  1  0.98924801  0.50386891  0.88261733  1
  O  O352  1  0.98425922  0.99815239  0.36649745  1
  O  O353  1  0.99319972  0.99744539  0.88230540  1
  O  O354  1  0.00897542  0.00531461  0.12267226  1
  O  O355  1  0.01369239  0.00150833  0.62809811  1
  O  O356  1  0.01187564  0.49863876  0.11697541  1
  O  O357  1  0.00244668  0.50472328  0.61959900  1
  O  O358  1  0.50750161  0.00818072  0.11992989  1
  O  O359  1  0.50468323  0.00564865  0.61917460  1
  O  O360  1  0.50509178  0.50613333  0.11851487  1
  O  O361  1  0.50552730  0.50621133  0.61886676  1
  O  O362  1  0.24569614  0.38565077  0.25174308  1
  O  O363  1  0.23995163  0.38114936  0.74543721  1
  O  O364  1  0.24261852  0.88473124  0.25476246  1
  O  O365  1  0.23779227  0.87288229  0.74884688  1
  O  O366  1  0.74400536  0.37630166  0.23853812  1
  O  O367  1  0.74269658  0.38088075  0.74234902  1
  O  O368  1  0.74969545  0.88792085  0.25034335  1
  O  O369  1  0.74528107  0.87986934  0.74302899  1
  O  O370  1  0.25601311  0.11412731  0.25086568  1
  O  O371  1  0.25470781  0.12262460  0.75214078  1
  O  O372  1  0.25649169  0.61959930  0.25634195  1
  O  O373  1  0.25617879  0.61860675  0.75149134  1
  O  O374  1  0.75581624  0.11887498  0.25377438  1
  O  O375  1  0.75607664  0.11811794  0.74967446  1
  O  O376  1  0.76274955  0.62361342  0.25604477  1
  O  O377  1  0.75475776  0.61956320  0.75420798  1
  O  O378  1  0.37762706  0.11854437  0.36760773  1
  O  O379  1  0.37506964  0.11341280  0.87466380  1
  O  O380  1  0.36405529  0.62886122  0.36526534  1
  O  O381  1  0.37500223  0.61777082  0.86800095  1
  O  O382  1  0.86990515  0.11793651  0.36988585  1
  O  O383  1  0.87153892  0.11252672  0.86411770  1
  O  O384  1  0.87008574  0.62034659  0.36802834  1
  O  O385  1  0.86898101  0.61605345  0.86859743  1
  O  O386  1  0.12909379  0.38759364  0.13429351  1
  O  O387  1  0.12489984  0.38173691  0.63404949  1
  O  O388  1  0.11965988  0.88566636  0.13761258  1
  O  O389  1  0.12620998  0.88136569  0.63252853  1
  O  O390  1  0.62910055  0.38107411  0.13040049  1
  O  O391  1  0.62901199  0.38091746  0.62918941  1
  O  O392  1  0.62856418  0.88573999  0.12655592  1
  O  O393  1  0.63016774  0.88150372  0.62926801  1
  O  O394  1  0.11576823  0.25585383  0.25014185  1
  O  O395  1  0.11499687  0.25727835  0.74716415  1
  O  O396  1  0.11875453  0.75702317  0.24689730  1
  O  O397  1  0.11651199  0.75646100  0.74793962  1
  O  O398  1  0.61888966  0.25462280  0.25495498  1
  O  O399  1  0.61945610  0.25661074  0.75481944  1
  O  O400  1  0.62164129  0.75332217  0.25416535  1
  O  O401  1  0.61878410  0.75624927  0.74988974  1
  O  O402  1  0.38053215  0.24562158  0.24479355  1
  O  O403  1  0.38167228  0.25343121  0.73914051  1
  O  O404  1  0.37595390  0.73838989  0.24789595  1
  O  O405  1  0.37885295  0.74562876  0.74570952  1
  O  O406  1  0.88930925  0.24293792  0.25485273  1
  O  O407  1  0.87936004  0.24542607  0.74408236  1
  O  O408  1  0.88115795  0.74460120  0.24490300  1
  O  O409  1  0.88216729  0.74548411  0.74432626  1
  O  O410  1  0.38178937  0.48838998  0.50826580  1
  O  O411  1  0.37892141  0.49607349  0.99571388  1
  O  O412  1  0.37956325  0.99602511  0.49535570  1
  O  O413  1  0.37950857  0.99477075  0.99548321  1
  O  O414  1  0.88018915  0.49401475  0.49473288  1
  O  O415  1  0.88671644  0.50779897  0.99093481  1
  O  O416  1  0.86698830  0.99065568  0.48981120  1
  O  O417  1  0.88055056  0.99304690  0.99496120  1
  O  O418  1  0.12179997  -0.00471038  0.01076944  1
  O  O419  1  0.12855797  0.01035774  0.50590591  1
  O  O420  1  0.12168928  0.50667849  0.00692206  1
  O  O421  1  0.11741752  0.50079386  0.50677328  1
  O  O422  1  0.62232378  0.00977359  0.00407126  1
  O  O423  1  0.62057183  0.00657445  0.50557708  1
  O  O424  1  0.61783106  0.50633368  0.00408031  1
  O  O425  1  0.61921986  0.50612615  0.50628996  1
  O  O426  1  0.37441127  0.36898370  0.11843477  1
  O  O427  1  0.37623615  0.36613595  0.61492565  1
  O  O428  1  0.37998540  0.87710974  0.11254718  1
  O  O429  1  0.37329737  0.86885126  0.61805458  1
  O  O430  1  0.86108382  0.38120343  0.12817459  1
  O  O431  1  0.86755960  0.37034735  0.61822032  1
  O  O432  1  0.87334672  0.86353586  0.12008316  1
  O  O433  1  0.86979221  0.87110801  0.61787407  1
  O  O434  1  0.12408073  0.12164513  0.38693229  1
  O  O435  1  0.12644990  0.13010453  0.87946297  1
  O  O436  1  0.13866704  0.62993568  0.37672107  1
  O  O437  1  0.12809329  0.62667857  0.88718283  1
  O  O438  1  0.63024621  0.13130337  0.37997709  1
  O  O439  1  0.62469916  0.13038336  0.88427881  1
  O  O440  1  0.63172237  0.62515105  0.38212388  1
  O  O441  1  0.63190192  0.62555150  0.88223543  1
