# generated using pymatgen
data_V93Zn93O256
_symmetry_space_group_name_H-M   'P 1'
_cell_length_a   17.04881733
_cell_length_b   17.05494628
_cell_length_c   17.05674395
_cell_angle_alpha   89.95374163
_cell_angle_beta   90.02923644
_cell_angle_gamma   90.01598850
_symmetry_Int_Tables_number   1
_chemical_formula_structural   V93Zn93O256
_chemical_formula_sum   'V93 Zn93 O256'
_cell_volume   4959.53007696
_cell_formula_units_Z   1
loop_
 _symmetry_equiv_pos_site_id
 _symmetry_equiv_pos_as_xyz
  1  'x, y, z'
loop_
 _atom_site_type_symbol
 _atom_site_label
 _atom_site_symmetry_multiplicity
 _atom_site_fract_x
 _atom_site_fract_y
 _atom_site_fract_z
 _atom_site_occupancy
  V  V0  1  0.23833170  0.49269644  0.24593165  1
  V  V1  1  0.00523727  0.37168431  0.87421260  1
  V  V2  1  0.62219192  0.00002611  0.12247204  1
  V  V3  1  0.74946740  -0.00067505  0.24964580  1
  V  V4  1  0.87590253  0.87480492  0.50043034  1
  V  V5  1  0.25131797  0.25097109  0.50123206  1
  V  V6  1  0.87542556  -0.00000543  0.37532179  1
  V  V7  1  0.24978887  0.00115290  0.25101667  1
  V  V8  1  0.00656475  0.62159171  0.12397350  1
  V  V9  1  0.24641006  0.13269760  0.87567644  1
  V  V10  1  0.24752180  0.50409464  0.74647757  1
  V  V11  1  0.87493935  0.25039232  0.62568964  1
  V  V12  1  0.00348323  0.62187405  0.62495494  1
  V  V13  1  0.75041530  0.12513454  0.37458638  1
  V  V14  1  0.12556339  0.87568167  0.75084121  1
  V  V15  1  0.49977354  0.49999610  0.49946615  1
  V  V16  1  0.87618338  0.37398890  0.50099525  1
  V  V17  1  0.87415006  0.12404607  0.75104821  1
  V  V18  1  0.50073834  0.37426685  0.37538769  1
  V  V19  1  0.49878765  0.62682909  0.62756234  1
  V  V20  1  -0.00052935  0.87499412  0.87578542  1
  V  V21  1  0.75080493  0.37443692  0.62482622  1
  V  V22  1  0.25145456  0.75068434  0.50154308  1
  V  V23  1  -0.00133858  0.12390010  0.12380850  1
  V  V24  1  0.50350578  0.88385231  0.87171045  1
  V  V25  1  0.00649380  0.49878928  0.50451418  1
  V  V26  1  0.87280685  0.24843945  0.12482002  1
  V  V27  1  0.12485380  0.12512379  0.50178410  1
  V  V28  1  0.24928762  0.75023684  -0.00165594  1
  V  V29  1  0.74846716  0.24933851  -0.00028752  1
  V  V30  1  0.87513196  0.49956655  0.37430714  1
  V  V31  1  0.62609868  0.75043757  0.37425831  1
  V  V32  1  0.12614888  0.75027592  0.87648028  1
  V  V33  1  0.87608498  0.62440379  0.74989779  1
  V  V34  1  0.74968055  0.37547402  0.12483474  1
  V  V35  1  0.37458883  0.50105462  0.87550160  1
  V  V36  1  0.12531982  0.25212726  0.37175385  1
  V  V37  1  -0.00034593  0.74868449  0.24916366  1
  V  V38  1  0.74939613  0.74977491  -0.00037075  1
  V  V39  1  0.62551306  0.49887062  0.12440577  1
  V  V40  1  0.12569632  0.62284394  0.50328061  1
  V  V41  1  0.62276828  0.25071663  0.87390011  1
  V  V42  1  0.75073613  0.74968835  0.49976500  1
  V  V43  1  0.00569156  0.24935577  0.75267045  1
  V  V44  1  0.00732641  0.49899124  0.00333968  1
  V  V45  1  0.12504056  0.74985986  0.37588083  1
  V  V46  1  0.00036438  0.74922674  0.75079329  1
  V  V47  1  0.24731896  0.38041844  0.62241386  1
  V  V48  1  0.62405028  0.37368200  0.75095805  1
  V  V49  1  0.62050284  0.12130689  -0.00033517  1
  V  V50  1  0.00027885  0.87464115  0.37500756  1
  V  V51  1  0.62426356  0.87424736  0.24936253  1
  V  V52  1  0.74751927  -0.00434413  0.75051637  1
  V  V53  1  0.12470183  0.00122240  0.12514650  1
  V  V54  1  0.00103846  0.00040028  0.50110474  1
  V  V55  1  0.12406656  0.37874598  0.74552008  1
  V  V56  1  0.75188048  0.62379898  0.37382295  1
  V  V57  1  0.87502699  0.37374263  -0.00080398  1
  V  V58  1  0.00309462  0.25225842  0.24780926  1
  V  V59  1  0.37561420  0.75027806  0.12556773  1
  V  V60  1  0.37607268  0.12756438  0.74977290  1
  V  V61  1  0.12437868  0.13175266  -0.00510238  1
  V  V62  1  0.12482437  0.00028513  0.62545570  1
  V  V63  1  0.74963834  0.62527784  0.87429932  1
  V  V64  1  0.00315724  0.37480805  0.37000956  1
  V  V65  1  0.49995396  0.74986748  0.25051136  1
  V  V66  1  0.74905933  0.87424143  0.12439061  1
  V  V67  1  0.62486463  -0.00351189  0.62826822  1
  V  V68  1  0.62184758  0.75246185  0.86733164  1
  V  V69  1  0.74886224  0.87444047  0.62708782  1
  V  V70  1  0.25032976  0.00141093  0.75247203  1
  V  V71  1  0.75067952  0.49919897  0.74961137  1
  V  V72  1  0.87537801  0.74931889  0.62529392  1
  V  V73  1  0.62673779  0.12375825  0.49939829  1
  V  V74  1  0.12519172  0.87534808  0.25014103  1
  V  V75  1  0.37530289  0.62265732  0.25105852  1
  V  V76  1  0.62478386  0.49940092  0.62559099  1
  V  V77  1  0.49978623  -0.00005258  0.50026320  1
  V  V78  1  0.25176746  0.87469798  0.62546162  1
  V  V79  1  -0.00082071  -0.00093067  -0.00075251  1
  V  V80  1  0.87561919  0.12449917  0.24941168  1
  V  V81  1  0.49816415  0.12126721  0.12245039  1
  V  V82  1  0.62127196  0.62431049  -0.00013076  1
  V  V83  1  0.87513300  0.87515767  -0.00028605  1
  V  V84  1  0.37042977  0.25720886  0.12192481  1
  V  V85  1  0.37411137  0.12464906  0.24828964  1
  V  V86  1  0.25033910  0.87576583  0.12475571  1
  V  V87  1  0.25011637  0.62498918  0.37498607  1
  V  V88  1  0.62571019  0.24986987  0.37369994  1
  V  V89  1  0.87559895  0.49950445  0.87488676  1
  V  V90  1  0.37465588  -0.00023859  0.37615060  1
  V  V91  1  0.87549551  0.74884040  0.12473118  1
  V  V92  1  0.38124831  0.88240083  0.00034237  1
  Zn  Zn93  1  0.49962759  0.62354591  0.12511077  1
  Zn  Zn94  1  0.24378310  0.25692379  -0.00285195  1
  Zn  Zn95  1  0.49576613  0.49630647  0.00043058  1
  Zn  Zn96  1  0.24985240  0.62614853  0.87391063  1
  Zn  Zn97  1  0.37892242  0.25142813  0.62472451  1
  Zn  Zn98  1  0.00052776  0.12521359  0.62603777  1
  Zn  Zn99  1  0.50087357  0.12706696  0.62700979  1
  Zn  Zn100  1  0.24962622  0.12680376  0.37436982  1
  Zn  Zn101  1  0.37550985  0.37449250  0.50158394  1
  Zn  Zn102  1  0.12858972  0.61957140  0.00072779  1
  Zn  Zn103  1  0.75193844  0.49828975  0.24962184  1
  Zn  Zn104  1  0.50057107  0.87413492  0.37557013  1
  Zn  Zn105  1  0.37561948  0.87396097  0.50208036  1
  Zn  Zn106  1  0.21439281  0.39095122  0.11512829  1
  Zn  Zn107  1  0.62519879  0.62608941  0.50007980  1
  Zn  Zn108  1  0.49934525  0.25193714  0.74614899  1
  Zn  Zn109  1  0.87592545  0.62231463  0.24734747  1
  Zn  Zn110  1  0.75198390  0.24959101  0.49979418  1
  Zn  Zn111  1  0.37075943  0.37842756  -0.00003208  1
  Zn  Zn112  1  0.37419126  0.62980441  0.75113874  1
  Zn  Zn113  1  0.37675515  0.75245436  0.62627207  1
  Zn  Zn114  1  0.37868693  0.00489489  0.88069647  1
  Zn  Zn115  1  0.74867623  0.12227246  0.87629915  1
  Zn  Zn116  1  0.49890433  0.75650219  0.74644491  1
  Zn  Zn117  1  0.37438485  0.49642936  0.37381625  1
  Zn  Zn118  1  0.49571720  0.37524474  0.87551766  1
  Zn  Zn119  1  0.49931986  0.25147011  0.24806660  1
  Zn  Zn120  1  0.87280938  -0.00082410  0.87519275  1
  Zn  Zn121  1  0.62662527  0.37524807  0.24889519  1
  Zn  Zn122  1  0.18598498  0.19209341  0.18451705  1
  Zn  Zn123  1  0.18844610  0.18894854  0.68679617  1
  Zn  Zn124  1  0.18866006  0.68637524  0.18791485  1
  Zn  Zn125  1  0.18600611  0.68884015  0.68550464  1
  Zn  Zn126  1  0.68627573  0.18742557  0.18794321  1
  Zn  Zn127  1  0.68857421  0.18540791  0.68687134  1
  Zn  Zn128  1  0.68775256  0.68621889  0.18818096  1
  Zn  Zn129  1  0.68645181  0.68537718  0.68601406  1
  Zn  Zn130  1  0.31444964  0.31242188  0.31093488  1
  Zn  Zn131  1  0.31196107  0.31405707  0.81093040  1
  Zn  Zn132  1  0.31301911  0.81292108  0.31405517  1
  Zn  Zn133  1  0.31749931  0.81349475  0.81190610  1
  Zn  Zn134  1  0.81326701  0.31353434  0.31100125  1
  Zn  Zn135  1  0.81231139  0.31088104  0.81332449  1
  Zn  Zn136  1  0.81321641  0.81139208  0.31123960  1
  Zn  Zn137  1  0.81236284  0.81224314  0.81336091  1
  Zn  Zn138  1  0.18808273  0.43816353  0.43193842  1
  Zn  Zn139  1  0.19048836  0.43401263  0.93214411  1
  Zn  Zn140  1  0.18840034  0.93707524  0.43877579  1
  Zn  Zn141  1  0.18915519  0.94103459  0.93699588  1
  Zn  Zn142  1  0.68727582  0.43728038  0.43958751  1
  Zn  Zn143  1  0.68693231  0.43685043  0.93771584  1
  Zn  Zn144  1  0.68765246  0.93648797  0.43805823  1
  Zn  Zn145  1  0.68654925  0.93756487  0.93706359  1
  Zn  Zn146  1  0.30982421  0.06526237  0.06228215  1
  Zn  Zn147  1  0.31146734  0.06386937  0.56455726  1
  Zn  Zn148  1  0.31147770  0.56269553  0.06484173  1
  Zn  Zn149  1  0.31564445  0.56310639  0.56219736  1
  Zn  Zn150  1  0.80955424  0.06163323  0.06140279  1
  Zn  Zn151  1  0.81250417  0.06326335  0.56359161  1
  Zn  Zn152  1  0.81489952  0.56213029  0.06107138  1
  Zn  Zn153  1  0.81542934  0.56115447  0.56079451  1
  Zn  Zn154  1  0.44095852  0.43953901  0.19034921  1
  Zn  Zn155  1  0.43480062  0.43674069  0.68928420  1
  Zn  Zn156  1  0.43799955  0.93744460  0.18786871  1
  Zn  Zn157  1  0.43577230  0.94034981  0.68973665  1
  Zn  Zn158  1  0.93808554  0.43827283  0.18707982  1
  Zn  Zn159  1  0.93688033  0.43732232  0.68675351  1
  Zn  Zn160  1  0.93722337  0.93665239  0.18688106  1
  Zn  Zn161  1  0.93716271  0.93722048  0.68744471  1
  Zn  Zn162  1  0.06364214  0.06542869  0.31375222  1
  Zn  Zn163  1  0.06236639  0.06147529  0.81390449  1
  Zn  Zn164  1  0.06153485  0.56346692  0.31427040  1
  Zn  Zn165  1  0.06511064  0.56263429  0.81566807  1
  Zn  Zn166  1  0.56067669  0.06313419  0.31029506  1
  Zn  Zn167  1  0.56280850  0.06395311  0.81245711  1
  Zn  Zn168  1  0.56480836  0.56294896  0.31164237  1
  Zn  Zn169  1  0.56083436  0.56131703  0.81199723  1
  Zn  Zn170  1  0.43806474  0.18564102  0.43787071  1
  Zn  Zn171  1  0.43670272  0.18839685  0.93735482  1
  Zn  Zn172  1  0.43724172  0.68773086  0.43840883  1
  Zn  Zn173  1  0.43647059  0.68981239  0.93409806  1
  Zn  Zn174  1  0.93873904  0.18736641  0.43817284  1
  Zn  Zn175  1  0.93665501  0.18667458  0.93595237  1
  Zn  Zn176  1  0.93775146  0.68598768  0.43787268  1
  Zn  Zn177  1  0.93853286  0.68654743  0.93874815  1
  Zn  Zn178  1  0.05940040  0.31338879  0.06308307  1
  Zn  Zn179  1  0.06317194  0.31224305  0.56352644  1
  Zn  Zn180  1  0.06277446  0.81190326  0.06351633  1
  Zn  Zn181  1  0.06436912  0.81120433  0.56360290  1
  Zn  Zn182  1  0.55656741  0.31306974  0.05874614  1
  Zn  Zn183  1  0.56361892  0.31086815  0.56254319  1
  Zn  Zn184  1  0.56091488  0.81111529  0.06075488  1
  Zn  Zn185  1  0.56406582  0.81342357  0.56087045  1
  O  O186  1  0.11868130  0.11984299  0.11696870  1
  O  O187  1  0.12359358  0.11853411  0.62002309  1
  O  O188  1  0.11052563  0.63229379  0.12085516  1
  O  O189  1  0.11539834  0.63051360  0.61596377  1
  O  O190  1  0.61733707  0.12191538  0.11879373  1
  O  O191  1  0.62683269  0.11298662  0.61773469  1
  O  O192  1  0.62699247  0.61770305  0.11520157  1
  O  O193  1  0.61758595  0.61748727  0.62211990  1
  O  O194  1  0.38916959  0.37436913  0.37804415  1
  O  O195  1  0.37224018  0.38777340  0.87465128  1
  O  O196  1  0.37689258  0.88842350  0.37685870  1
  O  O197  1  0.38698126  0.87757246  0.88330960  1
  O  O198  1  0.88372171  0.37799592  0.38172750  1
  O  O199  1  0.88341638  0.37986354  0.87865118  1
  O  O200  1  0.88020220  0.88025310  0.38017266  1
  O  O201  1  0.88154585  0.87469057  0.88238816  1
  O  O202  1  0.25834416  0.00189827  0.37055548  1
  O  O203  1  0.25240992  0.01099356  0.86907482  1
  O  O204  1  0.25417359  0.50691751  0.36575449  1
  O  O205  1  0.25573438  0.50245084  0.86416719  1
  O  O206  1  0.75594694  0.00452575  0.36923759  1
  O  O207  1  0.75056479  0.00043212  0.86394904  1
  O  O208  1  0.75506061  0.50837747  0.37669845  1
  O  O209  1  0.75553655  0.50523031  0.86980628  1
  O  O210  1  0.25166309  0.49971408  0.14010699  1
  O  O211  1  0.25532326  0.49059327  0.63303213  1
  O  O212  1  0.24417620  0.99511667  0.13115958  1
  O  O213  1  0.24334803  0.99507582  0.63160030  1
  O  O214  1  0.74243624  0.49456237  0.12276830  1
  O  O215  1  0.74634646  0.49539812  0.63002291  1
  O  O216  1  0.74378772  0.99369524  0.13102978  1
  O  O217  1  0.74409785  0.99476607  0.63080806  1
  O  O218  1  -0.00805170  0.36871850  0.26387870  1
  O  O219  1  0.00508445  0.37044766  0.75477822  1
  O  O220  1  0.00550472  0.86964096  0.25512301  1
  O  O221  1  0.00472454  0.86879403  0.75506705  1
  O  O222  1  0.50539769  0.37350899  0.26285885  1
  O  O223  1  0.50890938  0.37340645  0.75327200  1
  O  O224  1  0.50680667  0.86843995  0.25128670  1
  O  O225  1  0.49593215  0.87574983  0.76744284  1
  O  O226  1  0.49315375  0.12721610  0.24028205  1
  O  O227  1  0.48832481  0.12546413  0.75046855  1
  O  O228  1  0.49095501  0.63066229  0.25036087  1
  O  O229  1  0.50081277  0.62438268  0.73637727  1
  O  O230  1  0.99435300  0.12988019  0.24387792  1
  O  O231  1  0.99294963  0.13294748  0.75112862  1
  O  O232  1  0.99927900  0.63023456  0.24158973  1
  O  O233  1  0.99570848  0.62887869  0.74612462  1
  O  O234  1  0.37348022  0.24929399  0.01411655  1
  O  O235  1  0.36171478  0.25021755  0.49905972  1
  O  O236  1  0.36651030  0.75813655  0.00471425  1
  O  O237  1  0.36696364  0.75329478  0.50219309  1
  O  O238  1  0.86950137  0.25377798  0.00471781  1
  O  O239  1  0.87606038  0.25572837  0.50722507  1
  O  O240  1  0.86911201  0.75500176  0.00456591  1
  O  O241  1  0.87133015  0.75544036  0.50571143  1
  O  O242  1  0.13157904  0.24600693  0.49283125  1
  O  O243  1  0.12235853  0.23383787  1.00171134  1
  O  O244  1  0.13032136  0.74425406  0.49402730  1
  O  O245  1  0.13572447  0.75432382  0.99482097  1
  O  O246  1  0.62778441  0.24324088  0.48884252  1
  O  O247  1  0.62919870  0.24220518  0.99316243  1
  O  O248  1  0.63384996  0.74959307  0.49254231  1
  O  O249  1  0.63028018  0.74126878  0.99280904  1
  O  O250  1  0.49112058  0.23861994  0.12670579  1
  O  O251  1  0.49752793  0.24463511  0.62666943  1
  O  O252  1  0.49368218  0.74739308  0.13218813  1
  O  O253  1  0.50336217  0.74071662  0.62515695  1
  O  O254  1  0.98936042  0.24086943  0.12882881  1
  O  O255  1  0.99396639  0.25004781  0.63644860  1
  O  O256  1  0.99475136  0.74308017  0.12882025  1
  O  O257  1  0.99430621  0.74446873  0.63125140  1
  O  O258  1  0.00609086  0.25644134  0.37039849  1
  O  O259  1  -0.00823002  0.26119942  0.86409458  1
  O  O260  1  0.00474937  0.75516751  0.37033076  1
  O  O261  1  0.00493819  0.75520658  0.87018946  1
  O  O262  1  0.50889726  0.25688066  0.37662596  1
  O  O263  1  0.51358051  0.25020489  0.87324502  1
  O  O264  1  0.50738595  0.75152163  0.36938197  1
  O  O265  1  0.50819372  0.75784215  0.87262541  1
  O  O266  1  0.24389177  0.13559600  0.49960001  1
  O  O267  1  0.24057307  0.12611573  0.99258195  1
  O  O268  1  0.24541748  0.62865736  0.49530410  1
  O  O269  1  0.24797507  0.63971240  1.00234405  1
  O  O270  1  0.74550442  0.12530779  0.49180384  1
  O  O271  1  0.73935774  0.13153431  1.00032746  1
  O  O272  1  0.75089649  0.63055751  0.49053415  1
  O  O273  1  0.74254631  0.62980018  0.99340629  1
  O  O274  1  0.25120542  0.37255110  0.00585392  1
  O  O275  1  0.24823140  0.36967720  0.50633862  1
  O  O276  1  0.25728852  0.86787910  0.00468545  1
  O  O277  1  0.24967181  0.86887144  0.50738196  1
  O  O278  1  0.75623384  0.36921565  0.00448868  1
  O  O279  1  0.75817555  0.37428265  0.50702506  1
  O  O280  1  0.75436073  0.86955711  0.00547042  1
  O  O281  1  0.75722930  0.86989510  0.50583794  1
  O  O282  1  0.13967036  0.50442087  0.25605080  1
  O  O283  1  0.13363656  0.48911046  0.75469032  1
  O  O284  1  0.12894646  0.99544529  0.24547754  1
  O  O285  1  0.12942030  0.99470825  0.74517604  1
  O  O286  1  0.62883756  0.50051486  0.23617993  1
  O  O287  1  0.63230383  0.49440699  0.74575184  1
  O  O288  1  0.63067970  0.99494709  0.24376693  1
  O  O289  1  0.63618895  1.00821087  0.73971482  1
  O  O290  1  0.37014138  0.00401351  0.25747064  1
  O  O291  1  0.36805429  0.01143224  0.75393097  1
  O  O292  1  0.37155772  0.51179491  0.25161914  1
  O  O293  1  0.36341135  0.50199794  0.75710285  1
  O  O294  1  0.86997197  0.00426326  0.25517290  1
  O  O295  1  0.86762225  0.00846017  0.74902767  1
  O  O296  1  0.87296543  0.50233172  0.25874718  1
  O  O297  1  0.87068157  0.50505219  0.75513632  1
  O  O298  1  0.11351917  0.36362082  0.38087162  1
  O  O299  1  0.11205406  0.37645172  0.86372565  1
  O  O300  1  0.11961061  0.87018670  0.36969682  1
  O  O301  1  0.11944771  0.87102873  0.87006590  1
  O  O302  1  0.61891647  0.36601976  0.37601553  1
  O  O303  1  0.62645223  0.36548463  0.86969305  1
  O  O304  1  0.62597384  0.86877459  0.36687850  1
  O  O305  1  0.61130511  0.86565335  0.88623031  1
  O  O306  1  0.38187605  0.13055469  0.12768854  1
  O  O307  1  0.37399754  0.12702528  0.63777121  1
  O  O308  1  0.37604304  0.63164220  0.13546728  1
  O  O309  1  0.38786520  0.62629094  0.62595429  1
  O  O310  1  0.87835519  0.12814967  0.12992835  1
  O  O311  1  0.87680461  0.12994222  0.63593410  1
  O  O312  1  0.88502999  0.63137333  0.12422432  1
  O  O313  1  0.88147985  0.63009762  0.63053049  1
  O  O314  1  0.26603447  0.24706883  0.12391165  1
  O  O315  1  0.24833805  0.26025030  0.61473924  1
  O  O316  1  0.25472954  0.75679178  0.11848347  1
  O  O317  1  0.24938516  0.75753242  0.61826070  1
  O  O318  1  0.75408420  0.25452151  0.11977438  1
  O  O319  1  0.75650761  0.25651012  0.62355635  1
  O  O320  1  0.75447222  0.75475905  0.11950932  1
  O  O321  1  0.75540075  0.75372209  0.62065926  1
  O  O322  1  0.24172095  0.25228547  0.38324466  1
  O  O323  1  0.25333286  0.23676815  0.87679712  1
  O  O324  1  0.24400308  0.74527414  0.38012314  1
  O  O325  1  0.24601850  0.75230446  0.88419944  1
  O  O326  1  0.74228868  0.24430354  0.37539967  1
  O  O327  1  0.74005964  0.24773040  0.88080742  1
  O  O328  1  0.74759613  0.74272594  0.37972532  1
  O  O329  1  0.74226337  0.74591393  0.87980254  1
  O  O330  1  0.00498008  0.11941605  0.00310907  1
  O  O331  1  0.00572800  0.11808146  0.50272353  1
  O  O332  1  0.00088396  0.61569650  0.00617907  1
  O  O333  1  0.00439139  0.61649470  0.50381250  1
  O  O334  1  0.51081623  0.12975623  0.00887505  1
  O  O335  1  0.50644245  0.11333745  0.50084263  1
  O  O336  1  0.51261307  0.62568793  0.00062727  1
  O  O337  1  0.50246745  0.61593943  0.50693195  1
  O  O338  1  0.50080242  0.38314508  0.49294610  1
  O  O339  1  0.49135261  0.37876080  0.99349869  1
  O  O340  1  0.49912753  0.88902007  0.49778783  1
  O  O341  1  0.48908939  0.86784737  0.99051566  1
  O  O342  1  0.99686705  0.38107173  0.49290619  1
  O  O343  1  0.99507678  0.37899771  0.99177765  1
  O  O344  1  0.99561934  0.87952078  0.49449004  1
  O  O345  1  0.99492276  0.87957486  0.99626212  1
  O  O346  1  0.50402183  0.49174694  0.38308269  1
  O  O347  1  0.48715715  0.50041480  0.87532760  1
  O  O348  1  0.49268286  0.99995365  0.38264881  1
  O  O349  1  0.50316001  0.98689230  0.87661955  1
  O  O350  1  0.99598917  0.49221422  0.38235472  1
  O  O351  1  0.99439408  0.49141484  0.88130663  1
  O  O352  1  0.99515242  0.99436233  0.38000990  1
  O  O353  1  0.99736311  0.99224563  0.88119991  1
  O  O354  1  0.00468332  0.00485557  0.11989954  1
  O  O355  1  0.00679939  0.00015093  0.61888830  1
  O  O356  1  -0.00685096  0.50866428  0.11414150  1
  O  O357  1  -0.00609836  0.50465255  0.61213197  1
  O  O358  1  0.50543698  0.01265934  0.12993746  1
  O  O359  1  0.50871978  0.00135431  0.61821906  1
  O  O360  1  0.51191633  0.50307275  0.12191426  1
  O  O361  1  0.50414327  0.50505347  0.61764480  1
  O  O362  1  0.25609075  0.39287933  0.25427507  1
  O  O363  1  0.24113858  0.38095029  0.74265720  1
  O  O364  1  0.24451499  0.88023234  0.24471185  1
  O  O365  1  0.24426063  0.88126608  0.74677630  1
  O  O366  1  0.74744259  0.37713157  0.24091401  1
  O  O367  1  0.74608292  0.38068611  0.74482069  1
  O  O368  1  0.74505093  0.87953496  0.24371520  1
  O  O369  1  0.75853442  0.88724579  0.74304614  1
  O  O370  1  0.25575506  0.11799958  0.25071516  1
  O  O371  1  0.25450515  0.12247576  0.75738753  1
  O  O372  1  0.25745699  0.61874323  0.25460933  1
  O  O373  1  0.24761225  0.61360788  0.74773815  1
  O  O374  1  0.75580689  0.11881601  0.25421275  1
  O  O375  1  0.75935957  0.11516350  0.75012142  1
  O  O376  1  0.75326897  0.62431090  0.26265393  1
  O  O377  1  0.75641004  0.61910456  0.75462137  1
  O  O378  1  0.37397512  0.11493524  0.36860571  1
  O  O379  1  0.36740371  0.12320778  0.86964000  1
  O  O380  1  0.36943858  0.62532595  0.36483756  1
  O  O381  1  0.37041391  0.61652454  0.87207966  1
  O  O382  1  0.87130555  0.11943767  0.36922798  1
  O  O383  1  0.87175379  0.12307440  0.86305201  1
  O  O384  1  0.86699663  0.61946394  0.37489794  1
  O  O385  1  0.86981989  0.62039857  0.86967590  1
  O  O386  1  0.12174651  0.34387648  0.14560787  1
  O  O387  1  0.13395958  0.37339476  0.63420954  1
  O  O388  1  0.12987113  0.88108221  0.13097180  1
  O  O389  1  0.13027892  0.88021062  0.63183893  1
  O  O390  1  0.63008437  0.38336317  0.12209099  1
  O  O391  1  0.63154004  0.37998128  0.63051537  1
  O  O392  1  0.62966268  0.87918736  0.12836534  1
  O  O393  1  0.63224807  0.88884462  0.61926548  1
  O  O394  1  0.11889924  0.23768240  0.26655650  1
  O  O395  1  0.11315094  0.25981923  0.74543730  1
  O  O396  1  0.12036019  0.75580016  0.25587745  1
  O  O397  1  0.11939629  0.75624393  0.75615023  1
  O  O398  1  0.62251518  0.24985263  0.26263305  1
  O  O399  1  0.62734060  0.25344355  0.75927636  1
  O  O400  1  0.62047717  0.75482237  0.25399826  1
  O  O401  1  0.62564907  0.74601098  0.76425875  1
  O  O402  1  0.37603434  0.24274148  0.23992352  1
  O  O403  1  0.37522405  0.23930287  0.74963521  1
  O  O404  1  0.37828498  0.74272219  0.24605188  1
  O  O405  1  0.37968638  0.74643508  0.74514397  1
  O  O406  1  0.88114683  0.24322898  0.24464959  1
  O  O407  1  0.88205801  0.24278145  0.74579210  1
  O  O408  1  0.88239567  0.74897352  0.24288626  1
  O  O409  1  0.88026767  0.74373237  0.74521402  1
  O  O410  1  0.38817458  0.49778149  0.49589165  1
  O  O411  1  0.37278593  0.50183731  0.98961009  1
  O  O412  1  0.38262703  1.00273642  0.49270329  1
  O  O413  1  0.36799366  0.98647056  1.00067528  1
  O  O414  1  0.88585085  0.49420589  0.49372405  1
  O  O415  1  0.88370183  0.49301808  0.99348829  1
  O  O416  1  0.88031919  0.99457452  0.49511259  1
  O  O417  1  0.88034604  0.99372598  0.99917770  1
  O  O418  1  0.11892797  0.00704524  0.00652870  1
  O  O419  1  0.12036525  0.00485621  0.50506324  1
  O  O420  1  0.11079381  0.49793696  -0.00667747  1
  O  O421  1  0.11283081  0.50545646  0.49164935  1
  O  O422  1  0.63227155  0.01301515  0.00678293  1
  O  O423  1  0.61878128  0.00429258  0.50570990  1
  O  O424  1  0.62605411  0.50957243  0.00633232  1
  O  O425  1  0.61492496  0.50060990  0.50673256  1
  O  O426  1  0.38152354  0.35942232  0.12885328  1
  O  O427  1  0.36147930  0.37152516  0.62349554  1
  O  O428  1  0.37056300  0.87049598  0.11928057  1
  O  O429  1  0.36667822  0.87604403  0.62314026  1
  O  O430  1  0.87110554  0.36819579  0.11833879  1
  O  O431  1  0.87018841  0.36994587  0.62090673  1
  O  O432  1  0.86909691  0.86928720  0.11940086  1
  O  O433  1  0.87036906  0.86848678  0.61939179  1
  O  O434  1  0.12624973  0.13408874  0.38409016  1
  O  O435  1  0.13342713  0.11839934  0.88405018  1
  O  O436  1  0.12976033  0.63198335  0.38233752  1
  O  O437  1  0.12840834  0.63450549  0.87976062  1
  O  O438  1  0.63010292  0.13085269  0.37836024  1
  O  O439  1  0.62583776  0.13226936  0.88349588  1
  O  O440  1  0.63589118  0.63069632  0.37631236  1
  O  O441  1  0.62961200  0.63102541  0.88184090  1
