# generated using pymatgen
data_V93Zn93O256
_symmetry_space_group_name_H-M   'P 1'
_cell_length_a   17.05548225
_cell_length_b   17.05358394
_cell_length_c   17.04881509
_cell_angle_alpha   89.90370629
_cell_angle_beta   90.06138793
_cell_angle_gamma   89.97447365
_symmetry_Int_Tables_number   1
_chemical_formula_structural   V93Zn93O256
_chemical_formula_sum   'V93 Zn93 O256'
_cell_volume   4958.75854036
_cell_formula_units_Z   1
loop_
 _symmetry_equiv_pos_site_id
 _symmetry_equiv_pos_as_xyz
  1  'x, y, z'
loop_
 _atom_site_type_symbol
 _atom_site_label
 _atom_site_symmetry_multiplicity
 _atom_site_fract_x
 _atom_site_fract_y
 _atom_site_fract_z
 _atom_site_occupancy
  V  V0  1  0.62544088  0.74510566  0.87847580  1
  V  V1  1  0.24977090  0.74939950  0.00043152  1
  V  V2  1  -0.00264613  0.62460868  0.62972957  1
  V  V3  1  0.37513687  -0.00104860  0.87657438  1
  V  V4  1  0.12520571  0.00040101  0.62556520  1
  V  V5  1  0.75009292  0.25284709  0.00522983  1
  V  V6  1  -0.00212123  0.74942462  0.75125311  1
  V  V7  1  0.12411053  0.87090666  0.25763031  1
  V  V8  1  0.24167734  0.74968366  0.49721587  1
  V  V9  1  0.24970939  0.62444258  0.87511545  1
  V  V10  1  0.24529775  0.62796374  0.37529679  1
  V  V11  1  0.49949377  0.75008399  0.74982434  1
  V  V12  1  0.25033840  0.50045748  0.75057412  1
  V  V13  1  0.74754472  0.49727550  0.24325598  1
  V  V14  1  0.12538944  0.50084024  0.62522907  1
  V  V15  1  -0.00017354  0.87476606  0.87492685  1
  V  V16  1  0.75042167  0.37636369  0.62900580  1
  V  V17  1  0.12741665  0.62532284  0.00142169  1
  V  V18  1  0.87415836  0.00062160  0.87412579  1
  V  V19  1  0.49943806  0.62507760  0.62444953  1
  V  V20  1  0.25018623  0.25044140  0.49991719  1
  V  V21  1  0.49955837  0.50047808  0.49886877  1
  V  V22  1  0.87552982  0.12490730  0.75041233  1
  V  V23  1  0.37456842  0.87411284  0.00036389  1
  V  V24  1  0.49932372  0.87507580  0.87595354  1
  V  V25  1  0.87570304  0.75093438  0.12530525  1
  V  V26  1  0.87351902  0.37585161  0.00567700  1
  V  V27  1  0.12535780  0.24955739  0.37543047  1
  V  V28  1  0.00297489  0.37260827  0.87426704  1
  V  V29  1  0.12750281  0.37548705  0.24976883  1
  V  V30  1  0.25004533  0.12396845  0.37571531  1
  V  V31  1  -0.00015095  0.12472747  0.62504978  1
  V  V32  1  0.49491582  0.24467760  0.24388113  1
  V  V33  1  0.25391489  0.37370737  0.12936230  1
  V  V34  1  0.25008244  -0.00057926  0.74968467  1
  V  V35  1  -0.00075149  0.24955225  0.25019281  1
  V  V36  1  0.62299657  0.74879991  0.37501223  1
  V  V37  1  0.74960300  -0.00014492  0.24988514  1
  V  V38  1  0.87747971  0.50594856  0.86504906  1
  V  V39  1  0.00320461  0.74959370  0.25943496  1
  V  V40  1  0.49882679  0.74867064  0.24956654  1
  V  V41  1  -0.00105348  -0.00037685  0.50086264  1
  V  V42  1  0.37474720  0.37548532  0.49989934  1
  V  V43  1  0.50602610  0.00029671  0.50331914  1
  V  V44  1  0.62482034  0.87479022  0.24890420  1
  V  V45  1  0.87440756  0.62407421  0.25106328  1
  V  V46  1  0.49939344  0.37486614  0.37440277  1
  V  V47  1  0.75124482  0.12573124  0.87524827  1
  V  V48  1  0.24959977  0.87551549  0.62595924  1
  V  V49  1  -0.00088237  0.50012623  0.49899517  1
  V  V50  1  0.37422743  0.74947274  0.12436825  1
  V  V51  1  -0.00026663  0.00004147  -0.00014008  1
  V  V52  1  0.37600419  0.37668441  0.00307801  1
  V  V53  1  0.87418712  0.87493984  0.00085761  1
  V  V54  1  0.74936920  0.87424785  0.12512268  1
  V  V55  1  0.25661116  0.24880311  0.00607092  1
  V  V56  1  0.37379433  0.74980886  0.62473641  1
  V  V57  1  0.25023939  0.37562282  0.62603185  1
  V  V58  1  0.37607410  0.24935224  0.62506115  1
  V  V59  1  0.49863719  0.87432321  0.37443084  1
  V  V60  1  0.87588491  0.24949419  0.62526619  1
  V  V61  1  0.62441769  0.88148505  0.74755461  1
  V  V62  1  0.12590349  0.12444736  0.00106215  1
  V  V63  1  0.74972322  0.25062242  0.49951826  1
  V  V64  1  0.37431539  0.87458592  0.49988857  1
  V  V65  1  0.00059908  0.37555506  0.37567090  1
  V  V66  1  0.62325881  0.62472941  0.49923391  1
  V  V67  1  0.87400829  0.12465526  0.24923178  1
  V  V68  1  0.37447806  0.00123473  0.37138325  1
  V  V69  1  0.87197881  0.74614766  0.62994943  1
  V  V70  1  0.50667906  0.12198558  0.62463125  1
  V  V71  1  0.62533260  0.24814068  0.37601476  1
  V  V72  1  0.74505157  0.88213703  0.62486580  1
  V  V73  1  0.49916949  0.37406304  0.87228731  1
  V  V74  1  0.62414310  0.12338148  0.00133222  1
  V  V75  1  0.00218647  0.49945223  0.00123076  1
  V  V76  1  0.12558940  -0.00300161  0.12787870  1
  V  V77  1  0.37018395  0.62106297  0.24886816  1
  V  V78  1  0.37626800  0.12559758  0.74955318  1
  V  V79  1  0.50688031  0.61652866  0.12046107  1
  V  V80  1  0.00270561  0.62523720  0.12742844  1
  V  V81  1  0.87525384  -0.00108065  0.37479716  1
  V  V82  1  0.36856707  0.50024570  0.37180696  1
  V  V83  1  0.62558450  0.49985949  0.62498231  1
  V  V84  1  0.87400165  0.87496362  0.50007924  1
  V  V85  1  0.25103915  0.12489564  0.87554007  1
  V  V86  1  0.74831911  0.74942154  0.50029519  1
  V  V87  1  0.74836197  0.62332329  0.37392574  1
  V  V88  1  0.37339641  0.62531022  0.75012809  1
  V  V89  1  0.13167800  0.49908553  0.13039483  1
  V  V90  1  0.12668550  0.25024190  0.87591680  1
  V  V91  1  0.62851418  0.37669875  0.24288900  1
  V  V92  1  -0.00064771  0.12583596  0.12623257  1
  Zn  Zn93  1  0.50026297  -0.00043578  0.00285132  1
  Zn  Zn94  1  0.12431608  0.75066867  0.87540269  1
  Zn  Zn95  1  0.62812507  0.12005307  0.50407025  1
  Zn  Zn96  1  0.36816763  0.13025252  0.24195880  1
  Zn  Zn97  1  0.51328558  0.49283022  0.00206336  1
  Zn  Zn98  1  0.12368497  0.12489803  0.50088880  1
  Zn  Zn99  1  0.75028928  0.74843942  -0.00077061  1
  Zn  Zn100  1  0.00270265  0.87103793  0.38008959  1
  Zn  Zn101  1  0.12790617  0.37347329  0.75045784  1
  Zn  Zn102  1  0.87338708  0.49797313  0.37443708  1
  Zn  Zn103  1  0.62645897  0.25067710  0.87175658  1
  Zn  Zn104  1  0.76042169  0.63318632  0.86807567  1
  Zn  Zn105  1  0.62319788  0.37592658  0.74940257  1
  Zn  Zn106  1  0.24845528  -0.00267047  0.25136758  1
  Zn  Zn107  1  0.74578109  0.00437074  0.74609708  1
  Zn  Zn108  1  0.75351655  0.51326832  0.74281514  1
  Zn  Zn109  1  0.12029098  0.63019058  0.49428585  1
  Zn  Zn110  1  0.50377881  0.24994223  0.74850520  1
  Zn  Zn111  1  0.87346068  0.25367387  0.12739212  1
  Zn  Zn112  1  0.48715548  0.12332204  0.11782957  1
  Zn  Zn113  1  0.37878916  0.50235656  0.87666996  1
  Zn  Zn114  1  0.63764714  0.61532615  0.00155727  1
  Zn  Zn115  1  0.12538592  0.87482439  0.75238117  1
  Zn  Zn116  1  0.74990236  0.12492051  0.37448504  1
  Zn  Zn117  1  0.87568848  0.37498709  0.49881486  1
  Zn  Zn118  1  0.68989395  0.43665719  0.07853371  1
  Zn  Zn119  1  0.62204359  0.00084271  0.12567168  1
  Zn  Zn120  1  0.25029112  0.87336247  0.12744855  1
  Zn  Zn121  1  0.00389918  0.24886074  0.74831687  1
  Zn  Zn122  1  0.18694642  0.18734246  0.18857136  1
  Zn  Zn123  1  0.18718632  0.18719629  0.68831763  1
  Zn  Zn124  1  0.18795548  0.68909000  0.18895531  1
  Zn  Zn125  1  0.18353443  0.68718585  0.68638625  1
  Zn  Zn126  1  0.68590087  0.18742997  0.18572976  1
  Zn  Zn127  1  0.68689712  0.19092622  0.69048728  1
  Zn  Zn128  1  0.68825401  0.68807253  0.18795190  1
  Zn  Zn129  1  0.68687408  0.68790324  0.69204163  1
  Zn  Zn130  1  0.31177461  0.31261573  0.31319066  1
  Zn  Zn131  1  0.31554242  0.31247726  0.81377609  1
  Zn  Zn132  1  0.31071380  0.81106950  0.31162356  1
  Zn  Zn133  1  0.31132635  0.81144469  0.81409918  1
  Zn  Zn134  1  0.81405258  0.31477277  0.31250931  1
  Zn  Zn135  1  0.81577066  0.31174094  0.81405801  1
  Zn  Zn136  1  0.81342081  0.81198640  0.31256852  1
  Zn  Zn137  1  0.81032855  0.81522145  0.81130611  1
  Zn  Zn138  1  0.18560715  0.43910343  0.43901014  1
  Zn  Zn139  1  0.18974397  0.43872302  0.93948961  1
  Zn  Zn140  1  0.18618256  0.93788042  0.44009036  1
  Zn  Zn141  1  0.18740540  0.93539369  0.93764506  1
  Zn  Zn142  1  0.68725262  0.43631745  0.43469404  1
  Zn  Zn143  1  0.68958353  0.43880880  0.91941376  1
  Zn  Zn144  1  0.68853211  0.93573805  0.43434677  1
  Zn  Zn145  1  0.68764455  0.93729902  0.93616783  1
  Zn  Zn146  1  0.31359033  0.06008338  0.06481790  1
  Zn  Zn147  1  0.31576731  0.06245349  0.56197179  1
  Zn  Zn148  1  0.31438305  0.56055283  0.06248655  1
  Zn  Zn149  1  0.31175692  0.56319483  0.56111499  1
  Zn  Zn150  1  0.81077200  0.06235328  0.06374539  1
  Zn  Zn151  1  0.81377707  0.06434730  0.56109952  1
  Zn  Zn152  1  0.81863182  0.56819663  0.05673792  1
  Zn  Zn153  1  0.81333601  0.56330791  0.56109308  1
  Zn  Zn154  1  0.43858691  0.43501169  0.18929681  1
  Zn  Zn155  1  0.43617850  0.43915587  0.68809008  1
  Zn  Zn156  1  0.43920984  0.93907470  0.18428085  1
  Zn  Zn157  1  0.43696250  0.93846340  0.68804602  1
  Zn  Zn158  1  0.93942271  0.43994095  0.18962349  1
  Zn  Zn159  1  0.93995180  0.43278704  0.68566695  1
  Zn  Zn160  1  0.93817488  0.93613079  0.18910287  1
  Zn  Zn161  1  0.93537988  0.93678945  0.68800317  1
  Zn  Zn162  1  0.06114783  0.06133065  0.31446857  1
  Zn  Zn163  1  0.06292921  0.06264069  0.81177492  1
  Zn  Zn164  1  0.06324607  0.56080656  0.31153911  1
  Zn  Zn165  1  0.06456311  0.56271082  0.81215646  1
  Zn  Zn166  1  0.56393390  0.06196084  0.31426138  1
  Zn  Zn167  1  0.56150557  0.06403490  0.81606554  1
  Zn  Zn168  1  0.56140727  0.56025289  0.30934812  1
  Zn  Zn169  1  0.56329764  0.55935760  0.81145069  1
  Zn  Zn170  1  0.43792432  0.18614482  0.43692341  1
  Zn  Zn171  1  0.43756912  0.18978166  0.93621011  1
  Zn  Zn172  1  0.43345098  0.68789318  0.43766643  1
  Zn  Zn173  1  0.43815204  0.68742222  0.93784470  1
  Zn  Zn174  1  0.93634129  0.18601295  0.43699272  1
  Zn  Zn175  1  0.93688017  0.18841156  0.93855085  1
  Zn  Zn176  1  0.93294040  0.68522783  0.44002111  1
  Zn  Zn177  1  0.94075997  0.68810899  0.94083947  1
  Zn  Zn178  1  0.06445247  0.31164996  0.06233839  1
  Zn  Zn179  1  0.06422670  0.31281720  0.56235091  1
  Zn  Zn180  1  0.06166498  0.81174711  0.06542834  1
  Zn  Zn181  1  0.06175363  0.81513156  0.56610636  1
  Zn  Zn182  1  0.55989010  0.30435209  0.05955341  1
  Zn  Zn183  1  0.56264699  0.31216549  0.56304213  1
  Zn  Zn184  1  0.56108996  0.80949383  0.06273783  1
  Zn  Zn185  1  0.56186965  0.81312637  0.56295533  1
  O  O186  1  0.12013522  0.11599434  0.12160692  1
  O  O187  1  0.11904742  0.11863526  0.62315196  1
  O  O188  1  0.12345380  0.61619382  0.12288705  1
  O  O189  1  0.11317119  0.61971136  0.62080915  1
  O  O190  1  0.62312799  0.12506560  0.11106190  1
  O  O191  1  0.61073629  0.12958147  0.62396861  1
  O  O192  1  0.60953741  0.63040885  0.12433160  1
  O  O193  1  0.61861181  0.62123431  0.61788412  1
  O  O194  1  0.37753908  0.38340732  0.37930373  1
  O  O195  1  0.38169962  0.37720542  0.88507248  1
  O  O196  1  0.37915897  0.88164847  0.37979044  1
  O  O197  1  0.38000222  0.87875500  0.87967411  1
  O  O198  1  0.88477857  0.37780662  0.37849207  1
  O  O199  1  0.88546485  0.38201272  0.88419874  1
  O  O200  1  0.87556527  0.88001814  0.38299982  1
  O  O201  1  0.88022897  0.88064613  0.88049239  1
  O  O202  1  0.25801775  0.00753257  0.37770375  1
  O  O203  1  0.25480350  0.00562371  0.87042783  1
  O  O204  1  0.26264174  0.50931870  0.38371488  1
  O  O205  1  0.25181656  0.50692355  0.86913002  1
  O  O206  1  0.75652357  0.00174836  0.36879726  1
  O  O207  1  0.75801325  0.00714914  0.87318557  1
  O  O208  1  0.75055966  0.50607297  0.36561829  1
  O  O209  1  0.77110509  0.49782937  0.86809067  1
  O  O210  1  0.23987788  0.48917881  0.11930677  1
  O  O211  1  0.24547434  0.49579932  0.62895629  1
  O  O212  1  0.23525146  0.99772671  0.12794917  1
  O  O213  1  0.24693851  0.99536817  0.62902617  1
  O  O214  1  0.75647567  0.50663914  0.13795862  1
  O  O215  1  0.74637057  0.49165174  0.62139970  1
  O  O216  1  0.74714711  0.99200614  0.13245757  1
  O  O217  1  0.75397549  0.98567744  0.62352453  1
  O  O218  1  0.00695313  0.36968759  0.25552879  1
  O  O219  1  0.00368695  0.37171691  0.76295788  1
  O  O220  1  0.00580584  0.86522710  0.25271141  1
  O  O221  1  0.00027690  0.86623991  0.75522550  1
  O  O222  1  0.50773164  0.36564560  0.25480187  1
  O  O223  1  0.49661127  0.37423856  0.75992249  1
  O  O224  1  0.50404154  0.86847632  0.25571220  1
  O  O225  1  0.50554530  0.86978514  0.75364962  1
  O  O226  1  0.50193902  0.13963004  0.25413503  1
  O  O227  1  0.49392634  0.12346105  0.74131873  1
  O  O228  1  0.49093518  0.62814324  0.24147764  1
  O  O229  1  0.49415031  0.63027771  0.74341987  1
  O  O230  1  0.99476555  0.13011538  0.24616645  1
  O  O231  1  0.99366253  0.12647889  0.74344624  1
  O  O232  1  0.99625939  0.63095945  0.24673543  1
  O  O233  1  1.00352509  0.63364462  0.73858108  1
  O  O234  1  0.36370003  0.26029628  -0.00352988  1
  O  O235  1  0.36990738  0.25647044  0.50324827  1
  O  O236  1  0.36944108  0.75431415  0.00483485  1
  O  O237  1  0.36671923  0.75549784  0.50601923  1
  O  O238  1  0.86838716  0.25978876  0.00031369  1
  O  O239  1  0.86454760  0.25025459  0.50506313  1
  O  O240  1  0.87753367  0.75765261  0.00784890  1
  O  O241  1  0.86803071  0.75485727  0.50927928  1
  O  O242  1  0.13272761  0.24850847  0.49300353  1
  O  O243  1  0.13491630  0.24394423  0.99549782  1
  O  O244  1  0.13777811  0.75060748  0.50493084  1
  O  O245  1  0.13044118  0.74236699  1.00193569  1
  O  O246  1  0.63282046  0.25160843  0.49100361  1
  O  O247  1  0.63440531  0.24274803  0.99628027  1
  O  O248  1  0.62823118  0.74440932  0.49435781  1
  O  O249  1  0.62554203  0.74841301  0.98858994  1
  O  O250  1  0.50305086  0.24703706  0.14181058  1
  O  O251  1  0.49268654  0.24070487  0.62305383  1
  O  O252  1  0.49259276  0.73883378  0.13025511  1
  O  O253  1  0.49356884  0.74470803  0.62909879  1
  O  O254  1  1.00149151  0.24318171  0.13189887  1
  O  O255  1  0.99415061  0.24417778  0.62459745  1
  O  O256  1  0.99490115  0.74384692  0.13545394  1
  O  O257  1  0.99182278  0.74433445  0.63070067  1
  O  O258  1  0.00610393  0.25493534  0.37084671  1
  O  O259  1  0.00713359  0.25842165  0.87712378  1
  O  O260  1  -0.00503825  0.74830483  0.36332587  1
  O  O261  1  -0.00170149  0.75438388  0.86556735  1
  O  O262  1  0.50878195  0.25522613  0.37035427  1
  O  O263  1  0.49987512  0.26267669  0.87263240  1
  O  O264  1  0.50264562  0.75440136  0.37056587  1
  O  O265  1  0.50546333  0.75538207  0.86908106  1
  O  O266  1  0.25105892  0.13073594  0.48991791  1
  O  O267  1  0.24586202  0.13186624  0.99590359  1
  O  O268  1  0.24904665  0.63377724  0.49315304  1
  O  O269  1  0.24680044  0.62919888  0.99550611  1
  O  O270  1  0.74643218  0.13739933  0.50010282  1
  O  O271  1  0.74504527  0.13210053  0.99467822  1
  O  O272  1  0.74292409  0.62999741  0.49485653  1
  O  O273  1  0.75270764  0.63068735  0.98866684  1
  O  O274  1  0.25626721  0.36745133  0.00797650  1
  O  O275  1  0.25555280  0.37053867  0.50527556  1
  O  O276  1  0.25617214  0.86740009  0.00225716  1
  O  O277  1  0.25482308  0.86788025  0.50467144  1
  O  O278  1  0.75697532  0.37054137  -0.00109638  1
  O  O279  1  0.75078303  0.36639861  0.50791919  1
  O  O280  1  0.75725103  0.87351421  0.00685269  1
  O  O281  1  0.75207234  0.86865676  0.50681701  1
  O  O282  1  0.12054239  0.49264208  0.23744707  1
  O  O283  1  0.13222862  0.49823497  0.74298572  1
  O  O284  1  0.12214831  0.99133206  0.24221732  1
  O  O285  1  0.13294953  0.99933461  0.74391268  1
  O  O286  1  0.63347300  0.48900050  0.25399917  1
  O  O287  1  0.62877290  0.49646309  0.73952727  1
  O  O288  1  0.63106978  0.99211089  0.25181202  1
  O  O289  1  0.62495754  0.98491771  0.75630076  1
  O  O290  1  0.37314298  -0.00206788  0.26426648  1
  O  O291  1  0.36899457  0.00535767  0.75623355  1
  O  O292  1  0.38046155  0.50854233  0.26123340  1
  O  O293  1  0.36766127  0.50908322  0.75027897  1
  O  O294  1  0.87007288  0.00415937  0.25507993  1
  O  O295  1  0.87277152  0.00663441  0.75633969  1
  O  O296  1  0.86736568  0.50571392  0.25232224  1
  O  O297  1  0.88242252  0.49547287  0.76325003  1
  O  O298  1  0.12195237  0.37004538  0.36952919  1
  O  O299  1  0.11738896  0.37043611  0.87803240  1
  O  O300  1  0.12198314  0.88135211  0.36225621  1
  O  O301  1  0.11570430  0.87182381  0.87360591  1
  O  O302  1  0.61939555  0.36628303  0.36684692  1
  O  O303  1  0.61309517  0.37226021  0.87129529  1
  O  O304  1  0.61816550  0.86740885  0.36939340  1
  O  O305  1  0.61933209  0.86679041  0.86755647  1
  O  O306  1  0.37416689  0.12399119  0.13080619  1
  O  O307  1  0.38293926  0.13001451  0.62940172  1
  O  O308  1  0.38119256  0.62755839  0.13297782  1
  O  O309  1  0.38003168  0.63040335  0.62934791  1
  O  O310  1  0.88308540  0.12540282  0.13123904  1
  O  O311  1  0.87977980  0.12991378  0.63070776  1
  O  O312  1  0.88396546  0.63020050  0.13142200  1
  O  O313  1  0.88419272  0.63653076  0.61858301  1
  O  O314  1  0.24177563  0.25934507  0.11454437  1
  O  O315  1  0.25587322  0.25467970  0.61919272  1
  O  O316  1  0.25720952  0.74923630  0.11829408  1
  O  O317  1  0.25490060  0.75423857  0.61788852  1
  O  O318  1  0.75373662  0.24624027  0.10985302  1
  O  O319  1  0.75400953  0.25769160  0.61711810  1
  O  O320  1  0.75815372  0.75598589  0.12542542  1
  O  O321  1  0.75616167  0.75681474  0.62005912  1
  O  O322  1  0.24609082  0.24265825  0.37997202  1
  O  O323  1  0.24671083  0.24490929  0.88528612  1
  O  O324  1  0.25858670  0.73979363  0.38681151  1
  O  O325  1  0.24726000  0.74248532  0.88172798  1
  O  O326  1  0.74222474  0.25212686  0.38317674  1
  O  O327  1  0.75253814  0.24498949  0.88692634  1
  O  O328  1  0.74300850  0.74426927  0.38022924  1
  O  O329  1  0.73877174  0.75292811  0.87540379  1
  O  O330  1  0.00632962  0.11969534  0.00513938  1
  O  O331  1  -0.00014906  0.11782614  0.50729590  1
  O  O332  1  0.00764230  0.61967467  0.00857602  1
  O  O333  1  0.00117465  0.61878764  0.50839128  1
  O  O334  1  0.51117584  0.12690426  -0.00213645  1
  O  O335  1  0.50009490  0.11679247  0.50705196  1
  O  O336  1  0.49778594  0.62139962  0.01427570  1
  O  O337  1  0.50322372  0.62080083  0.50426332  1
  O  O338  1  0.49420790  0.38045535  0.49423343  1
  O  O339  1  0.49101089  0.37222541  0.99575337  1
  O  O340  1  0.49441956  0.88114539  0.49542662  1
  O  O341  1  0.49218601  0.87389456  0.99313171  1
  O  O342  1  1.00048893  0.38478699  0.49520129  1
  O  O343  1  0.99599823  0.37862912  0.99156216  1
  O  O344  1  0.99230034  0.87993223  0.50057847  1
  O  O345  1  0.99438344  0.88062644  0.99591100  1
  O  O346  1  0.49052539  0.49560734  0.37937829  1
  O  O347  1  0.49872613  0.48888228  0.87987335  1
  O  O348  1  0.49155638  0.99533378  0.38175300  1
  O  O349  1  0.49186497  0.99271907  0.87724738  1
  O  O350  1  1.00119252  0.49551840  0.38429757  1
  O  O351  1  0.99587262  0.49153389  0.88005942  1
  O  O352  1  0.99242233  0.99788334  0.38295381  1
  O  O353  1  0.99480682  0.99547421  0.88090584  1
  O  O354  1  0.00793451  0.00470798  0.12031692  1
  O  O355  1  0.00393208  0.00433493  0.62044415  1
  O  O356  1  0.01038870  0.50510545  0.12082724  1
  O  O357  1  0.00289324  0.50667891  0.61930286  1
  O  O358  1  0.50535021  0.00504002  0.12118423  1
  O  O359  1  0.49101998  0.00874468  0.61326332  1
  O  O360  1  0.49726074  0.51346777  0.12604043  1
  O  O361  1  0.50426955  0.50560189  0.61787365  1
  O  O362  1  0.24367060  0.36550112  0.23811700  1
  O  O363  1  0.25162496  0.38171652  0.74365984  1
  O  O364  1  0.23909350  0.87507357  0.24791385  1
  O  O365  1  0.25018413  0.88109493  0.74386955  1
  O  O366  1  0.74121110  0.38427926  0.25427255  1
  O  O367  1  0.75311738  0.37704887  0.73578370  1
  O  O368  1  0.74464628  0.87915583  0.24547449  1
  O  O369  1  0.74133821  0.87690901  0.74075745  1
  O  O370  1  0.24892968  0.12302226  0.26418442  1
  O  O371  1  0.25649191  0.11930042  0.75575119  1
  O  O372  1  0.26316143  0.63238605  0.25895317  1
  O  O373  1  0.25386183  0.62146297  0.75419673  1
  O  O374  1  0.75553615  0.11884917  0.25010756  1
  O  O375  1  0.75626262  0.12393450  0.75554930  1
  O  O376  1  0.75325678  0.61748363  0.25463971  1
  O  O377  1  0.75289968  0.62526344  0.75492852  1
  O  O378  1  0.36714480  0.11705745  0.37302073  1
  O  O379  1  0.36955431  0.11986811  0.87052993  1
  O  O380  1  0.36916973  0.61824637  0.36808888  1
  O  O381  1  0.36896126  0.62468758  0.86802715  1
  O  O382  1  0.87251138  0.11817391  0.36721048  1
  O  O383  1  0.87145165  0.12024064  0.87051244  1
  O  O384  1  0.86589469  0.62350481  0.36856537  1
  O  O385  1  0.88476768  0.60757262  0.87937660  1
  O  O386  1  0.13265280  0.38177937  0.12822003  1
  O  O387  1  0.13243584  0.38193178  0.62673658  1
  O  O388  1  0.12310500  0.88400351  0.13436817  1
  O  O389  1  0.13248677  0.88250086  0.62823264  1
  O  O390  1  0.62147301  0.36813671  0.13756745  1
  O  O391  1  0.63434130  0.38150461  0.62272486  1
  O  O392  1  0.63065387  0.87245884  0.13261809  1
  O  O393  1  0.63391100  0.86608963  0.63515810  1
  O  O394  1  0.11868377  0.25496935  0.25656613  1
  O  O395  1  0.12500436  0.25236117  0.75997863  1
  O  O396  1  0.11422364  0.75879634  0.24355944  1
  O  O397  1  0.11076027  0.75258006  0.75031046  1
  O  O398  1  0.61933923  0.25663735  0.25843578  1
  O  O399  1  0.62135260  0.25722930  0.75370725  1
  O  O400  1  0.61854795  0.75401437  0.25658220  1
  O  O401  1  0.61743330  0.75909763  0.75812448  1
  O  O402  1  0.39281443  0.25122709  0.25977239  1
  O  O403  1  0.37625049  0.24224270  0.74283483  1
  O  O404  1  0.38054956  0.74086536  0.24593123  1
  O  O405  1  0.37962985  0.74510440  0.74404492  1
  O  O406  1  0.88086052  0.24479934  0.24786755  1
  O  O407  1  0.87803188  0.24304754  0.74328903  1
  O  O408  1  0.88280813  0.74429743  0.24510091  1
  O  O409  1  0.88449605  0.75664749  0.73916174  1
  O  O410  1  0.38069816  0.49563107  0.49214360  1
  O  O411  1  0.37643034  0.48609303  0.99845647  1
  O  O412  1  0.38269047  0.99455015  0.48977009  1
  O  O413  1  0.37402252  0.99188286  0.99254487  1
  O  O414  1  0.88851541  0.49980985  0.49845643  1
  O  O415  1  0.88289906  0.49200891  0.99123776  1
  O  O416  1  0.87904806  0.99431130  0.49520535  1
  O  O417  1  0.88109955  0.99530580  0.99503384  1
  O  O418  1  0.12013631  0.00391871  0.00850082  1
  O  O419  1  0.11769433  0.00136659  0.50775133  1
  O  O420  1  0.12141988  0.50471303  0.01013840  1
  O  O421  1  0.11365349  0.50269904  0.50624448  1
  O  O422  1  0.62464023  0.01096215  -0.00002462  1
  O  O423  1  0.60992145  0.00025163  0.49088031  1
  O  O424  1  0.63084843  0.49784457  -0.00016667  1
  O  O425  1  0.61863907  0.50553852  0.50297275  1
  O  O426  1  0.36393568  0.38081142  0.11848331  1
  O  O427  1  0.37021783  0.37041734  0.61832990  1
  O  O428  1  0.37362079  0.86753617  0.11962849  1
  O  O429  1  0.36928843  0.86974275  0.61958550  1
  O  O430  1  0.88450751  0.37562541  0.10937470  1
  O  O431  1  0.86744640  0.36890807  0.62108269  1
  O  O432  1  0.87011301  0.87055526  0.12077978  1
  O  O433  1  0.86569126  0.86575541  0.62004423  1
  O  O434  1  0.13383787  0.12970030  0.37751743  1
  O  O435  1  0.13148438  0.12865975  0.88207806  1
  O  O436  1  0.14151111  0.61729335  0.37425536  1
  O  O437  1  0.13042717  0.62615525  0.88374382  1
  O  O438  1  0.62726835  0.13790455  0.37817392  1
  O  O439  1  0.63245785  0.12671530  0.88348338  1
  O  O440  1  0.62727279  0.62974966  0.37931843  1
  O  O441  1  0.61984309  0.63729308  0.87704582  1
