# generated using pymatgen
data_V93Zn93O256
_symmetry_space_group_name_H-M   'P 1'
_cell_length_a   17.04981149
_cell_length_b   17.05391495
_cell_length_c   17.05785412
_cell_angle_alpha   90.00929270
_cell_angle_beta   90.09637006
_cell_angle_gamma   89.99722412
_symmetry_Int_Tables_number   1
_chemical_formula_structural   V93Zn93O256
_chemical_formula_sum   'V93 Zn93 O256'
_cell_volume   4959.83752144
_cell_formula_units_Z   1
loop_
 _symmetry_equiv_pos_site_id
 _symmetry_equiv_pos_as_xyz
  1  'x, y, z'
loop_
 _atom_site_type_symbol
 _atom_site_label
 _atom_site_symmetry_multiplicity
 _atom_site_fract_x
 _atom_site_fract_y
 _atom_site_fract_z
 _atom_site_occupancy
  V  V0  1  0.36915702  0.62547832  0.75311904  1
  V  V1  1  0.00111427  0.00256564  0.49982522  1
  V  V2  1  0.87654956  0.74998802  0.12466113  1
  V  V3  1  0.50507386  0.00019093  0.50357641  1
  V  V4  1  0.37668923  0.62296559  0.25347145  1
  V  V5  1  0.50024208  0.87642539  0.37446316  1
  V  V6  1  0.62354536  0.25169841  0.37388977  1
  V  V7  1  0.12371040  0.49965545  0.62556782  1
  V  V8  1  0.75078783  0.49866735  0.24966141  1
  V  V9  1  0.25141037  0.75027557  0.49792984  1
  V  V10  1  0.00079552  0.37527106  0.37511862  1
  V  V11  1  0.00106470  0.87529706  0.87403181  1
  V  V12  1  0.25163707  0.37457390  0.62660672  1
  V  V13  1  0.49698640  0.38123819  0.37557089  1
  V  V14  1  0.49992152  0.49902687  -0.00046180  1
  V  V15  1  0.50062612  0.62496300  0.12558432  1
  V  V16  1  0.62485757  0.62484771  0.50068299  1
  V  V17  1  0.62458497  -0.00037569  0.12484505  1
  V  V18  1  0.12566514  0.87601874  0.24994379  1
  V  V19  1  0.87874891  0.24764902  0.12410556  1
  V  V20  1  0.49943313  0.24934544  0.75055643  1
  V  V21  1  0.00110601  0.75184415  0.74975973  1
  V  V22  1  0.49135070  -0.00482582  0.00006806  1
  V  V23  1  0.37514431  0.24914701  0.12342934  1
  V  V24  1  0.25083937  0.12546915  0.37710029  1
  V  V25  1  0.37687183  0.87469452  0.49887274  1
  V  V26  1  0.37501176  0.38109449  0.49735576  1
  V  V27  1  0.87512645  0.87564163  0.50052803  1
  V  V28  1  0.49361849  0.87399528  0.87718739  1
  V  V29  1  0.00067891  0.62506057  0.62513586  1
  V  V30  1  -0.00118829  0.13250170  0.63219912  1
  V  V31  1  0.62284272  0.50062802  0.62483924  1
  V  V32  1  0.12654451  0.24976216  0.37432163  1
  V  V33  1  0.12563071  0.00069218  0.62481699  1
  V  V34  1  0.75087930  0.12544989  0.37468073  1
  V  V35  1  0.87279496  0.00098780  0.87482770  1
  V  V36  1  0.87507417  0.75110072  0.62556986  1
  V  V37  1  0.00018338  0.75056433  0.25049351  1
  V  V38  1  0.50063211  0.74967024  0.24887571  1
  V  V39  1  0.62383792  0.12507948  0.00074210  1
  V  V40  1  0.62657098  0.75006373  0.37514234  1
  V  V41  1  0.75073021  0.00031483  0.24998997  1
  V  V42  1  0.37725219  0.74850552  0.62415617  1
  V  V43  1  0.75207643  0.25045970  0.50173460  1
  V  V44  1  0.49981894  0.12427748  0.12583733  1
  V  V45  1  0.62587506  0.62390579  -0.00107955  1
  V  V46  1  0.00082134  0.62578239  0.12449181  1
  V  V47  1  0.24956033  0.25007838  0.00085215  1
  V  V48  1  0.00033919  0.87488016  0.37644721  1
  V  V49  1  0.37442783  0.37526630  -0.00066315  1
  V  V50  1  0.00032453  0.24842036  0.24849463  1
  V  V51  1  0.12175136  0.37019873  0.75012455  1
  V  V52  1  0.75105486  0.74979560  -0.00064917  1
  V  V53  1  0.37612388  0.12544365  0.25230159  1
  V  V54  1  0.62331544  0.25048414  0.87615398  1
  V  V55  1  0.37493776  0.12485009  0.75059329  1
  V  V56  1  0.87992286  0.12487123  0.24627582  1
  V  V57  1  -0.00033004  0.00405151  0.00179399  1
  V  V58  1  0.62515963  0.75070289  0.87376556  1
  V  V59  1  0.24983205  0.12507364  0.87491605  1
  V  V60  1  0.62556303  0.87409880  0.24910049  1
  V  V61  1  0.12608600  0.75008721  0.37598254  1
  V  V62  1  0.62479502  0.88166698  0.74772061  1
  V  V63  1  0.00017981  0.50080938  0.50019429  1
  V  V64  1  0.62606079  0.12318859  0.50269820  1
  V  V65  1  0.87473981  0.49996421  0.87507857  1
  V  V66  1  0.87555892  0.62546200  0.75134897  1
  V  V67  1  0.87465624  0.37461138  0.50092113  1
  V  V68  1  0.12007437  0.00433806  0.12581848  1
  V  V69  1  0.62350587  0.37558218  0.75011317  1
  V  V70  1  0.13527682  0.63119526  -0.00487326  1
  V  V71  1  0.50531739  0.12181161  0.62651057  1
  V  V72  1  0.12478023  0.87667643  0.74959897  1
  V  V73  1  0.12583217  0.37531443  0.24957380  1
  V  V74  1  0.75113060  0.62546991  0.87416655  1
  V  V75  1  0.25193581  0.62438354  0.37488189  1
  V  V76  1  0.62664061  0.49812297  0.12432196  1
  V  V77  1  0.12718677  0.50052208  0.12490031  1
  V  V78  1  0.75016906  0.87427395  0.12422758  1
  V  V79  1  -0.00251578  0.36955073  0.86991849  1
  V  V80  1  0.25407404  0.87138465  0.11764489  1
  V  V81  1  0.74567534  0.88333549  0.62545150  1
  V  V82  1  0.87601966  0.87555169  -0.00090770  1
  V  V83  1  0.36814040  0.50521715  0.87574689  1
  V  V84  1  0.12091302  0.12589254  0.00319029  1
  V  V85  1  0.87526951  0.50031097  0.37420836  1
  V  V86  1  0.24998813  0.00191715  0.74839877  1
  V  V87  1  0.12291725  0.25010895  0.87501043  1
  V  V88  1  0.25544266  0.49923348  0.25562616  1
  V  V89  1  0.74832648  0.12389068  0.87445501  1
  V  V90  1  0.74993782  0.75126151  0.50033449  1
  V  V91  1  0.87434665  0.37534661  0.00095028  1
  V  V92  1  0.74925324  0.37458926  0.62490760  1
  Zn  Zn93  1  0.37575598  0.25062689  0.62473806  1
  Zn  Zn94  1  0.49837796  0.37591030  0.87333804  1
  Zn  Zn95  1  0.49928408  0.62374664  0.62664405  1
  Zn  Zn96  1  0.12635865  0.62481535  0.50011227  1
  Zn  Zn97  1  0.74835863  0.37323980  0.12518237  1
  Zn  Zn98  1  0.25118520  0.37402921  0.12600235  1
  Zn  Zn99  1  0.74939820  0.00381143  0.74551631  1
  Zn  Zn100  1  0.27198780  0.75784301  -0.02281176  1
  Zn  Zn101  1  0.24614521  0.50371415  0.75570091  1
  Zn  Zn102  1  0.87958093  0.25578329  0.63472534  1
  Zn  Zn103  1  0.00246062  0.50082784  -0.00174410  1
  Zn  Zn104  1  0.12679097  0.12818496  0.50065845  1
  Zn  Zn105  1  0.37072285  -0.00436570  0.87800260  1
  Zn  Zn106  1  0.74857031  0.50099196  0.75036867  1
  Zn  Zn107  1  0.49520137  0.50367953  0.49595808  1
  Zn  Zn108  1  0.62292442  0.37475853  0.24811726  1
  Zn  Zn109  1  0.75287932  0.62575159  0.37455095  1
  Zn  Zn110  1  0.13090809  0.74392882  0.86908275  1
  Zn  Zn111  1  0.37748793  0.75440514  0.12077206  1
  Zn  Zn112  1  0.87791723  0.13147656  0.75510612  1
  Zn  Zn113  1  0.25172865  0.25101245  0.50003929  1
  Zn  Zn114  1  0.25009270  -0.00122474  0.25045169  1
  Zn  Zn115  1  0.74830692  0.25001796  0.00232648  1
  Zn  Zn116  1  0.25079761  0.87755635  0.62229139  1
  Zn  Zn117  1  0.87515608  0.62500287  0.25132225  1
  Zn  Zn118  1  0.87573812  0.00081738  0.37372819  1
  Zn  Zn119  1  0.50075053  0.74938420  0.74958486  1
  Zn  Zn120  1  0.50149249  0.25150183  0.24916107  1
  Zn  Zn121  1  0.37450659  0.00060967  0.37638337  1
  Zn  Zn122  1  0.18979400  0.18673890  0.18873726  1
  Zn  Zn123  1  0.18558926  0.18833384  0.68713730  1
  Zn  Zn124  1  0.18804286  0.68860963  0.18787268  1
  Zn  Zn125  1  0.18889856  0.68908327  0.68602731  1
  Zn  Zn126  1  0.69104281  0.18775474  0.18704211  1
  Zn  Zn127  1  0.68729033  0.19010114  0.68901365  1
  Zn  Zn128  1  0.68845547  0.68479729  0.18723260  1
  Zn  Zn129  1  0.68830827  0.69135091  0.68815136  1
  Zn  Zn130  1  0.31459900  0.31190457  0.31285126  1
  Zn  Zn131  1  0.31250200  0.31358528  0.81331809  1
  Zn  Zn132  1  0.31312874  0.81203995  0.30882353  1
  Zn  Zn133  1  0.30938952  0.81265812  0.80563613  1
  Zn  Zn134  1  0.81222977  0.31320692  0.31266599  1
  Zn  Zn135  1  0.80953596  0.30908898  0.80999693  1
  Zn  Zn136  1  0.81431165  0.81246874  0.31305926  1
  Zn  Zn137  1  0.81208533  0.81382063  0.81095047  1
  Zn  Zn138  1  0.18769731  0.43754053  0.43885789  1
  Zn  Zn139  1  0.18752996  0.43743661  0.93942589  1
  Zn  Zn140  1  0.18875753  0.93844422  0.43759821  1
  Zn  Zn141  1  0.18589864  0.93833292  0.93654197  1
  Zn  Zn142  1  0.68752308  0.43776426  0.43663985  1
  Zn  Zn143  1  0.68852930  0.43720912  0.93548067  1
  Zn  Zn144  1  0.68789254  0.93833454  0.43650183  1
  Zn  Zn145  1  0.68364817  0.93815726  0.93681768  1
  Zn  Zn146  1  0.30774953  0.06201685  0.06518210  1
  Zn  Zn147  1  0.31728285  0.06281922  0.56259224  1
  Zn  Zn148  1  0.31519801  0.56501065  0.06480296  1
  Zn  Zn149  1  0.31063362  0.56205918  0.56427780  1
  Zn  Zn150  1  0.81176101  0.06278678  0.06207690  1
  Zn  Zn151  1  0.81661724  0.06463330  0.56112711  1
  Zn  Zn152  1  0.81312028  0.56108115  0.06245681  1
  Zn  Zn153  1  0.81147776  0.56198370  0.56315201  1
  Zn  Zn154  1  0.43905047  0.43583180  0.18730886  1
  Zn  Zn155  1  0.43715637  0.43926608  0.68844738  1
  Zn  Zn156  1  0.43629124  0.93976357  0.18891984  1
  Zn  Zn157  1  0.43738030  0.93721545  0.68857814  1
  Zn  Zn158  1  0.93794934  0.43693116  0.18743908  1
  Zn  Zn159  1  0.93632104  0.43872347  0.68845302  1
  Zn  Zn160  1  0.93821434  0.93745020  0.18737263  1
  Zn  Zn161  1  0.93503038  0.94233514  0.68894442  1
  Zn  Zn162  1  0.06348585  0.06265722  0.31298603  1
  Zn  Zn163  1  0.06336543  0.06110665  0.81482129  1
  Zn  Zn164  1  0.06505861  0.56293125  0.31264227  1
  Zn  Zn165  1  0.06073978  0.55829730  0.81254544  1
  Zn  Zn166  1  0.56268990  0.06220837  0.31463924  1
  Zn  Zn167  1  0.56154256  0.06040734  0.81454751  1
  Zn  Zn168  1  0.56602049  0.56232714  0.31231151  1
  Zn  Zn169  1  0.55669078  0.56366541  0.81178955  1
  Zn  Zn170  1  0.43654549  0.19331170  0.44098950  1
  Zn  Zn171  1  0.43709554  0.18544919  0.93720584  1
  Zn  Zn172  1  0.43950471  0.68794906  0.43580809  1
  Zn  Zn173  1  0.43909055  0.68716384  0.93711074  1
  Zn  Zn174  1  0.93717900  0.18874433  0.43734020  1
  Zn  Zn175  1  0.93693378  0.18760785  0.93785661  1
  Zn  Zn176  1  0.93721546  0.68662828  0.43823645  1
  Zn  Zn177  1  0.94231991  0.68839121  0.93763118  1
  Zn  Zn178  1  0.06008425  0.31293395  0.06155774  1
  Zn  Zn179  1  0.06571614  0.31272311  0.55911347  1
  Zn  Zn180  1  0.06566305  0.81454669  0.06180489  1
  Zn  Zn181  1  0.06412585  0.81308373  0.56311853  1
  Zn  Zn182  1  0.56073456  0.31287165  0.06215390  1
  Zn  Zn183  1  0.56084240  0.31120759  0.56173890  1
  Zn  Zn184  1  0.56162216  0.81132751  0.06067749  1
  Zn  Zn185  1  0.56303592  0.81308370  0.56340987  1
  O  O186  1  0.13246664  0.11268500  0.11983362  1
  O  O187  1  0.11495774  0.12013452  0.62189501  1
  O  O188  1  0.11925156  0.61929600  0.11858157  1
  O  O189  1  0.11863977  0.61798714  0.62456172  1
  O  O190  1  0.62044378  0.11925768  0.12174864  1
  O  O191  1  0.61353360  0.12961622  0.61929545  1
  O  O192  1  0.62068075  0.61863945  0.11840441  1
  O  O193  1  0.62535837  0.61932408  0.61772324  1
  O  O194  1  0.38565206  0.36811833  0.38413379  1
  O  O195  1  0.37682636  0.38438101  0.88118922  1
  O  O196  1  0.38307653  0.87488144  0.38005405  1
  O  O197  1  0.39046808  0.87584051  0.86527050  1
  O  O198  1  0.88176750  0.38007500  0.38061617  1
  O  O199  1  0.88013665  0.37795010  0.88088946  1
  O  O200  1  0.88213503  0.87704993  0.38214724  1
  O  O201  1  0.87987828  0.88024111  0.88061330  1
  O  O202  1  0.25271333  0.01189186  0.37328340  1
  O  O203  1  0.25050270  0.00685535  0.86864654  1
  O  O204  1  0.24191387  0.50657276  0.36176022  1
  O  O205  1  0.26345852  0.49657057  0.87572944  1
  O  O206  1  0.75200533  0.00641131  0.36780535  1
  O  O207  1  0.75420321  0.00875918  0.87733468  1
  O  O208  1  0.75585655  0.50066202  0.36659530  1
  O  O209  1  0.75669820  0.50835195  0.87336735  1
  O  O210  1  0.24052516  0.50040119  0.13546187  1
  O  O211  1  0.24229517  0.48826111  0.62614412  1
  O  O212  1  0.23866357  0.98968645  0.12647317  1
  O  O213  1  0.24311015  1.00249248  0.62910624  1
  O  O214  1  0.74576639  0.49871886  0.13290963  1
  O  O215  1  0.73869026  0.49462743  0.62632345  1
  O  O216  1  0.74439563  0.99378673  0.12976351  1
  O  O217  1  0.75611173  0.98709700  0.62399172  1
  O  O218  1  0.00609184  0.36979882  0.25607839  1
  O  O219  1  0.00933686  0.37956483  0.75899675  1
  O  O220  1  0.00479700  0.86982716  0.25616467  1
  O  O221  1  0.00370563  0.87158215  0.75376582  1
  O  O222  1  0.50135503  0.37098057  0.26025648  1
  O  O223  1  0.50593659  0.36765945  0.75017700  1
  O  O224  1  0.50626261  0.87074015  0.25372547  1
  O  O225  1  0.50892752  0.87394781  0.75688677  1
  O  O226  1  0.49235312  0.12579595  0.24533136  1
  O  O227  1  0.49706806  0.12715036  0.74346560  1
  O  O228  1  0.49489078  0.62845450  0.24706848  1
  O  O229  1  0.48743637  0.62941043  0.74606130  1
  O  O230  1  0.98729328  0.13136225  0.25705567  1
  O  O231  1  1.00285841  0.12013130  0.73445488  1
  O  O232  1  1.00216925  0.63094005  0.23856687  1
  O  O233  1  0.99535414  0.63061274  0.74493218  1
  O  O234  1  0.36951161  0.25390613  0.00395545  1
  O  O235  1  0.37226988  0.26409971  0.50568491  1
  O  O236  1  0.37543725  0.73964027  0.01033541  1
  O  O237  1  0.37181994  0.75397956  0.50524515  1
  O  O238  1  0.87531490  0.25735903  0.00858753  1
  O  O239  1  0.86921283  0.25767544  0.50231666  1
  O  O240  1  0.87118717  0.75585380  0.00485928  1
  O  O241  1  0.87025912  0.75617039  0.50580026  1
  O  O242  1  0.12969655  0.24852943  0.48898090  1
  O  O243  1  0.12913016  0.24595637  0.99608879  1
  O  O244  1  0.13262274  0.74943533  0.49405416  1
  O  O245  1  0.12462039  0.73588665  0.99997926  1
  O  O246  1  0.63093108  0.24379168  0.49150408  1
  O  O247  1  0.62496572  0.24276674  0.99508272  1
  O  O248  1  0.62969832  0.74346219  0.49573833  1
  O  O249  1  0.63209603  0.74374633  0.99467535  1
  O  O250  1  0.49347189  0.24123406  0.12599576  1
  O  O251  1  0.49990867  0.23943400  0.63197655  1
  O  O252  1  0.50330047  0.74285086  0.13262226  1
  O  O253  1  0.48754242  0.74882278  0.62395664  1
  O  O254  1  0.98734035  0.25550435  0.13233731  1
  O  O255  1  1.00251420  0.23461341  0.61740439  1
  O  O256  1  0.99683284  0.74438721  0.12979695  1
  O  O257  1  0.99407446  0.74566948  0.62953139  1
  O  O258  1  0.00593006  0.25616755  0.36888682  1
  O  O259  1  0.00597845  0.26258572  0.88078236  1
  O  O260  1  0.00528915  0.75540389  0.37103096  1
  O  O261  1  0.00416268  0.75706617  0.86736304  1
  O  O262  1  0.51083276  0.25708583  0.37561278  1
  O  O263  1  0.50640084  0.24942882  0.86862396  1
  O  O264  1  0.50740845  0.75660705  0.36857081  1
  O  O265  1  0.50780125  0.75907159  0.87504063  1
  O  O266  1  0.25149816  0.12757592  0.48918624  1
  O  O267  1  0.24248818  0.13038842  0.99450736  1
  O  O268  1  0.24998944  0.63079379  0.49224599  1
  O  O269  1  0.23588441  0.62700187  1.00812297  1
  O  O270  1  0.74632526  0.12935827  0.49519541  1
  O  O271  1  0.74237766  0.12488367  0.99136529  1
  O  O272  1  0.74046671  0.63230632  0.50036615  1
  O  O273  1  0.74598875  0.63052179  0.99448686  1
  O  O274  1  0.25577282  0.36774433  0.00300369  1
  O  O275  1  0.25701629  0.37559287  0.50775124  1
  O  O276  1  0.24275882  0.87371826  0.01431084  1
  O  O277  1  0.25841408  0.86904734  0.49984911  1
  O  O278  1  0.76382325  0.37279559  -0.00086681  1
  O  O279  1  0.75518791  0.37048340  0.50477598  1
  O  O280  1  0.75480835  0.86963765  0.00494432  1
  O  O281  1  0.75359242  0.87137742  0.50659020  1
  O  O282  1  0.13309007  0.49632863  0.24213227  1
  O  O283  1  0.12638101  0.48919294  0.74533802  1
  O  O284  1  0.12373570  0.99515647  0.24133123  1
  O  O285  1  0.13027710  0.99649889  0.74385855  1
  O  O286  1  0.63480296  0.49945491  0.24332680  1
  O  O287  1  0.62426612  0.49635179  0.74069356  1
  O  O288  1  0.63029359  0.99445847  0.24458838  1
  O  O289  1  0.62807504  0.98570551  0.75561560  1
  O  O290  1  0.37415527  0.01425712  0.25344259  1
  O  O291  1  0.36799096  0.00745974  0.75059115  1
  O  O292  1  0.36422413  0.50786985  0.24391790  1
  O  O293  1  0.37415289  0.50746258  0.75850602  1
  O  O294  1  0.87050774  0.00848587  0.24929771  1
  O  O295  1  0.87108458  0.00750044  0.75972607  1
  O  O296  1  0.86800116  0.50055200  0.25485356  1
  O  O297  1  0.87295711  0.50785952  0.75693479  1
  O  O298  1  0.12023507  0.37038715  0.36853684  1
  O  O299  1  0.11730525  0.37192774  0.86946813  1
  O  O300  1  0.11975512  0.86993438  0.37044253  1
  O  O301  1  0.11577030  0.87847549  0.86617863  1
  O  O302  1  0.61794374  0.36482004  0.37645738  1
  O  O303  1  0.62299956  0.36908459  0.86874329  1
  O  O304  1  0.62051665  0.86969557  0.36841478  1
  O  O305  1  0.61822418  0.86969232  0.86760322  1
  O  O306  1  0.37878501  0.12855473  0.13319639  1
  O  O307  1  0.38665362  0.12805867  0.63126499  1
  O  O308  1  0.38286506  0.62432548  0.13891001  1
  O  O309  1  0.37703876  0.63242364  0.63020411  1
  O  O310  1  0.86900656  0.13404020  0.13572047  1
  O  O311  1  0.89076429  0.12542963  0.62530571  1
  O  O312  1  0.88619941  0.63038503  0.12405052  1
  O  O313  1  0.87996360  0.63070810  0.63066686  1
  O  O314  1  0.25668914  0.25047164  0.11846888  1
  O  O315  1  0.24890282  0.26380788  0.62381007  1
  O  O316  1  0.24760766  0.76652171  0.12823336  1
  O  O317  1  0.26170106  0.75168521  0.61687153  1
  O  O318  1  0.76309414  0.25348368  0.12361818  1
  O  O319  1  0.74857623  0.25720201  0.61704559  1
  O  O320  1  0.75574151  0.75431650  0.11936589  1
  O  O321  1  0.75659750  0.75984928  0.61940833  1
  O  O322  1  0.24459009  0.24100061  0.37367688  1
  O  O323  1  0.24315582  0.24502948  0.88152053  1
  O  O324  1  0.24557138  0.74452536  0.37854943  1
  O  O325  1  0.24206255  0.75548939  0.87154923  1
  O  O326  1  0.74265817  0.24608999  0.38090689  1
  O  O327  1  0.74182718  0.23950030  0.87891746  1
  O  O328  1  0.74427473  0.75035742  0.38189375  1
  O  O329  1  0.74624301  0.74545420  0.88091607  1
  O  O330  1  0.00830002  0.11707843  -0.00594258  1
  O  O331  1  0.00104588  0.11513679  0.50579290  1
  O  O332  1  0.00887891  0.62357279  0.01224392  1
  O  O333  1  0.00156331  0.61873380  0.50765663  1
  O  O334  1  0.50478009  0.11586992  0.00595042  1
  O  O335  1  0.50401027  0.11917769  0.50702113  1
  O  O336  1  0.50816358  0.61799344  0.00599979  1
  O  O337  1  0.51258548  0.62382087  0.50060491  1
  O  O338  1  0.49264267  0.37598104  0.49328365  1
  O  O339  1  0.49195924  0.38209466  0.99838583  1
  O  O340  1  0.49823993  0.88235642  0.49512896  1
  O  O341  1  0.50780536  0.88453869  0.98996836  1
  O  O342  1  0.99509111  0.38117873  0.49459305  1
  O  O343  1  0.99005155  0.37744608  0.99117952  1
  O  O344  1  0.99538212  0.88322511  0.49693162  1
  O  O345  1  0.99504566  0.88120269  0.99433589  1
  O  O346  1  0.50952378  0.48555001  0.37741674  1
  O  O347  1  0.48993275  0.49857730  0.88278302  1
  O  O348  1  0.49844075  0.99468052  0.38458571  1
  O  O349  1  0.49852191  0.99205245  0.88457428  1
  O  O350  1  0.99656929  0.49461794  0.37905641  1
  O  O351  1  0.99319055  0.48751753  0.87755172  1
  O  O352  1  1.00025829  0.99430279  0.38461606  1
  O  O353  1  0.99292755  0.99517709  0.88137956  1
  O  O354  1  0.01207741  -0.00760156  0.11782093  1
  O  O355  1  0.00490585  0.00838790  0.61652146  1
  O  O356  1  0.01090693  0.50852167  0.12669212  1
  O  O357  1  0.00413623  0.50520200  0.61997600  1
  O  O358  1  0.50533790  0.00327247  0.11874326  1
  O  O359  1  0.49626902  0.00941142  0.61499538  1
  O  O360  1  0.50642882  0.50547744  0.11993105  1
  O  O361  1  0.51311409  0.50060388  0.62083744  1
  O  O362  1  0.24559873  0.38341262  0.24935501  1
  O  O363  1  0.24123745  0.37792977  0.74278911  1
  O  O364  1  0.24200235  0.87826542  0.24332060  1
  O  O365  1  0.24294345  0.88547098  0.74372234  1
  O  O366  1  0.74828220  0.38719674  0.24910680  1
  O  O367  1  0.74073036  0.37808229  0.74323650  1
  O  O368  1  0.74548421  0.87955140  0.24395188  1
  O  O369  1  0.74332269  0.87659737  0.74177234  1
  O  O370  1  0.25945670  0.12370450  0.25926961  1
  O  O371  1  0.25372082  0.12144873  0.75488833  1
  O  O372  1  0.25741619  0.61915063  0.25365215  1
  O  O373  1  0.26385143  0.62168784  0.74291886  1
  O  O374  1  0.75901835  0.11950168  0.25495477  1
  O  O375  1  0.74473477  0.12199830  0.76403573  1
  O  O376  1  0.75302036  0.61288913  0.25160847  1
  O  O377  1  0.75764873  0.62658759  0.75687546  1
  O  O378  1  0.36871421  0.12872522  0.36832084  1
  O  O379  1  0.36714027  0.12249580  0.86848926  1
  O  O380  1  0.37064925  0.62993302  0.36098763  1
  O  O381  1  0.38079549  0.61607333  0.86530632  1
  O  O382  1  0.86844302  0.12554566  0.36456323  1
  O  O383  1  0.86388793  0.12001274  0.87847176  1
  O  O384  1  0.87370453  0.61683194  0.37256589  1
  O  O385  1  0.87220121  0.62080938  0.87163008  1
  O  O386  1  0.12466226  0.38526056  0.13001489  1
  O  O387  1  0.12940932  0.37869219  0.63262840  1
  O  O388  1  0.13245939  0.88340601  0.13030656  1
  O  O389  1  0.12575202  0.88341703  0.63122247  1
  O  O390  1  0.62748995  0.38185806  0.12655931  1
  O  O391  1  0.62899300  0.38272497  0.62800726  1
  O  O392  1  0.63093189  0.87920752  0.12999904  1
  O  O393  1  0.63537400  0.86818224  0.63409957  1
  O  O394  1  0.12030701  0.25535349  0.25323480  1
  O  O395  1  0.12970895  0.26331378  0.75779663  1
  O  O396  1  0.11881931  0.75569471  0.25619357  1
  O  O397  1  0.11762949  0.75754213  0.74664795  1
  O  O398  1  0.62634936  0.25002802  0.26257417  1
  O  O399  1  0.61851395  0.25586291  0.75650652  1
  O  O400  1  0.62145928  0.75449829  0.25482285  1
  O  O401  1  0.62392077  0.76018118  0.75631601  1
  O  O402  1  0.37640835  0.23931014  0.24349824  1
  O  O403  1  0.38134304  0.24304049  0.74974933  1
  O  O404  1  0.38251045  0.74090899  0.24475643  1
  O  O405  1  0.37578123  0.74319832  0.73901555  1
  O  O406  1  0.87905099  0.24419329  0.24361796  1
  O  O407  1  0.87324432  0.24424353  0.74676439  1
  O  O408  1  0.88186702  0.74856272  0.24263548  1
  O  O409  1  0.88144116  0.74558029  0.74493085  1
  O  O410  1  0.37708040  0.48670531  0.50573607  1
  O  O411  1  0.37915869  0.49740322  0.99468228  1
  O  O412  1  0.38746334  0.99387419  0.49821884  1
  O  O413  1  0.38789194  1.00525745  1.00062924  1
  O  O414  1  0.88002004  0.49450521  0.49475738  1
  O  O415  1  0.87781125  0.49098522  0.99508866  1
  O  O416  1  0.88589314  0.99445081  0.49762018  1
  O  O417  1  0.87967138  0.99410754  0.99653742  1
  O  O418  1  0.11922894  0.00585390  0.00718560  1
  O  O419  1  0.11499464  0.00095523  0.50503506  1
  O  O420  1  0.12533654  0.50861104  0.01053392  1
  O  O421  1  0.11745641  0.50057114  0.50705307  1
  O  O422  1  0.61574160  0.00512724  0.00669212  1
  O  O423  1  0.61321644  0.00663986  0.49401687  1
  O  O424  1  0.62133320  0.50494329  0.00390189  1
  O  O425  1  0.62689652  0.50948677  0.50798704  1
  O  O426  1  0.37402828  0.36780195  0.11802024  1
  O  O427  1  0.36568042  0.37486400  0.62062567  1
  O  O428  1  0.35726308  0.87828018  0.13210792  1
  O  O429  1  0.37521940  0.86547916  0.61828192  1
  O  O430  1  0.87518750  0.36831891  0.11606791  1
  O  O431  1  0.86842325  0.37660866  0.61842992  1
  O  O432  1  0.86997829  0.86970096  0.11908206  1
  O  O433  1  0.86775559  0.87032450  0.62050610  1
  O  O434  1  0.13516315  0.13086693  0.37413412  1
  O  O435  1  0.13008604  0.13098332  0.88084661  1
  O  O436  1  0.13241843  0.63278235  0.37587618  1
  O  O437  1  0.11788457  0.62035727  0.89272981  1
  O  O438  1  0.63039223  0.13316885  0.38065222  1
  O  O439  1  0.63018077  0.12892885  0.88109350  1
  O  O440  1  0.62770710  0.63133349  0.38486122  1
  O  O441  1  0.63012690  0.63002829  0.87942605  1
