# generated using pymatgen
data_V93Zn93O256
_symmetry_space_group_name_H-M   'P 1'
_cell_length_a   17.05195860
_cell_length_b   17.05301189
_cell_length_c   17.05321933
_cell_angle_alpha   89.99191681
_cell_angle_beta   89.96652763
_cell_angle_gamma   90.03717899
_symmetry_Int_Tables_number   1
_chemical_formula_structural   V93Zn93O256
_chemical_formula_sum   'V93 Zn93 O256'
_cell_volume   4958.85685959
_cell_formula_units_Z   1
loop_
 _symmetry_equiv_pos_site_id
 _symmetry_equiv_pos_as_xyz
  1  'x, y, z'
loop_
 _atom_site_type_symbol
 _atom_site_label
 _atom_site_symmetry_multiplicity
 _atom_site_fract_x
 _atom_site_fract_y
 _atom_site_fract_z
 _atom_site_occupancy
  V  V0  1  -0.00138686  0.62508563  0.12480837  1
  V  V1  1  0.49925743  0.62768252  0.62296627  1
  V  V2  1  0.61867039  0.37423946  0.25595179  1
  V  V3  1  0.87485464  0.74872717  0.12567732  1
  V  V4  1  0.12558997  0.62513992  -0.00109891  1
  V  V5  1  -0.00168897  0.49982943  0.00009188  1
  V  V6  1  0.87599850  -0.00158323  0.87559604  1
  V  V7  1  0.62406531  -0.00028777  0.12531466  1
  V  V8  1  0.12653911  0.87504169  0.74935291  1
  V  V9  1  0.75015712  0.00053161  0.24946462  1
  V  V10  1  0.62427784  0.24920407  0.87432063  1
  V  V11  1  0.87000620  0.49920965  0.86953991  1
  V  V12  1  -0.00002352  0.37414231  0.87371683  1
  V  V13  1  0.37460700  0.25044359  0.12370915  1
  V  V14  1  0.62453026  0.00563657  0.61967183  1
  V  V15  1  0.00133165  0.24962604  0.74934983  1
  V  V16  1  0.87852212  0.74554476  0.62473976  1
  V  V17  1  0.12508675  0.37583342  0.74926776  1
  V  V18  1  0.74872040  0.62297226  0.37541340  1
  V  V19  1  0.37540655  0.87459427  0.00096863  1
  V  V20  1  0.37619625  0.48720597  0.37750739  1
  V  V21  1  0.25427278  0.25860231  0.50024297  1
  V  V22  1  0.12483702  0.00063964  0.12547891  1
  V  V23  1  0.87331944  0.37408735  0.50022154  1
  V  V24  1  0.12637417  0.00097280  0.62421058  1
  V  V25  1  0.75195925  0.87255449  0.62616269  1
  V  V26  1  0.11993354  0.50345697  0.62487968  1
  V  V27  1  0.87229243  0.49919022  0.37548013  1
  V  V28  1  0.37517444  0.00147976  0.37648586  1
  V  V29  1  0.62445267  0.87549255  0.25072135  1
  V  V30  1  0.24761248  0.37583601  0.12344049  1
  V  V31  1  0.62332412  0.62446792  0.50005460  1
  V  V32  1  0.37407907  0.75004186  0.12520651  1
  V  V33  1  0.37557086  0.25873042  0.62261732  1
  V  V34  1  0.75204592  0.74728183  0.50044346  1
  V  V35  1  0.25041904  0.62506953  0.37560116  1
  V  V36  1  0.75124322  0.12425001  0.87585302  1
  V  V37  1  0.12174640  0.62625152  0.50256661  1
  V  V38  1  -0.00275427  0.25037193  0.25035788  1
  V  V39  1  0.37396155  0.37743922  -0.00027800  1
  V  V40  1  0.00078946  -0.00023097  0.00083744  1
  V  V41  1  0.37446331  0.62420621  0.25166375  1
  V  V42  1  0.87620631  -0.00065582  0.37579378  1
  V  V43  1  0.74686680  0.37939605  0.63040324  1
  V  V44  1  0.74871093  0.24958287  0.00103584  1
  V  V45  1  0.87764867  0.12388001  0.74978600  1
  V  V46  1  0.62608926  0.87149432  0.75180899  1
  V  V47  1  0.87297390  0.12458530  0.25110002  1
  V  V48  1  0.74830291  0.24371955  0.49846629  1
  V  V49  1  0.24912384  0.62636176  0.87532453  1
  V  V50  1  0.87532230  0.87375029  0.00023025  1
  V  V51  1  0.50235897  0.25382360  0.75079701  1
  V  V52  1  0.25320659  0.87590919  0.62283109  1
  V  V53  1  0.37562496  0.12597284  0.74742544  1
  V  V54  1  -0.00223504  0.37506332  0.37529758  1
  V  V55  1  0.62511141  0.75125081  0.37570471  1
  V  V56  1  0.87313335  0.37489218  0.00011246  1
  V  V57  1  0.50151569  0.87335474  0.87464802  1
  V  V58  1  0.74903540  0.87361185  0.12471210  1
  V  V59  1  0.50514565  0.62175676  0.12558599  1
  V  V60  1  0.74943894  0.74769528  -0.00031083  1
  V  V61  1  0.00008927  0.12459369  0.12435662  1
  V  V62  1  0.50040650  -0.00040386  0.00056991  1
  V  V63  1  0.37595073  0.50092517  0.87563829  1
  V  V64  1  0.12353031  0.25116146  0.37537484  1
  V  V65  1  0.12403656  0.12606750  0.50077517  1
  V  V66  1  0.37429488  0.00189429  0.87352977  1
  V  V67  1  0.49544240  0.48834450  0.49688932  1
  V  V68  1  -0.00005674  0.50098261  0.50081646  1
  V  V69  1  0.25006448  0.50029292  0.74797140  1
  V  V70  1  0.49870185  0.12702423  0.12606237  1
  V  V71  1  -0.00024167  0.74948643  0.24993276  1
  V  V72  1  0.74843989  0.62317238  0.87217605  1
  V  V73  1  0.75178208  -0.00115309  0.75129106  1
  V  V74  1  0.00205105  0.74583379  0.74598815  1
  V  V75  1  0.12361525  0.49994334  0.12548130  1
  V  V76  1  0.74186355  0.37855886  0.12584918  1
  V  V77  1  0.87670205  0.62254826  0.74648802  1
  V  V78  1  0.87312738  0.24976183  0.12630273  1
  V  V79  1  0.12528483  0.74990968  0.37503168  1
  V  V80  1  0.00089500  0.12506358  0.62478124  1
  V  V81  1  0.25065487  0.87622984  0.12571281  1
  V  V82  1  0.74327209  0.49972408  0.24828823  1
  V  V83  1  0.37572118  0.62807026  0.74778374  1
  V  V84  1  0.12170460  0.37665249  0.24850948  1
  V  V85  1  0.12592325  0.87471353  0.25039200  1
  V  V86  1  0.25042510  0.12590484  0.37272465  1
  V  V87  1  0.00153720  0.87383122  0.87453450  1
  V  V88  1  0.61526806  0.24561925  0.37946117  1
  V  V89  1  0.87727076  0.87339771  0.49985130  1
  V  V90  1  0.62500100  0.12435512  0.00043083  1
  V  V91  1  0.49978037  0.87626440  0.37688117  1
  V  V92  1  0.50527407  0.50164420  0.00413951  1
  Zn  Zn93  1  0.62734945  0.62226408  0.00366135  1
  Zn  Zn94  1  0.62733175  0.50303327  0.62988833  1
  Zn  Zn95  1  0.24949869  0.00201419  0.24937800  1
  Zn  Zn96  1  0.74480103  0.12219408  0.38001399  1
  Zn  Zn97  1  0.37601309  0.12679690  0.24921703  1
  Zn  Zn98  1  0.12641037  0.75052815  0.87580258  1
  Zn  Zn99  1  0.37781428  0.87480497  0.50106929  1
  Zn  Zn100  1  0.50091106  0.74938219  0.75073125  1
  Zn  Zn101  1  0.87317796  0.62415374  0.24996013  1
  Zn  Zn102  1  0.63313450  0.38271052  0.75728007  1
  Zn  Zn103  1  0.12771099  0.24751936  0.87478016  1
  Zn  Zn104  1  0.50294496  0.37789767  0.87706120  1
  Zn  Zn105  1  0.24904722  0.49897714  0.25133585  1
  Zn  Zn106  1  0.24833296  0.75131274  -0.00151415  1
  Zn  Zn107  1  0.25339874  0.75089671  0.49971923  1
  Zn  Zn108  1  0.87375431  0.24859788  0.62422814  1
  Zn  Zn109  1  0.50610879  0.13099028  0.61772779  1
  Zn  Zn110  1  0.50909255  0.00957580  0.49348309  1
  Zn  Zn111  1  0.49622775  0.25475620  0.25488809  1
  Zn  Zn112  1  0.00240123  0.87429559  0.37659881  1
  Zn  Zn113  1  0.25340816  0.37925525  0.62156603  1
  Zn  Zn114  1  0.24668149  0.24911830  -0.00428411  1
  Zn  Zn115  1  0.62347826  0.74661981  0.87765198  1
  Zn  Zn116  1  0.12723047  0.12688078  -0.00344245  1
  Zn  Zn117  1  0.50048374  0.74920289  0.25036081  1
  Zn  Zn118  1  0.00082218  -0.00086503  0.49995361  1
  Zn  Zn119  1  0.24757211  0.12898077  0.87531332  1
  Zn  Zn120  1  0.37618545  0.75330499  0.62138938  1
  Zn  Zn121  1  0.25077104  0.00156835  0.74885069  1
  Zn  Zn122  1  0.18583201  0.18986136  0.18486143  1
  Zn  Zn123  1  0.18984783  0.18899809  0.68829888  1
  Zn  Zn124  1  0.18810931  0.68816749  0.18660237  1
  Zn  Zn125  1  0.18868922  0.68889494  0.68568095  1
  Zn  Zn126  1  0.68526054  0.18852915  0.19128563  1
  Zn  Zn127  1  0.69155299  0.19051744  0.68837580  1
  Zn  Zn128  1  0.68623602  0.68812016  0.18978469  1
  Zn  Zn129  1  0.69017066  0.68463601  0.68799620  1
  Zn  Zn130  1  0.30814897  0.31101472  0.30717557  1
  Zn  Zn131  1  0.31245999  0.31503817  0.81275141  1
  Zn  Zn132  1  0.31209338  0.81216193  0.31241849  1
  Zn  Zn133  1  0.31202776  0.81280369  0.81200034  1
  Zn  Zn134  1  0.80725154  0.31207033  0.31480572  1
  Zn  Zn135  1  0.81502306  0.30874242  0.81215846  1
  Zn  Zn136  1  0.81279453  0.81256229  0.31238998  1
  Zn  Zn137  1  0.81431156  0.80880316  0.81311185  1
  Zn  Zn138  1  0.18720359  0.44013145  0.43483853  1
  Zn  Zn139  1  0.18755280  0.43805547  0.93619620  1
  Zn  Zn140  1  0.18805664  0.93834239  0.43833820  1
  Zn  Zn141  1  0.18792383  0.93857440  0.93865682  1
  Zn  Zn142  1  0.68316071  0.43373115  0.43932563  1
  Zn  Zn143  1  0.68634141  0.43770350  0.93739269  1
  Zn  Zn144  1  0.69213223  0.93501648  0.43785662  1
  Zn  Zn145  1  0.68827169  0.93642668  0.93815405  1
  Zn  Zn146  1  0.30995963  0.06401857  0.06018650  1
  Zn  Zn147  1  0.31437398  0.06610286  0.56059708  1
  Zn  Zn148  1  0.31197059  0.56199735  0.06311311  1
  Zn  Zn149  1  0.31166538  0.56196164  0.56051215  1
  Zn  Zn150  1  0.81330922  0.06153107  0.06333566  1
  Zn  Zn151  1  0.81315625  0.06074692  0.56407504  1
  Zn  Zn152  1  0.81186133  0.56170155  0.06174371  1
  Zn  Zn153  1  0.81297992  0.56097776  0.56295075  1
  Zn  Zn154  1  0.43535418  0.43928351  0.18721784  1
  Zn  Zn155  1  0.44351759  0.44112419  0.68862518  1
  Zn  Zn156  1  0.43603245  0.93907046  0.19126672  1
  Zn  Zn157  1  0.44088596  0.93802790  0.68810613  1
  Zn  Zn158  1  0.93276176  0.43813720  0.18775290  1
  Zn  Zn159  1  0.93715495  0.43588954  0.68551664  1
  Zn  Zn160  1  0.93889117  0.93551593  0.18861992  1
  Zn  Zn161  1  0.94026439  0.93589093  0.68655837  1
  Zn  Zn162  1  0.06200582  0.06266004  0.31146638  1
  Zn  Zn163  1  0.06462382  0.06138344  0.81173086  1
  Zn  Zn164  1  0.06105461  0.56392222  0.31289370  1
  Zn  Zn165  1  0.06124217  0.56150846  0.81376167  1
  Zn  Zn166  1  0.56086249  0.06625149  0.31018155  1
  Zn  Zn167  1  0.56169009  0.06324363  0.80942696  1
  Zn  Zn168  1  0.56001246  0.56070746  0.31510540  1
  Zn  Zn169  1  0.56253899  0.56020170  0.81224467  1
  Zn  Zn170  1  0.43759567  0.18456658  0.44313882  1
  Zn  Zn171  1  0.43685245  0.18862661  0.93772331  1
  Zn  Zn172  1  0.43565506  0.68808198  0.43859579  1
  Zn  Zn173  1  0.43734032  0.68835012  0.93793772  1
  Zn  Zn174  1  0.93497056  0.18650056  0.43882974  1
  Zn  Zn175  1  0.93951030  0.18765021  0.93737883  1
  Zn  Zn176  1  0.93850417  0.68529379  0.43533123  1
  Zn  Zn177  1  0.93784550  0.68738588  0.93545757  1
  Zn  Zn178  1  0.06196806  0.31099994  0.06001933  1
  Zn  Zn179  1  0.06363015  0.31355790  0.56404006  1
  Zn  Zn180  1  0.06418908  0.81159592  0.06300487  1
  Zn  Zn181  1  0.06363192  0.81339795  0.56279858  1
  Zn  Zn182  1  0.56020151  0.31328856  0.06257599  1
  Zn  Zn183  1  0.56464972  0.30973035  0.56307224  1
  Zn  Zn184  1  0.56170869  0.80800831  0.06239698  1
  Zn  Zn185  1  0.56402498  0.81426602  0.56183011  1
  O  O186  1  0.11634427  0.11858418  0.12599909  1
  O  O187  1  0.12168390  0.12054963  0.62057863  1
  O  O188  1  0.11845391  0.61947137  0.11981415  1
  O  O189  1  0.13089004  0.61454880  0.61493337  1
  O  O190  1  0.62024743  0.11976800  0.11953395  1
  O  O191  1  0.62992545  0.10715496  0.63493372  1
  O  O192  1  0.60920639  0.62954015  0.12657364  1
  O  O193  1  0.61701212  0.62473653  0.61964979  1
  O  O194  1  0.36859772  0.38872729  0.36664733  1
  O  O195  1  0.37819113  0.38415689  0.88145811  1
  O  O196  1  0.38343524  0.88342673  0.37353952  1
  O  O197  1  0.38195194  0.88279168  0.87821993  1
  O  O198  1  0.87854709  0.37993522  0.38007111  1
  O  O199  1  0.87726470  0.38191943  0.87915299  1
  O  O200  1  0.87524519  0.88368519  0.38025724  1
  O  O201  1  0.88017167  0.87925025  0.88047001  1
  O  O202  1  0.25636138  0.01083956  0.37469126  1
  O  O203  1  0.26670783  -0.00200900  0.87253182  1
  O  O204  1  0.25836174  0.50747738  0.37409736  1
  O  O205  1  0.25625562  0.50709750  0.86750007  1
  O  O206  1  0.75903902  0.00088235  0.36931925  1
  O  O207  1  0.75649667  0.00477196  0.87155673  1
  O  O208  1  0.75292805  0.50311557  0.36969035  1
  O  O209  1  0.76165570  0.50749079  0.88067418  1
  O  O210  1  0.24157452  0.49432399  0.12776019  1
  O  O211  1  0.24084233  0.49864302  0.62882632  1
  O  O212  1  0.24407366  0.99451356  0.12780318  1
  O  O213  1  0.24588754  0.99317498  0.62508705  1
  O  O214  1  0.75452804  0.48945047  0.13461177  1
  O  O215  1  0.74806290  0.48317549  0.61777591  1
  O  O216  1  0.74416036  0.99301651  0.12902740  1
  O  O217  1  0.74415741  0.99242254  0.63204725  1
  O  O218  1  0.00148901  0.37000188  0.25524377  1
  O  O219  1  0.00420388  0.36987141  0.75413130  1
  O  O220  1  0.00768752  0.86692857  0.25112559  1
  O  O221  1  0.00544506  0.86629207  0.75501519  1
  O  O222  1  0.51517981  0.37568055  0.24027817  1
  O  O223  1  0.49912813  0.36066370  0.75271987  1
  O  O224  1  0.50606316  0.87458164  0.26083295  1
  O  O225  1  0.51080456  0.87340564  0.75523566  1
  O  O226  1  0.49683936  0.13082178  0.23987769  1
  O  O227  1  0.49308283  0.13510130  0.74573018  1
  O  O228  1  0.49066423  0.62363400  0.24408219  1
  O  O229  1  0.49121597  0.62517753  0.74042565  1
  O  O230  1  0.99287944  0.13135914  0.24489879  1
  O  O231  1  0.99590856  0.12930796  0.74417286  1
  O  O232  1  0.99667964  0.63077444  0.24289862  1
  O  O233  1  0.98905382  0.63516712  0.75843107  1
  O  O234  1  0.37618239  0.25831612  0.00999326  1
  O  O235  1  0.36476685  0.24522879  0.51025150  1
  O  O236  1  0.37367068  0.75781907  0.00681381  1
  O  O237  1  0.37141659  0.75574846  0.50308886  1
  O  O238  1  0.86809424  0.25540652  0.00532745  1
  O  O239  1  0.86637119  0.25686999  0.50009605  1
  O  O240  1  0.87023039  0.75493554  0.00564066  1
  O  O241  1  0.87156278  0.75161870  0.50485157  1
  O  O242  1  0.13228420  0.24534735  0.49450864  1
  O  O243  1  0.12629103  0.24737082  0.99495661  1
  O  O244  1  0.12470972  0.74020710  0.49524258  1
  O  O245  1  0.12642152  0.74109862  0.99722874  1
  O  O246  1  0.63210000  0.25649076  0.48568903  1
  O  O247  1  0.62939680  0.24339517  0.99545391  1
  O  O248  1  0.63276730  0.74557736  0.49514710  1
  O  O249  1  0.63384324  0.74556665  0.99783692  1
  O  O250  1  0.48970060  0.24502732  0.12426014  1
  O  O251  1  0.49399852  0.25018539  0.63254499  1
  O  O252  1  0.49181143  0.74069580  0.12790332  1
  O  O253  1  0.49984890  0.73937489  0.62646512  1
  O  O254  1  0.99171630  0.24583436  0.13128359  1
  O  O255  1  0.99809502  0.24358225  0.63086430  1
  O  O256  1  0.99417539  0.74451360  0.12982114  1
  O  O257  1  0.99504368  0.75441647  0.63829898  1
  O  O258  1  0.00371826  0.25522803  0.37010939  1
  O  O259  1  -0.00125245  0.25817777  0.86733771  1
  O  O260  1  0.00677495  0.75034531  0.36746681  1
  O  O261  1  0.00046291  0.75634299  0.86434491  1
  O  O262  1  0.51199516  0.24771956  0.37610530  1
  O  O263  1  0.50591884  0.25002949  0.86708356  1
  O  O264  1  0.50652333  0.76028434  0.37476640  1
  O  O265  1  0.50364984  0.75703551  0.87215531  1
  O  O266  1  0.24458420  0.13521309  0.49004788  1
  O  O267  1  0.24691002  0.12870618  0.99449050  1
  O  O268  1  0.23829013  0.62550134  0.49377944  1
  O  O269  1  0.24383716  0.62494786  0.99342858  1
  O  O270  1  0.75574317  0.13888430  0.50119703  1
  O  O271  1  0.74510362  0.12954188  0.99598436  1
  O  O272  1  0.74388089  0.62825367  0.49540202  1
  O  O273  1  0.74950345  0.62831480  0.99090675  1
  O  O274  1  0.25704733  0.37733395  0.00702291  1
  O  O275  1  0.24322992  0.36173990  0.49953339  1
  O  O276  1  0.25821011  0.87528686  0.00734247  1
  O  O277  1  0.25109712  0.87488240  0.51150388  1
  O  O278  1  0.75284140  0.37043388  0.00820546  1
  O  O279  1  0.75437254  0.36589704  0.50743590  1
  O  O280  1  0.75574520  0.86935419  0.00552685  1
  O  O281  1  0.75760622  0.86598392  0.50592890  1
  O  O282  1  0.12330248  0.49420462  0.24358984  1
  O  O283  1  0.12801262  0.49823781  0.74137480  1
  O  O284  1  0.12552028  0.99312797  0.24403777  1
  O  O285  1  0.12777472  0.99233961  0.74204113  1
  O  O286  1  0.63655197  0.49078858  0.26029504  1
  O  O287  1  0.60785042  0.49027710  0.74010999  1
  O  O288  1  0.63043630  0.99534182  0.24424527  1
  O  O289  1  0.63193255  0.98924499  0.74412721  1
  O  O290  1  0.37113979  0.00456705  0.26294932  1
  O  O291  1  0.38014940  0.00959040  0.75755186  1
  O  O292  1  0.37430314  0.50964763  0.25841267  1
  O  O293  1  0.37181064  0.51000994  0.75366287  1
  O  O294  1  0.86988290  0.00295044  0.25673916  1
  O  O295  1  0.87125090  0.00300917  0.75595690  1
  O  O296  1  0.86087944  0.49903034  0.25720972  1
  O  O297  1  0.88397496  0.50859570  0.76054612  1
  O  O298  1  0.11738640  0.37069425  0.36932197  1
  O  O299  1  0.11569477  0.37964798  0.86590837  1
  O  O300  1  0.12523120  0.86856804  0.36923377  1
  O  O301  1  0.11962018  0.87479020  0.86793057  1
  O  O302  1  0.63040899  0.36129462  0.36527533  1
  O  O303  1  0.62393995  0.36504888  0.87447140  1
  O  O304  1  0.61934655  0.87221592  0.37076931  1
  O  O305  1  0.62133247  0.87579740  0.86612101  1
  O  O306  1  0.37927700  0.13475233  0.12447354  1
  O  O307  1  0.37588755  0.13485524  0.63454342  1
  O  O308  1  0.37995924  0.62931960  0.13437227  1
  O  O309  1  0.38159368  0.62543887  0.63238329  1
  O  O310  1  0.87938866  0.12994133  0.13113233  1
  O  O311  1  0.88199359  0.12392354  0.63268161  1
  O  O312  1  0.88051798  0.63078469  0.12572063  1
  O  O313  1  0.86815229  0.62903597  0.63766324  1
  O  O314  1  0.25933210  0.25697241  0.12367509  1
  O  O315  1  0.25771351  0.25229173  0.61655198  1
  O  O316  1  0.25685856  0.75733815  0.12299204  1
  O  O317  1  0.25140253  0.76326047  0.62376177  1
  O  O318  1  0.75423331  0.25692725  0.12061867  1
  O  O319  1  0.75109967  0.25832389  0.61536156  1
  O  O320  1  0.75447196  0.75434620  0.12054078  1
  O  O321  1  0.75746483  0.75322977  0.61924393  1
  O  O322  1  0.24496882  0.24449304  0.38092653  1
  O  O323  1  0.24809779  0.24888466  0.87671919  1
  O  O324  1  0.24261922  0.74300835  0.37619144  1
  O  O325  1  0.24776617  0.74207364  0.87683519  1
  O  O326  1  0.74193703  0.24706090  0.38337073  1
  O  O327  1  0.74596751  0.24323677  0.88150138  1
  O  O328  1  0.74563007  0.74408657  0.38073040  1
  O  O329  1  0.75218633  0.73917400  0.88210772  1
  O  O330  1  -0.00252197  0.11660492  0.00783773  1
  O  O331  1  0.00663020  0.12491619  0.50622851  1
  O  O332  1  0.00399425  0.61911827  0.00468436  1
  O  O333  1  0.01372496  0.61725812  0.49294356  1
  O  O334  1  0.50586773  0.11902717  0.00536808  1
  O  O335  1  0.50154436  0.12030562  0.50646244  1
  O  O336  1  0.49883223  0.61838369  0.00887289  1
  O  O337  1  0.50508915  0.62215915  0.50777493  1
  O  O338  1  0.50288409  0.39089754  0.50705843  1
  O  O339  1  0.49309402  0.38553653  1.00178228  1
  O  O340  1  0.50264093  0.88225490  0.48715059  1
  O  O341  1  0.49570942  0.88092283  0.99537415  1
  O  O342  1  0.99449452  0.37995281  0.49406896  1
  O  O343  1  0.99123996  0.38032366  0.99498114  1
  O  O344  1  0.99245320  0.87758025  0.49772584  1
  O  O345  1  0.99411830  0.87908061  0.99529173  1
  O  O346  1  0.49157365  0.50433680  0.38903569  1
  O  O347  1  0.49229870  0.50173358  0.88625319  1
  O  O348  1  0.49386056  0.99353833  0.37283758  1
  O  O349  1  0.49320130  0.99504281  0.87979199  1
  O  O350  1  0.99322297  0.49407110  0.37995598  1
  O  O351  1  0.98942901  0.49475289  0.88097435  1
  O  O352  1  0.98729148  0.99854496  0.37585275  1
  O  O353  1  0.99376162  0.99282838  0.87984652  1
  O  O354  1  0.00385363  0.00458160  0.12055563  1
  O  O355  1  0.00757024  0.00670575  0.62338587  1
  O  O356  1  0.00216053  0.50437650  0.11965695  1
  O  O357  1  0.01173661  0.49519873  0.61764367  1
  O  O358  1  0.50461462  0.00529902  0.12036270  1
  O  O359  1  0.51845127  -0.00188963  0.62570782  1
  O  O360  1  0.49023877  0.51144170  0.11508711  1
  O  O361  1  0.49591823  0.51202525  0.61083482  1
  O  O362  1  0.23854968  0.37668505  0.24195528  1
  O  O363  1  0.24337216  0.38460167  0.74771834  1
  O  O364  1  0.24347406  0.87667993  0.24355131  1
  O  O365  1  0.24566976  0.87767967  0.74046732  1
  O  O366  1  0.74227128  0.38102045  0.24367935  1
  O  O367  1  0.75254744  0.36670173  0.73398471  1
  O  O368  1  0.74418377  0.88032128  0.24423995  1
  O  O369  1  0.74556166  0.87851209  0.74686973  1
  O  O370  1  0.24922291  0.12799625  0.26346917  1
  O  O371  1  0.26449924  0.12293293  0.75173373  1
  O  O372  1  0.25951568  0.62327052  0.25499241  1
  O  O373  1  0.25787171  0.61991837  0.75288016  1
  O  O374  1  0.75652316  0.11708725  0.24924987  1
  O  O375  1  0.75720652  0.11928003  0.75717853  1
  O  O376  1  0.74839313  0.61490150  0.25536963  1
  O  O377  1  0.76362735  0.63122897  0.76146641  1
  O  O378  1  0.36578195  0.12049460  0.37348328  1
  O  O379  1  0.37964645  0.11578459  0.86590901  1
  O  O380  1  0.37053895  0.62010519  0.36663281  1
  O  O381  1  0.37071863  0.62096711  0.86587327  1
  O  O382  1  0.87264884  0.11488645  0.36916862  1
  O  O383  1  0.87074328  0.11769724  0.87071990  1
  O  O384  1  0.86628235  0.61726053  0.37375717  1
  O  O385  1  0.86856497  0.61727482  0.86878958  1
  O  O386  1  0.12645009  0.38080827  0.12939439  1
  O  O387  1  0.12755775  0.38669690  0.63031242  1
  O  O388  1  0.13046914  0.88046467  0.13033364  1
  O  O389  1  0.13318542  0.88106076  0.62928698  1
  O  O390  1  0.63765000  0.36604160  0.13364738  1
  O  O391  1  0.64064411  0.37268544  0.62468359  1
  O  O392  1  0.62899455  0.87989349  0.13009244  1
  O  O393  1  0.63218573  0.88120022  0.63419563  1
  O  O394  1  0.11664479  0.25636378  0.25512483  1
  O  O395  1  0.11834757  0.25842672  0.74897415  1
  O  O396  1  0.11960739  0.75432653  0.25472851  1
  O  O397  1  0.11639446  0.75429890  0.75044939  1
  O  O398  1  0.62383216  0.25758149  0.26140032  1
  O  O399  1  0.61699355  0.24951253  0.75573737  1
  O  O400  1  0.62377218  0.75784539  0.25821886  1
  O  O401  1  0.62766061  0.76243837  0.75152587  1
  O  O402  1  0.37747252  0.25099167  0.23729898  1
  O  O403  1  0.38301227  0.24332803  0.74398567  1
  O  O404  1  0.37717514  0.73901407  0.24598091  1
  O  O405  1  0.37630198  0.73743606  0.74730525  1
  O  O406  1  0.87767783  0.24556829  0.24642573  1
  O  O407  1  0.88265099  0.24068356  0.74824552  1
  O  O408  1  0.87971568  0.74839045  0.24317256  1
  O  O409  1  0.88331290  0.74263673  0.74521980  1
  O  O410  1  0.38630319  0.50504392  0.49209494  1
  O  O411  1  0.38178888  0.49660533  0.99505511  1
  O  O412  1  0.37561811  0.99907318  0.48497681  1
  O  O413  1  0.38218639  0.99510590  0.99208860  1
  O  O414  1  0.88030670  0.49471433  0.49480214  1
  O  O415  1  0.87891392  0.49421050  0.99133164  1
  O  O416  1  0.87377298  0.99327181  0.49097797  1
  O  O417  1  0.87975714  0.99280559  0.99538059  1
  O  O418  1  0.11667212  -0.00050354  0.00785802  1
  O  O419  1  0.12391501  0.00888671  0.50531477  1
  O  O420  1  0.11709702  0.50476186  0.00573738  1
  O  O421  1  0.12067672  0.50637594  0.50579670  1
  O  O422  1  0.62055451  0.00460885  0.00572042  1
  O  O423  1  0.63249569  -0.00599411  0.51726753  1
  O  O424  1  0.61018693  0.50201854  -0.00383451  1
  O  O425  1  0.61090438  0.50591483  0.50001888  1
  O  O426  1  0.36863050  0.36918628  0.12065707  1
  O  O427  1  0.37397514  0.36217602  0.63311501  1
  O  O428  1  0.37151609  0.87098594  0.12162679  1
  O  O429  1  0.36733948  0.87729872  0.62456235  1
  O  O430  1  0.86416520  0.36925479  0.12040126  1
  O  O431  1  0.86448054  0.37325530  0.61879636  1
  O  O432  1  0.86865964  0.86928490  0.11983401  1
  O  O433  1  0.87055347  0.86773083  0.62041389  1
  O  O434  1  0.13124620  0.13132087  0.37907937  1
  O  O435  1  0.12826181  0.12647687  0.87627850  1
  O  O436  1  0.13088689  0.62870697  0.38181339  1
  O  O437  1  0.13137945  0.62377933  0.88101148  1
  O  O438  1  0.62852301  0.14081750  0.36765865  1
  O  O439  1  0.63126192  0.12797670  0.88065643  1
  O  O440  1  0.62923974  0.63134962  0.38022625  1
  O  O441  1  0.63827626  0.62466332  0.87383557  1
