# generated using pymatgen
data_V93Zn93O256
_symmetry_space_group_name_H-M   'P 1'
_cell_length_a   17.05464557
_cell_length_b   17.05272813
_cell_length_c   17.05100715
_cell_angle_alpha   90.08193715
_cell_angle_beta   90.05398313
_cell_angle_gamma   90.06614506
_symmetry_Int_Tables_number   1
_chemical_formula_structural   V93Zn93O256
_chemical_formula_sum   'V93 Zn93 O256'
_cell_volume   4958.90371538
_cell_formula_units_Z   1
loop_
 _symmetry_equiv_pos_site_id
 _symmetry_equiv_pos_as_xyz
  1  'x, y, z'
loop_
 _atom_site_type_symbol
 _atom_site_label
 _atom_site_symmetry_multiplicity
 _atom_site_fract_x
 _atom_site_fract_y
 _atom_site_fract_z
 _atom_site_occupancy
  V  V0  1  0.50001757  0.13782789  0.63210986  1
  V  V1  1  0.50020697  0.75057956  0.25131431  1
  V  V2  1  0.37418460  0.62548032  0.25017267  1
  V  V3  1  0.87758623  0.87533895  0.50164551  1
  V  V4  1  0.61977399  0.24790826  0.36790755  1
  V  V5  1  0.74709138  0.37451978  0.12225803  1
  V  V6  1  0.87133030  0.11987609  0.74780657  1
  V  V7  1  0.37346116  0.50157501  0.87434799  1
  V  V8  1  0.62599747  0.50158303  0.62286770  1
  V  V9  1  0.25215958  0.12531786  0.37751350  1
  V  V10  1  0.00101893  0.12459222  0.12325188  1
  V  V11  1  0.00099210  0.24961474  0.25068334  1
  V  V12  1  0.24491906  0.37549205  0.12533198  1
  V  V13  1  0.87590403  -0.00028791  0.37639083  1
  V  V14  1  0.12474904  0.75117226  0.87492294  1
  V  V15  1  0.36947242  0.37897304  -0.00193373  1
  V  V16  1  0.37473461  0.49948248  0.37349324  1
  V  V17  1  0.25327467  0.87980018  0.62962233  1
  V  V18  1  0.61847756  0.37116034  0.24359511  1
  V  V19  1  0.12213465  0.37470425  0.74947158  1
  V  V20  1  0.25286874  0.25147733  0.50370275  1
  V  V21  1  0.62443569  0.12021076  0.00153697  1
  V  V22  1  0.24785461  0.62551263  0.87464947  1
  V  V23  1  0.37770539  0.24620723  0.12851412  1
  V  V24  1  0.87543656  0.62204784  0.75205986  1
  V  V25  1  0.87576357  0.74964408  0.12545044  1
  V  V26  1  -0.00025580  0.37465517  0.37329211  1
  V  V27  1  0.37466095  0.37182079  0.50377885  1
  V  V28  1  0.00152263  0.87437644  0.87546637  1
  V  V29  1  0.12586547  0.87545085  0.25224166  1
  V  V30  1  0.75241561  0.87689225  0.62909423  1
  V  V31  1  0.25075324  0.37379578  0.62419992  1
  V  V32  1  0.49751489  0.50171547  -0.00317374  1
  V  V33  1  0.62246513  0.49791386  0.12327215  1
  V  V34  1  0.50162321  0.87638964  0.37783956  1
  V  V35  1  0.37642593  0.87687220  0.50280687  1
  V  V36  1  0.50069424  0.74886195  0.74961252  1
  V  V37  1  0.74991911  0.37703174  0.62292283  1
  V  V38  1  0.24940252  0.75018613  0.00113796  1
  V  V39  1  -0.00012835  0.74999214  0.25011170  1
  V  V40  1  0.75232371  0.62020736  0.87607506  1
  V  V41  1  0.37489610  0.75181738  0.12613196  1
  V  V42  1  0.37503606  0.62614598  0.74944748  1
  V  V43  1  0.12584332  0.00156844  0.12556037  1
  V  V44  1  -0.00108579  0.62490968  0.12502700  1
  V  V45  1  0.87320249  0.49993595  0.37180353  1
  V  V46  1  0.62525607  0.62505695  0.49855771  1
  V  V47  1  0.38204997  0.14446861  0.75123515  1
  V  V48  1  0.87614048  0.12373549  0.25056223  1
  V  V49  1  0.74958192  0.24992331  0.49699396  1
  V  V50  1  0.37665641  0.00196396  0.37712337  1
  V  V51  1  0.24991174  0.62633809  0.37588085  1
  V  V52  1  0.75034291  0.12395511  0.37336803  1
  V  V53  1  0.74976937  0.49945529  0.75127111  1
  V  V54  1  0.12866627  0.00193852  0.62775465  1
  V  V55  1  0.74855963  0.74874165  0.00073753  1
  V  V56  1  0.87217867  0.37633665  -0.00734420  1
  V  V57  1  0.49978170  0.87559412  0.87610364  1
  V  V58  1  0.63071600  0.87766503  0.75224502  1
  V  V59  1  0.87470594  -0.00333512  0.87033833  1
  V  V60  1  0.00099958  0.87503014  0.37619512  1
  V  V61  1  0.87606767  0.87382121  -0.00062726  1
  V  V62  1  0.37277618  -0.00029442  0.86643517  1
  V  V63  1  0.49940819  0.62513969  0.12540731  1
  V  V64  1  0.75012877  0.74966900  0.49993838  1
  V  V65  1  0.62683773  0.87476401  0.25127747  1
  V  V66  1  0.50090425  0.50122775  0.49834505  1
  V  V67  1  -0.00398076  0.37605834  0.87339285  1
  V  V68  1  0.62572089  0.74954295  0.37638834  1
  V  V69  1  0.87651529  0.75000729  0.62505926  1
  V  V70  1  -0.00010398  0.50004801  0.49879598  1
  V  V71  1  0.74982506  0.11626767  0.87445368  1
  V  V72  1  0.24495798  0.24843211  -0.00301661  1
  V  V73  1  0.12535093  0.25045645  0.37562320  1
  V  V74  1  0.25376331  0.00236581  0.25188892  1
  V  V75  1  0.37559774  0.87686091  0.00014580  1
  V  V76  1  -0.00019186  0.62441015  0.62449499  1
  V  V77  1  0.25033679  0.75063887  0.50043953  1
  V  V78  1  0.87543905  0.24848190  0.62444299  1
  V  V79  1  0.12727172  0.12528722  0.50298753  1
  V  V80  1  0.75147934  0.24608101  0.00056895  1
  V  V81  1  0.12232939  0.62481739  -0.00050392  1
  V  V82  1  0.50173160  0.00071757  0.50417652  1
  V  V83  1  0.24831392  0.50065672  0.24874980  1
  V  V84  1  -0.00659799  0.50013031  -0.00294613  1
  V  V85  1  0.49905135  0.37223232  0.37104214  1
  V  V86  1  0.62509615  -0.00301425  0.12669274  1
  V  V87  1  0.12335063  0.50134387  0.62398298  1
  V  V88  1  0.24808947  0.50151717  0.74909796  1
  V  V89  1  0.62937210  -0.00025601  0.62881910  1
  V  V90  1  0.13004611  0.87948753  0.75194747  1
  V  V91  1  0.25088552  0.87664955  0.12674368  1
  V  V92  1  0.24874501  0.12114953  0.86728880  1
  Zn  Zn93  1  0.62521030  0.74888079  0.87597490  1
  Zn  Zn94  1  0.87641355  0.25053885  0.12584208  1
  Zn  Zn95  1  0.49406863  0.36439023  0.86178905  1
  Zn  Zn96  1  0.00140700  0.74894235  0.74965952  1
  Zn  Zn97  1  0.00195363  0.00127268  0.50139117  1
  Zn  Zn98  1  0.61452641  0.36749488  0.74719607  1
  Zn  Zn99  1  0.62253036  0.12507670  0.50010068  1
  Zn  Zn100  1  0.87248458  0.62430111  0.24920584  1
  Zn  Zn101  1  0.49739937  0.00100337  0.00190345  1
  Zn  Zn102  1  0.74875721  0.50000966  0.24805796  1
  Zn  Zn103  1  0.61494280  0.24767093  0.86659351  1
  Zn  Zn104  1  -0.00274994  0.25025385  0.75065447  1
  Zn  Zn105  1  0.00042438  0.00073418  0.00004413  1
  Zn  Zn106  1  0.49897194  0.62512126  0.62398364  1
  Zn  Zn107  1  0.12415714  0.74922728  0.37579036  1
  Zn  Zn108  1  0.37573866  0.74929024  0.62595797  1
  Zn  Zn109  1  0.12511251  0.62610836  0.49974960  1
  Zn  Zn110  1  0.50593867  0.13101865  0.13250928  1
  Zn  Zn111  1  0.87598614  0.37471293  0.49813273  1
  Zn  Zn112  1  0.00100180  0.12443001  0.62609050  1
  Zn  Zn113  1  0.62433602  0.62455227  -0.00103768  1
  Zn  Zn114  1  0.12155943  0.24648343  0.87036274  1
  Zn  Zn115  1  0.12285148  0.37692556  0.25006187  1
  Zn  Zn116  1  0.75195822  0.87355146  0.12777613  1
  Zn  Zn117  1  0.12264660  0.12243719  -0.00548894  1
  Zn  Zn118  1  0.74980307  0.62378684  0.37152291  1
  Zn  Zn119  1  0.38275781  0.13294091  0.25769540  1
  Zn  Zn120  1  0.12190758  0.50035198  0.12550297  1
  Zn  Zn121  1  0.75124931  -0.00232342  0.25051244  1
  Zn  Zn122  1  0.18877848  0.18663058  0.19034083  1
  Zn  Zn123  1  0.19080145  0.19082332  0.68947499  1
  Zn  Zn124  1  0.18491041  0.68775796  0.18750443  1
  Zn  Zn125  1  0.18672017  0.69049433  0.68679684  1
  Zn  Zn126  1  0.68983325  0.18624533  0.18718088  1
  Zn  Zn127  1  0.68660124  0.18318098  0.68592365  1
  Zn  Zn128  1  0.68779005  0.68412039  0.18817694  1
  Zn  Zn129  1  0.68733061  0.68804001  0.68603922  1
  Zn  Zn130  1  0.31009695  0.31373402  0.31298769  1
  Zn  Zn131  1  0.30861763  0.31529173  0.81364196  1
  Zn  Zn132  1  0.31390647  0.81507285  0.31474475  1
  Zn  Zn133  1  0.31326761  0.81198507  0.81345907  1
  Zn  Zn134  1  0.81140590  0.31333877  0.30854622  1
  Zn  Zn135  1  0.77757829  0.29152529  0.79401552  1
  Zn  Zn136  1  0.81322290  0.81251173  0.31333588  1
  Zn  Zn137  1  0.81311285  0.80744636  0.81367010  1
  Zn  Zn138  1  0.18623818  0.43874696  0.43668593  1
  Zn  Zn139  1  0.18131342  0.43876398  0.93621312  1
  Zn  Zn140  1  0.18809208  0.93840866  0.43947586  1
  Zn  Zn141  1  0.18861286  0.94013515  0.94009491  1
  Zn  Zn142  1  0.68737732  0.43524825  0.43478290  1
  Zn  Zn143  1  0.68218214  0.43536742  0.93333208  1
  Zn  Zn144  1  0.68942305  0.93775892  0.44098402  1
  Zn  Zn145  1  0.68844729  0.93495527  0.93873700  1
  Zn  Zn146  1  0.31003605  0.06276961  0.05782859  1
  Zn  Zn147  1  0.31668214  0.06615519  0.56845740  1
  Zn  Zn148  1  0.31069397  0.56429045  0.06333382  1
  Zn  Zn149  1  0.31404345  0.56176566  0.56324244  1
  Zn  Zn150  1  0.81406790  0.05745708  0.06327282  1
  Zn  Zn151  1  0.81019018  0.06159052  0.55969647  1
  Zn  Zn152  1  0.81250923  0.56133466  0.06348770  1
  Zn  Zn153  1  0.81325656  0.56360677  0.55960365  1
  Zn  Zn154  1  0.43594688  0.43540721  0.18456246  1
  Zn  Zn155  1  0.43762677  0.43920640  0.68512334  1
  Zn  Zn156  1  0.44037380  0.94078671  0.18998403  1
  Zn  Zn157  1  0.44175964  0.94067595  0.68908646  1
  Zn  Zn158  1  0.93521330  0.43561588  0.18450193  1
  Zn  Zn159  1  0.93412365  0.43769439  0.68644471  1
  Zn  Zn160  1  0.93767252  0.93726318  0.18857195  1
  Zn  Zn161  1  0.94370857  0.93674836  0.68839633  1
  Zn  Zn162  1  0.06385396  0.06221697  0.31361137  1
  Zn  Zn163  1  0.05896055  0.06196021  0.80994743  1
  Zn  Zn164  1  0.06347614  0.56368735  0.31230988  1
  Zn  Zn165  1  0.06006745  0.56031182  0.81334913  1
  Zn  Zn166  1  0.56020836  0.06415621  0.30909694  1
  Zn  Zn167  1  0.55961680  0.06019292  0.81292196  1
  Zn  Zn168  1  0.56304278  0.56041575  0.31103513  1
  Zn  Zn169  1  0.56544523  0.56093932  0.81271926  1
  Zn  Zn170  1  0.44029429  0.18648875  0.44361197  1
  Zn  Zn171  1  0.43363182  0.18407431  0.94018308  1
  Zn  Zn172  1  0.43689092  0.68830419  0.43808900  1
  Zn  Zn173  1  0.43617935  0.68826709  0.93634221  1
  Zn  Zn174  1  0.94064733  0.18470083  0.43873043  1
  Zn  Zn175  1  0.93549105  0.18896152  0.93627180  1
  Zn  Zn176  1  0.93748263  0.68628784  0.43674909  1
  Zn  Zn177  1  0.93614821  0.68832713  0.93619247  1
  Zn  Zn178  1  0.06084174  0.31069252  0.06062955  1
  Zn  Zn179  1  0.06216311  0.31339964  0.56139577  1
  Zn  Zn180  1  0.06226610  0.81387225  0.06352506  1
  Zn  Zn181  1  0.06347707  0.81236295  0.56393093  1
  Zn  Zn182  1  0.54675675  0.29875949  0.02633303  1
  Zn  Zn183  1  0.56559036  0.31724832  0.55826940  1
  Zn  Zn184  1  0.56297599  0.81280668  0.06298577  1
  Zn  Zn185  1  0.56422800  0.81216057  0.56533677  1
  O  O186  1  0.11632119  0.11996265  0.12573139  1
  O  O187  1  0.12919084  0.11565514  0.62411338  1
  O  O188  1  0.11730532  0.62514361  0.11622039  1
  O  O189  1  0.11836251  0.61904174  0.62513833  1
  O  O190  1  0.62844797  0.11519750  0.11787608  1
  O  O191  1  0.61961138  0.11395039  0.62670109  1
  O  O192  1  0.61624631  0.61724058  0.12330640  1
  O  O193  1  0.62382753  0.61970337  0.61617849  1
  O  O194  1  0.37893686  0.38051596  0.38089461  1
  O  O195  1  0.37279989  0.38491308  0.88178115  1
  O  O196  1  0.38222416  0.88195252  0.38295887  1
  O  O197  1  0.37768146  0.88219943  0.87991138  1
  O  O198  1  0.88082097  0.38225103  0.37485556  1
  O  O199  1  0.88251821  0.36974288  0.88841704  1
  O  O200  1  0.88113340  0.87996258  0.38200762  1
  O  O201  1  0.87983614  0.87983809  0.87695721  1
  O  O202  1  0.25690099  0.00568608  0.37275358  1
  O  O203  1  0.25970171  0.01177542  0.88143638  1
  O  O204  1  0.25575455  0.50564125  0.36932370  1
  O  O205  1  0.25227465  0.50640705  0.86934058  1
  O  O206  1  0.75701824  0.00659046  0.37630611  1
  O  O207  1  0.76122601  0.00726417  0.88139627  1
  O  O208  1  0.76124358  0.49840860  0.37366016  1
  O  O209  1  0.74578168  0.51027994  0.86546330  1
  O  O210  1  0.24907897  0.49081695  0.12869884  1
  O  O211  1  0.24325971  0.49498083  0.62998602  1
  O  O212  1  0.24685556  0.99579672  0.13080395  1
  O  O213  1  0.24203238  0.98889248  0.62098324  1
  O  O214  1  0.74071123  0.49132297  0.12115181  1
  O  O215  1  0.74591134  0.49704875  0.62918916  1
  O  O216  1  0.73867927  0.99536251  0.12668000  1
  O  O217  1  0.73763537  0.99373852  0.62069640  1
  O  O218  1  0.00099773  0.36726566  0.25385221  1
  O  O219  1  0.00106312  0.37752910  0.75923336  1
  O  O220  1  0.00637354  0.86997013  0.25578818  1
  O  O221  1  0.01275317  0.87179406  0.75673403  1
  O  O222  1  0.50982708  0.37803595  0.25388580  1
  O  O223  1  0.50271714  0.38261411  0.75163258  1
  O  O224  1  0.50602364  0.86965346  0.25792386  1
  O  O225  1  0.50833024  0.86691845  0.75568480  1
  O  O226  1  0.49368318  0.12397410  0.24361178  1
  O  O227  1  0.49465629  0.12442073  0.74491044  1
  O  O228  1  0.49334878  0.63054544  0.24561912  1
  O  O229  1  0.49547558  0.63425850  0.75134069  1
  O  O230  1  0.99640195  0.12980361  0.24309611  1
  O  O231  1  0.98478837  0.12880640  0.74813628  1
  O  O232  1  0.99915956  0.63205930  0.24240006  1
  O  O233  1  0.99053076  0.62390735  0.74537609  1
  O  O234  1  0.35942185  0.25698258  0.00736336  1
  O  O235  1  0.36983169  0.26497436  0.49329055  1
  O  O236  1  0.36858604  0.75565541  0.00597258  1
  O  O237  1  0.36681132  0.75772090  0.50262829  1
  O  O238  1  0.86628082  0.25612743  0.00340987  1
  O  O239  1  0.86552462  0.24781464  0.50663210  1
  O  O240  1  0.86730335  0.75406848  0.00458523  1
  O  O241  1  0.87041747  0.75559185  0.50592636  1
  O  O242  1  0.13184865  0.24513191  0.49522638  1
  O  O243  1  0.13541811  0.24754978  0.99677891  1
  O  O244  1  0.13948058  0.75022753  0.50002821  1
  O  O245  1  0.13039813  0.74548922  0.99481903  1
  O  O246  1  0.63608033  0.25061728  0.48841699  1
  O  O247  1  0.63986653  0.23474366  1.00347978  1
  O  O248  1  0.62979089  0.74600099  0.49571988  1
  O  O249  1  0.63592301  0.74728424  0.99938014  1
  O  O250  1  0.47933283  0.25437189  0.11240704  1
  O  O251  1  0.51303444  0.23584912  0.61985156  1
  O  O252  1  0.49405551  0.74567492  0.13149313  1
  O  O253  1  0.49809414  0.74947432  0.63777191  1
  O  O254  1  1.00033881  0.23988336  0.13034546  1
  O  O255  1  0.98590343  0.24898494  0.62544102  1
  O  O256  1  0.99487507  0.74507642  0.12931814  1
  O  O257  1  0.99474996  0.74318657  0.62724882  1
  O  O258  1  0.00556875  0.25421768  0.37057307  1
  O  O259  1  0.00035320  0.26186957  0.87339736  1
  O  O260  1  0.00129697  0.75684650  0.36920021  1
  O  O261  1  0.00741906  0.75612924  0.87359380  1
  O  O262  1  0.51311245  0.25545346  0.38314814  1
  O  O263  1  0.50926750  0.26128533  0.91350108  1
  O  O264  1  0.50496360  0.75683051  0.37078838  1
  O  O265  1  0.50118955  0.75545538  0.86581294  1
  O  O266  1  0.24772016  0.13163680  0.49810498  1
  O  O267  1  0.24856963  0.13390346  0.98800307  1
  O  O268  1  0.25246134  0.63545371  0.49587601  1
  O  O269  1  0.24327607  0.63073640  0.99488950  1
  O  O270  1  0.74670339  0.13550038  0.49333213  1
  O  O271  1  0.74548348  0.12668992  0.99527443  1
  O  O272  1  0.74332221  0.63265857  0.49703509  1
  O  O273  1  0.75197195  0.63158419  0.99205415  1
  O  O274  1  0.24991011  0.36982460  0.00541029  1
  O  O275  1  0.25719807  0.37234074  0.50300995  1
  O  O276  1  0.25532717  0.86931604  0.00693206  1
  O  O277  1  0.25612573  0.86910168  0.50864688  1
  O  O278  1  0.75424708  0.36582880  0.00059773  1
  O  O279  1  0.75211098  0.36380611  0.50316872  1
  O  O280  1  0.75660645  0.86269052  -0.00043759  1
  O  O281  1  0.75752803  0.86913399  0.50846835  1
  O  O282  1  0.13247064  0.49777414  0.24552657  1
  O  O283  1  0.12923570  0.49522041  0.74440029  1
  O  O284  1  0.13365308  0.99533753  0.24574156  1
  O  O285  1  0.12297786  0.98886366  0.74256825  1
  O  O286  1  0.62461983  0.48830694  0.24249493  1
  O  O287  1  0.63835255  0.50423181  0.74117987  1
  O  O288  1  0.62697382  0.99295814  0.24247127  1
  O  O289  1  0.61940262  0.98682326  0.74202194  1
  O  O290  1  0.36931682  -0.00087399  0.25997643  1
  O  O291  1  0.37858470  0.00333976  0.76434082  1
  O  O292  1  0.36926258  0.50543986  0.25390154  1
  O  O293  1  0.36649837  0.50707576  0.75491229  1
  O  O294  1  0.87375813  0.00546215  0.25803654  1
  O  O295  1  0.88015592  0.00545985  0.76020968  1
  O  O296  1  0.87366385  0.49929827  0.25952960  1
  O  O297  1  0.86423395  0.51409578  0.74195422  1
  O  O298  1  0.11836916  0.36830115  0.37365163  1
  O  O299  1  0.11331519  0.37388403  0.86812230  1
  O  O300  1  0.12006487  0.87453962  0.36970526  1
  O  O301  1  0.12383895  0.87236099  0.86914712  1
  O  O302  1  0.62004464  0.36737197  0.36471561  1
  O  O303  1  0.61800857  0.37004491  0.87012236  1
  O  O304  1  0.61999803  0.86991365  0.37246074  1
  O  O305  1  0.62034835  0.87435181  0.86707365  1
  O  O306  1  0.37093558  0.14100205  0.12040738  1
  O  O307  1  0.38735134  0.11956999  0.64053489  1
  O  O308  1  0.37842509  0.63234582  0.13112802  1
  O  O309  1  0.37773247  0.62749193  0.63394335  1
  O  O310  1  0.88572816  0.12287767  0.13038192  1
  O  O311  1  0.87191083  0.12975594  0.63190084  1
  O  O312  1  0.88225267  0.63150983  0.12495588  1
  O  O313  1  0.87966248  0.63076744  0.63179554  1
  O  O314  1  0.25379635  0.25705447  0.11686368  1
  O  O315  1  0.24549516  0.26114560  0.61616564  1
  O  O316  1  0.25553788  0.75622173  0.12083117  1
  O  O317  1  0.25208967  0.76149088  0.61773732  1
  O  O318  1  0.75234939  0.25427948  0.11475991  1
  O  O319  1  0.75676792  0.25334055  0.61416789  1
  O  O320  1  0.75567703  0.74825110  0.11455323  1
  O  O321  1  0.75662333  0.75617457  0.61951763  1
  O  O322  1  0.24530142  0.24539427  0.38217357  1
  O  O323  1  0.24800736  0.24217271  0.88300401  1
  O  O324  1  0.25173541  0.74644875  0.38542422  1
  O  O325  1  0.24465820  0.74532157  0.88174608  1
  O  O326  1  0.74305805  0.24584316  0.38036196  1
  O  O327  1  0.75566799  0.23104215  0.89000394  1
  O  O328  1  0.74317919  0.75013353  0.38305053  1
  O  O329  1  0.74949960  0.74061510  0.88532728  1
  O  O330  1  0.00077448  0.12508622  0.01045168  1
  O  O331  1  0.01128135  0.12300801  0.50548319  1
  O  O332  1  0.00142961  0.61763342  0.00246020  1
  O  O333  1  0.00176996  0.61877535  0.50699345  1
  O  O334  1  0.51429589  0.12236029  0.00709486  1
  O  O335  1  0.50195195  0.11765701  0.51293380  1
  O  O336  1  0.49761447  0.61753990  0.00624236  1
  O  O337  1  0.50587049  0.61905093  0.49950955  1
  O  O338  1  0.49250374  0.38100784  0.49298224  1
  O  O339  1  0.48705845  0.39481110  1.00536962  1
  O  O340  1  0.49593077  0.87955831  0.49760955  1
  O  O341  1  0.49290147  0.87347845  0.99334067  1
  O  O342  1  0.99776203  0.38143772  0.49189661  1
  O  O343  1  0.99296913  0.38042807  0.99445591  1
  O  O344  1  0.99479524  0.87571616  0.49504804  1
  O  O345  1  0.99366448  0.87537350  0.99290782  1
  O  O346  1  0.49424187  0.49263768  0.37868319  1
  O  O347  1  0.49141669  0.50667527  0.88565140  1
  O  O348  1  0.49721985  0.99501111  0.38387087  1
  O  O349  1  0.49060751  0.99314724  0.87961076  1
  O  O350  1  0.99319502  0.49485734  0.37846516  1
  O  O351  1  1.00177872  0.48943900  0.88615798  1
  O  O352  1  0.99449624  0.99333503  0.37730893  1
  O  O353  1  0.99073627  0.99335535  0.87689708  1
  O  O354  1  0.00626907  0.00976508  0.12620569  1
  O  O355  1  0.01565215  0.00111376  0.62361820  1
  O  O356  1  0.00022270  0.50455941  0.11383427  1
  O  O357  1  0.00345124  0.50444421  0.61913226  1
  O  O358  1  0.51435705  -0.00110364  0.12174785  1
  O  O359  1  0.51204027  0.00440009  0.62222722  1
  O  O360  1  0.50085413  0.50689276  0.11721445  1
  O  O361  1  0.50809763  0.50281477  0.61485922  1
  O  O362  1  0.24835169  0.38138709  0.24035059  1
  O  O363  1  0.24363510  0.38213050  0.74473701  1
  O  O364  1  0.24645685  0.88110924  0.24572833  1
  O  O365  1  0.24178965  0.86926209  0.74128099  1
  O  O366  1  0.73835403  0.37523892  0.24060116  1
  O  O367  1  0.75784274  0.39177847  0.74152401  1
  O  O368  1  0.74178191  0.87582520  0.24869368  1
  O  O369  1  0.73833890  0.86555402  0.74584272  1
  O  O370  1  0.25609668  0.11974853  0.25909189  1
  O  O371  1  0.26267405  0.13402099  0.76171130  1
  O  O372  1  0.25577309  0.62147547  0.25423379  1
  O  O373  1  0.25338605  0.62166939  0.75535395  1
  O  O374  1  0.75811351  0.12312967  0.25659992  1
  O  O375  1  0.76183365  0.12454882  0.76178659  1
  O  O376  1  0.75351450  0.61873945  0.25335293  1
  O  O377  1  0.75628573  0.62022434  0.75555171  1
  O  O378  1  0.36987442  0.11978072  0.37917717  1
  O  O379  1  0.37082620  0.11852068  0.86918187  1
  O  O380  1  0.37023930  0.61976995  0.36885011  1
  O  O381  1  0.36618994  0.62140335  0.86953755  1
  O  O382  1  0.87122914  0.11955794  0.37059732  1
  O  O383  1  0.87000003  0.11550170  0.86938371  1
  O  O384  1  0.87443133  0.61253291  0.37281453  1
  O  O385  1  0.86466980  0.63105764  0.86375953  1
  O  O386  1  0.13589269  0.37487061  0.12481472  1
  O  O387  1  0.12893945  0.38248354  0.62983713  1
  O  O388  1  0.13147286  0.88097599  0.13159613  1
  O  O389  1  0.13339810  0.88150945  0.63238705  1
  O  O390  1  0.62740652  0.37806536  0.13017701  1
  O  O391  1  0.63393558  0.38344499  0.62460291  1
  O  O392  1  0.62680212  0.88119837  0.13157796  1
  O  O393  1  0.63115322  0.88092951  0.63321534  1
  O  O394  1  0.11940020  0.25105547  0.25839276  1
  O  O395  1  0.11917817  0.25971683  0.74955746  1
  O  O396  1  0.11897348  0.75819276  0.25137728  1
  O  O397  1  0.12471178  0.76092833  0.75674294  1
  O  O398  1  0.62999026  0.25794947  0.25825946  1
  O  O399  1  0.66301227  0.26098309  0.76165684  1
  O  O400  1  0.61851902  0.75443320  0.25565936  1
  O  O401  1  0.61664327  0.75838005  0.75055564  1
  O  O402  1  0.36729806  0.25267229  0.23220276  1
  O  O403  1  0.38055801  0.24326539  0.76076810  1
  O  O404  1  0.38063151  0.74634636  0.24607477  1
  O  O405  1  0.38470034  0.74557284  0.75064134  1
  O  O406  1  0.88214480  0.24225190  0.24768420  1
  O  O407  1  0.86910039  0.24010431  0.73824803  1
  O  O408  1  0.88232944  0.74993577  0.24321144  1
  O  O409  1  0.87624447  0.73887985  0.74334666  1
  O  O410  1  0.37961596  0.49273352  0.49178485  1
  O  O411  1  0.37782242  0.49964129  0.99432836  1
  O  O412  1  0.38141135  0.99558541  0.49736571  1
  O  O413  1  0.37628927  0.99417604  0.99116144  1
  O  O414  1  0.88106111  0.49780605  0.49018276  1
  O  O415  1  0.88400168  0.49052278  1.00314441  1
  O  O416  1  0.87782326  0.99318249  0.49529983  1
  O  O417  1  0.87724865  0.99220167  0.98890196  1
  O  O418  1  0.12184462  0.00239088  0.00958533  1
  O  O419  1  0.12671667  0.00633091  0.51103337  1
  O  O420  1  0.11250275  0.50652909  0.00151241  1
  O  O421  1  0.11868838  0.50234281  0.50664740  1
  O  O422  1  0.62665469  0.00586096  0.00788120  1
  O  O423  1  0.61986715  0.00010284  0.51139027  1
  O  O424  1  0.61304740  0.50135990  0.00471646  1
  O  O425  1  0.62067464  0.50441888  0.50183679  1
  O  O426  1  0.36196592  0.36801022  0.11902296  1
  O  O427  1  0.36727329  0.38547030  0.60999996  1
  O  O428  1  0.37053123  0.87120244  0.12143657  1
  O  O429  1  0.36747698  0.87732293  0.62263464  1
  O  O430  1  0.86691999  0.37257559  0.11210393  1
  O  O431  1  0.86874979  0.36431255  0.62175047  1
  O  O432  1  0.87442638  0.86849355  0.11792523  1
  O  O433  1  0.87248981  0.87068602  0.62298775  1
  O  O434  1  0.13275658  0.12971878  0.38236200  1
  O  O435  1  0.13437689  0.12477261  0.87212499  1
  O  O436  1  0.13440421  0.62866798  0.37883545  1
  O  O437  1  0.12868696  0.63052048  0.87945511  1
  O  O438  1  0.63039671  0.13355385  0.37494067  1
  O  O439  1  0.63403398  0.11992499  0.88362357  1
  O  O440  1  0.62446423  0.63184739  0.38051735  1
  O  O441  1  0.63816638  0.62826323  0.87712194  1
