# generated using pymatgen
data_V93Zn93O256
_symmetry_space_group_name_H-M   'P 1'
_cell_length_a   17.05353328
_cell_length_b   17.05646802
_cell_length_c   17.05425033
_cell_angle_alpha   89.97241395
_cell_angle_beta   90.01864785
_cell_angle_gamma   89.99212816
_symmetry_Int_Tables_number   1
_chemical_formula_structural   V93Zn93O256
_chemical_formula_sum   'V93 Zn93 O256'
_cell_volume   4960.62083897
_cell_formula_units_Z   1
loop_
 _symmetry_equiv_pos_site_id
 _symmetry_equiv_pos_as_xyz
  1  'x, y, z'
loop_
 _atom_site_type_symbol
 _atom_site_label
 _atom_site_symmetry_multiplicity
 _atom_site_fract_x
 _atom_site_fract_y
 _atom_site_fract_z
 _atom_site_occupancy
  V  V0  1  0.00432010  0.75684813  0.74942830  1
  V  V1  1  0.24900152  0.37445013  0.12487892  1
  V  V2  1  0.62383374  0.87636338  0.25004970  1
  V  V3  1  0.87312405  0.75478250  0.61404291  1
  V  V4  1  0.62171426  0.00340907  0.12393470  1
  V  V5  1  -0.00291663  0.12578711  0.12403602  1
  V  V6  1  0.75225219  0.62674879  0.87428453  1
  V  V7  1  0.24247917  0.87424259  0.63034228  1
  V  V8  1  0.37461581  0.12480079  0.24924889  1
  V  V9  1  0.24957328  0.24800155  0.50022997  1
  V  V10  1  0.37597693  0.62546074  0.24991092  1
  V  V11  1  0.24967688  0.74847096  0.49996164  1
  V  V12  1  0.62593798  0.75128316  0.87476648  1
  V  V13  1  0.62690460  0.49882067  0.62637444  1
  V  V14  1  0.62469013  0.13013576  -0.00470133  1
  V  V15  1  0.87819290  0.12904812  0.75002543  1
  V  V16  1  0.49915918  0.75013953  0.25041079  1
  V  V17  1  0.50161395  0.49936013  0.50148379  1
  V  V18  1  0.12377547  0.12261144  0.50127849  1
  V  V19  1  0.37427196  0.87472882  0.00165078  1
  V  V20  1  0.87741348  0.62729101  0.74934036  1
  V  V21  1  -0.00484119  -0.00316917  0.50114014  1
  V  V22  1  0.37654939  0.74885673  0.62478738  1
  V  V23  1  0.74989981  0.75278076  -0.00057721  1
  V  V24  1  0.12245670  0.12524252  0.00029132  1
  V  V25  1  0.87480315  0.00239691  0.87498471  1
  V  V26  1  0.50111499  0.37334460  0.37730000  1
  V  V27  1  -0.00209428  0.75062752  0.24886694  1
  V  V28  1  0.12481366  0.75368779  0.87193660  1
  V  V29  1  0.12525456  0.62611011  0.00014231  1
  V  V30  1  0.24961630  0.12304273  0.87447162  1
  V  V31  1  0.74870141  0.00564962  0.25230445  1
  V  V32  1  -0.00177386  0.00171829  0.00067622  1
  V  V33  1  0.37464660  0.87351007  0.49967226  1
  V  V34  1  -0.00152270  0.25026204  0.24945239  1
  V  V35  1  0.62569801  0.50102944  0.12795651  1
  V  V36  1  0.87668644  0.24932546  0.62503760  1
  V  V37  1  0.63378129  0.75030042  0.37832861  1
  V  V38  1  0.00067408  0.12868363  0.62821450  1
  V  V39  1  0.63404392  0.62846904  0.49918247  1
  V  V40  1  0.24882716  0.62518976  0.87440404  1
  V  V41  1  0.25183469  0.37263924  0.62808546  1
  V  V42  1  0.25184779  0.49848075  0.75160508  1
  V  V43  1  0.12465233  0.37467990  0.25005113  1
  V  V44  1  0.24778241  -0.00090230  0.25035836  1
  V  V45  1  0.25033142  0.75106698  -0.00004563  1
  V  V46  1  0.37630496  0.37412062  0.50191082  1
  V  V47  1  0.62764228  0.87503129  0.74922311  1
  V  V48  1  -0.00144447  0.62656953  0.12511650  1
  V  V49  1  0.00119259  0.37402170  0.87017449  1
  V  V50  1  0.12353421  0.87638062  0.24962399  1
  V  V51  1  0.87746540  0.37535987  -0.00116583  1
  V  V52  1  0.87641721  0.37553117  0.49983394  1
  V  V53  1  0.37615575  0.49914651  0.37554335  1
  V  V54  1  0.00132238  0.49792854  0.50071881  1
  V  V55  1  0.25080260  0.49962360  0.25092232  1
  V  V56  1  0.37307528  0.12004655  0.74828686  1
  V  V57  1  0.87183060  0.25160254  0.12296711  1
  V  V58  1  0.00324355  0.87684955  0.87338260  1
  V  V59  1  0.12673532  0.49818192  0.62536731  1
  V  V60  1  -0.00040120  0.37502434  0.37597464  1
  V  V61  1  0.50051733  0.24995507  0.25075163  1
  V  V62  1  0.86975901  0.12697815  0.25134209  1
  V  V63  1  0.50165518  0.74814843  0.74901756  1
  V  V64  1  0.37791898  0.24608945  0.62526343  1
  V  V65  1  0.24805494  0.12403538  0.37519853  1
  V  V66  1  0.49974011  0.87465240  0.87458032  1
  V  V67  1  0.50132062  0.62451509  0.62482177  1
  V  V68  1  0.87368177  0.87686290  -0.00061420  1
  V  V69  1  0.75156402  0.50081366  0.74883833  1
  V  V70  1  0.50057543  0.12239978  0.62418721  1
  V  V71  1  0.37650916  0.49970553  0.87656262  1
  V  V72  1  0.74865726  0.87688625  0.12315880  1
  V  V73  1  0.12339989  0.25064493  0.86994576  1
  V  V74  1  0.75060217  0.37545332  0.62488950  1
  V  V75  1  0.87016783  0.00511961  0.37559991  1
  V  V76  1  0.74589154  0.13029286  0.87378858  1
  V  V77  1  0.74976802  0.37566822  0.12652543  1
  V  V78  1  0.49939048  0.50101626  -0.00091554  1
  V  V79  1  0.12669871  0.62318659  0.49897120  1
  V  V80  1  0.37300397  -0.00164004  0.87391522  1
  V  V81  1  0.62977835  0.24377744  0.37645125  1
  V  V82  1  0.12408011  0.24927910  0.37502470  1
  V  V83  1  0.75124689  0.24253895  0.49646111  1
  V  V84  1  0.49935529  0.87501994  0.37591920  1
  V  V85  1  0.12485299  0.50123095  0.12525130  1
  V  V86  1  -0.00606016  0.87544419  0.37825914  1
  V  V87  1  0.62530504  -0.00288217  0.62441602  1
  V  V88  1  0.12658187  0.37347347  0.75088031  1
  V  V89  1  0.49942667  -0.00153089  0.50008386  1
  V  V90  1  0.62622191  0.62690237  0.00055723  1
  V  V91  1  0.75336468  0.87109393  0.61142300  1
  V  V92  1  0.25182659  0.25043182  0.00212560  1
  Zn  Zn93  1  0.00063556  0.62706924  0.62481833  1
  Zn  Zn94  1  0.50068758  0.62750889  0.12541333  1
  Zn  Zn95  1  0.00140269  0.50190874  -0.00151859  1
  Zn  Zn96  1  0.87800338  0.50049647  0.87440545  1
  Zn  Zn97  1  0.37447814  -0.00160552  0.37586212  1
  Zn  Zn98  1  0.75421156  0.62432557  0.37397066  1
  Zn  Zn99  1  0.37612525  0.62363709  0.74929443  1
  Zn  Zn100  1  0.37720934  0.37469546  0.00356617  1
  Zn  Zn101  1  0.12486420  0.74878547  0.37565707  1
  Zn  Zn102  1  0.37453880  0.75074854  0.12616381  1
  Zn  Zn103  1  0.49839015  0.00161371  -0.00122782  1
  Zn  Zn104  1  0.12003144  -0.00682578  0.63340686  1
  Zn  Zn105  1  0.24902594  0.87380086  0.12597259  1
  Zn  Zn106  1  0.51455075  0.36439393  0.87902379  1
  Zn  Zn107  1  0.25008114  0.62561715  0.37456557  1
  Zn  Zn108  1  0.87165934  0.62375095  0.25193753  1
  Zn  Zn109  1  0.51012165  0.24785250  0.76152444  1
  Zn  Zn110  1  0.75253890  0.50372763  0.25402519  1
  Zn  Zn111  1  0.49859724  0.12822010  0.12091814  1
  Zn  Zn112  1  0.37441269  0.25209413  0.12725455  1
  Zn  Zn113  1  0.72437019  0.27174930  -0.02278685  1
  Zn  Zn114  1  0.62668490  0.37603720  0.25341558  1
  Zn  Zn115  1  0.24003706  -0.00833497  0.75343886  1
  Zn  Zn116  1  0.75147797  -0.00106429  0.74732310  1
  Zn  Zn117  1  0.62841391  0.12084393  0.49826227  1
  Zn  Zn118  1  0.87233479  0.50249400  0.37397760  1
  Zn  Zn119  1  0.87188127  0.75066705  0.12457802  1
  Zn  Zn120  1  0.12269911  0.00078377  0.12427106  1
  Zn  Zn121  1  0.63129964  0.36433440  0.76293377  1
  Zn  Zn122  1  0.18476834  0.18645670  0.18664385  1
  Zn  Zn123  1  0.18835526  0.18303582  0.68844019  1
  Zn  Zn124  1  0.18836440  0.68907077  0.18677454  1
  Zn  Zn125  1  0.18851671  0.68631975  0.68670901  1
  Zn  Zn126  1  0.68742382  0.18969488  0.18473252  1
  Zn  Zn127  1  0.68936968  0.18467688  0.68567189  1
  Zn  Zn128  1  0.68764523  0.68818511  0.18929414  1
  Zn  Zn129  1  0.69043670  0.68891481  0.68501384  1
  Zn  Zn130  1  0.31268778  0.31230836  0.31376456  1
  Zn  Zn131  1  0.33598665  0.30162662  0.82454869  1
  Zn  Zn132  1  0.31121052  0.81054098  0.31594243  1
  Zn  Zn133  1  0.31422908  0.80983364  0.81142897  1
  Zn  Zn134  1  0.81244060  0.31587712  0.31291804  1
  Zn  Zn135  1  0.81494635  0.31244306  0.80902551  1
  Zn  Zn136  1  0.81297107  0.81753223  0.31047186  1
  Zn  Zn137  1  0.81411608  0.81487184  0.80812621  1
  Zn  Zn138  1  0.18941028  0.43600503  0.43747101  1
  Zn  Zn139  1  0.18852073  0.43820669  0.93883336  1
  Zn  Zn140  1  0.18420341  0.93581466  0.44013451  1
  Zn  Zn141  1  0.18565994  0.93748044  0.93744771  1
  Zn  Zn142  1  0.68886289  0.43575228  0.43838401  1
  Zn  Zn143  1  0.68773553  0.44439299  0.93496850  1
  Zn  Zn144  1  0.68672323  0.93747922  0.43675799  1
  Zn  Zn145  1  0.68754199  0.94275146  0.93571623  1
  Zn  Zn146  1  0.31047010  0.06136636  0.06349858  1
  Zn  Zn147  1  0.31106464  0.05669586  0.56314046  1
  Zn  Zn148  1  0.31150132  0.56394591  0.06388023  1
  Zn  Zn149  1  0.31354236  0.56196746  0.56379195  1
  Zn  Zn150  1  0.80801489  0.06585239  0.06104214  1
  Zn  Zn151  1  0.81280076  0.05877790  0.56406872  1
  Zn  Zn152  1  0.81383074  0.56201619  0.06258052  1
  Zn  Zn153  1  0.81577698  0.56322994  0.56338977  1
  Zn  Zn154  1  0.43768901  0.43669715  0.18701812  1
  Zn  Zn155  1  0.44301649  0.43403746  0.69310374  1
  Zn  Zn156  1  0.43689444  0.93805511  0.18804300  1
  Zn  Zn157  1  0.43472462  0.93547080  0.68751167  1
  Zn  Zn158  1  0.93676331  0.44029450  0.18905006  1
  Zn  Zn159  1  0.93930626  0.43757202  0.68681941  1
  Zn  Zn160  1  0.93433767  0.93962703  0.18708271  1
  Zn  Zn161  1  0.93420261  0.93802377  0.68740635  1
  Zn  Zn162  1  0.05896714  0.06307021  0.31262890  1
  Zn  Zn163  1  0.06299405  0.06173525  0.81168345  1
  Zn  Zn164  1  0.06085986  0.56106241  0.31343357  1
  Zn  Zn165  1  0.06261252  0.56248149  0.81232134  1
  Zn  Zn166  1  0.56135646  0.06338569  0.31384709  1
  Zn  Zn167  1  0.56048181  0.06115806  0.81022245  1
  Zn  Zn168  1  0.56322268  0.56421435  0.31456754  1
  Zn  Zn169  1  0.56497486  0.56090055  0.81173742  1
  Zn  Zn170  1  0.43833430  0.18461662  0.43733554  1
  Zn  Zn171  1  0.43853676  0.18379936  0.93717137  1
  Zn  Zn172  1  0.44139870  0.68741108  0.43725716  1
  Zn  Zn173  1  0.43778801  0.68663147  0.93731264  1
  Zn  Zn174  1  0.93713628  0.18597726  0.43829694  1
  Zn  Zn175  1  0.93597491  0.19085873  0.93646861  1
  Zn  Zn176  1  0.94035827  0.68377684  0.43498203  1
  Zn  Zn177  1  0.93768119  0.69097496  0.93748157  1
  Zn  Zn178  1  0.06185815  0.31269331  0.06067278  1
  Zn  Zn179  1  0.06363206  0.31114274  0.56339496  1
  Zn  Zn180  1  0.06291514  0.81361932  0.06105333  1
  Zn  Zn181  1  0.06069554  0.80949942  0.56217828  1
  Zn  Zn182  1  0.55931013  0.31586418  0.06480881  1
  Zn  Zn183  1  0.56679707  0.31038963  0.56751466  1
  Zn  Zn184  1  0.55990877  0.81315195  0.06362096  1
  Zn  Zn185  1  0.56450695  0.81213561  0.56215688  1
  O  O186  1  0.11523458  0.12475474  0.11829764  1
  O  O187  1  0.11490972  0.12610717  0.61890237  1
  O  O188  1  0.11751302  0.62169664  0.12052134  1
  O  O189  1  0.12581179  0.61699256  0.61492273  1
  O  O190  1  0.62498526  0.11686551  0.11662828  1
  O  O191  1  0.61845328  0.11399880  0.62150501  1
  O  O192  1  0.62458142  0.61610420  0.11882653  1
  O  O193  1  0.62129349  0.62096482  0.61736606  1
  O  O194  1  0.38064898  0.37875197  0.38234168  1
  O  O195  1  0.36724762  0.39540806  0.88364478  1
  O  O196  1  0.38172607  0.87492483  0.38175140  1
  O  O197  1  0.37912067  0.87798821  0.88325534  1
  O  O198  1  0.88389255  0.37432316  0.38282641  1
  O  O199  1  0.88463433  0.37329832  0.88096392  1
  O  O200  1  0.88742264  0.88752425  0.36658877  1
  O  O201  1  0.88048769  0.88229242  0.88022191  1
  O  O202  1  0.24850989  0.00492883  0.36511277  1
  O  O203  1  0.25521192  0.00566477  0.87571861  1
  O  O204  1  0.25843309  0.49941477  0.36859369  1
  O  O205  1  0.25576286  0.50684413  0.87202919  1
  O  O206  1  0.76209520  -0.00730064  0.36917729  1
  O  O207  1  0.75769346  0.01207644  0.87325778  1
  O  O208  1  0.75155579  0.50157855  0.37258356  1
  O  O209  1  0.75585226  0.51025443  0.86776685  1
  O  O210  1  0.24405103  0.49498001  0.13138517  1
  O  O211  1  0.24693087  0.49212966  0.63079192  1
  O  O212  1  0.24567053  0.99823336  0.13909620  1
  O  O213  1  0.24637588  0.98704744  0.62558087  1
  O  O214  1  0.74043086  0.49221373  0.12241847  1
  O  O215  1  0.74721308  0.49554988  0.62963299  1
  O  O216  1  0.73906837  0.99667248  0.12970248  1
  O  O217  1  0.74464996  0.99016366  0.62562704  1
  O  O218  1  0.00615416  0.36899194  0.25465256  1
  O  O219  1  0.00834634  0.37943597  0.76166935  1
  O  O220  1  0.00576653  0.87074565  0.25525695  1
  O  O221  1  -0.00797465  0.86387487  0.75742328  1
  O  O222  1  0.49938802  0.36411700  0.25696589  1
  O  O223  1  0.50924774  0.37239918  0.75775438  1
  O  O224  1  0.50457265  0.87096008  0.25566093  1
  O  O225  1  0.50606033  0.86743696  0.75469787  1
  O  O226  1  0.49064565  0.13338625  0.25114575  1
  O  O227  1  0.49042310  0.12583527  0.74181728  1
  O  O228  1  0.49107530  0.63033456  0.25036958  1
  O  O229  1  0.50152317  0.63080302  0.74261137  1
  O  O230  1  0.99229846  0.13151551  0.24391281  1
  O  O231  1  0.99023620  0.12049624  0.73853087  1
  O  O232  1  1.00459374  0.63593303  0.24159119  1
  O  O233  1  0.99166566  0.63339675  0.74941576  1
  O  O234  1  0.36030609  0.24828470  0.00473922  1
  O  O235  1  0.36890435  0.25295073  0.50592573  1
  O  O236  1  0.36970164  0.75908138  -0.00068556  1
  O  O237  1  0.37073118  0.75314978  0.50504208  1
  O  O238  1  0.87637287  0.26427597  0.00553623  1
  O  O239  1  0.86921183  0.25468180  0.50345643  1
  O  O240  1  0.86750906  0.75897736  0.00063076  1
  O  O241  1  0.88614372  0.74409635  0.51647925  1
  O  O242  1  0.13063976  0.24368238  0.49436488  1
  O  O243  1  0.13351473  0.24606529  0.99183133  1
  O  O244  1  0.12920257  0.73783965  0.50001035  1
  O  O245  1  0.13063108  0.74533199  0.99377182  1
  O  O246  1  0.63450927  0.24818781  0.49359670  1
  O  O247  1  0.61951226  0.23598486  1.00658420  1
  O  O248  1  0.61759596  0.73989115  0.48955831  1
  O  O249  1  0.62971198  0.74677699  0.99443701  1
  O  O250  1  0.49739435  0.24930483  0.13841565  1
  O  O251  1  0.48681161  0.24141434  0.61731466  1
  O  O252  1  0.49689080  0.74802566  0.13428526  1
  O  O253  1  0.49628163  0.74447089  0.62950225  1
  O  O254  1  0.99330969  0.24628739  0.13015789  1
  O  O255  1  0.99281224  0.23616227  0.61594758  1
  O  O256  1  1.00088214  0.74313089  0.13235773  1
  O  O257  1  0.99297319  0.75057993  0.63511883  1
  O  O258  1  0.00529977  0.25443280  0.36968263  1
  O  O259  1  0.01343286  0.26086026  0.88179814  1
  O  O260  1  0.00137630  0.75958547  0.36645296  1
  O  O261  1  0.00471901  0.75628830  0.86789355  1
  O  O262  1  0.50655926  0.25368005  0.36916138  1
  O  O263  1  0.45559382  0.26435645  0.86322264  1
  O  O264  1  0.50867794  0.75634901  0.36889714  1
  O  O265  1  0.50667608  0.75443562  0.86985546  1
  O  O266  1  0.24451560  0.12786764  0.49479057  1
  O  O267  1  0.24327807  0.13147790  0.99611953  1
  O  O268  1  0.24224678  0.62830627  0.49972291  1
  O  O269  1  0.24475078  0.63121523  0.99477968  1
  O  O270  1  0.75170978  0.13917563  0.50468570  1
  O  O271  1  0.74039249  0.12782315  0.98996948  1
  O  O272  1  0.73616217  0.62128224  0.50054950  1
  O  O273  1  0.74663496  0.63192234  0.99485348  1
  O  O274  1  0.24863831  0.36525605  0.00648289  1
  O  O275  1  0.25630449  0.36844314  0.50704444  1
  O  O276  1  0.25911319  0.87018054  0.00019760  1
  O  O277  1  0.25502362  0.86798839  0.50549929  1
  O  O278  1  0.75917028  0.37776180  0.00731742  1
  O  O279  1  0.75800914  0.36608021  0.50624840  1
  O  O280  1  0.75360644  0.87225720  0.00310504  1
  O  O281  1  0.74598822  0.87552551  0.51238564  1
  O  O282  1  0.13050547  0.49409663  0.24551444  1
  O  O283  1  0.13194382  0.49405424  0.74512115  1
  O  O284  1  0.13042401  0.99360168  0.25025982  1
  O  O285  1  0.12741174  1.00194341  0.74612540  1
  O  O286  1  0.62183682  0.49774765  0.23729299  1
  O  O287  1  0.63619186  0.50248305  0.74215372  1
  O  O288  1  0.62838629  0.99732440  0.24357886  1
  O  O289  1  0.62491937  0.99201089  0.74155194  1
  O  O290  1  0.36596678  0.00716639  0.25220306  1
  O  O291  1  0.37006510  0.00329494  0.75667868  1
  O  O292  1  0.37181953  0.50636671  0.25555674  1
  O  O293  1  0.37039388  0.50144403  0.75953735  1
  O  O294  1  0.86911546  0.00697049  0.25645419  1
  O  O295  1  0.87501755  0.01209334  0.75668407  1
  O  O296  1  0.87313405  0.50427870  0.25387114  1
  O  O297  1  0.87176999  0.51209193  0.74868131  1
  O  O298  1  0.12070313  0.36819982  0.36994749  1
  O  O299  1  0.12049770  0.36895248  0.87164180  1
  O  O300  1  0.11316789  0.87596809  0.36449847  1
  O  O301  1  0.11572791  0.86608918  0.88188184  1
  O  O302  1  0.61790215  0.36355527  0.37475834  1
  O  O303  1  0.62983368  0.36825844  0.87988940  1
  O  O304  1  0.61927827  0.86884293  0.36952399  1
  O  O305  1  0.62019236  0.87082491  0.87057675  1
  O  O306  1  0.37519730  0.12648891  0.13830050  1
  O  O307  1  0.37864152  0.12849718  0.62739163  1
  O  O308  1  0.37706212  0.62497007  0.13915573  1
  O  O309  1  0.38304505  0.63070692  0.62553243  1
  O  O310  1  0.87791879  0.13215830  0.12909533  1
  O  O311  1  0.88170521  0.12798738  0.63147678  1
  O  O312  1  0.88822932  0.62846703  0.12463540  1
  O  O313  1  0.87639412  0.63423583  0.63532548  1
  O  O314  1  0.24662396  0.25509479  0.11682426  1
  O  O315  1  0.25690387  0.25216653  0.61800697  1
  O  O316  1  0.25313566  0.75359815  0.11659939  1
  O  O317  1  0.25611998  0.75431135  0.61932097  1
  O  O318  1  0.75378750  0.26352878  0.12232939  1
  O  O319  1  0.75830491  0.25528174  0.61525185  1
  O  O320  1  0.74824514  0.75930798  0.11743730  1
  O  O321  1  0.76120124  0.75909114  0.63061666  1
  O  O322  1  0.24386957  0.24439686  0.38042219  1
  O  O323  1  0.24518519  0.24492952  0.88487751  1
  O  O324  1  0.24470591  0.74643751  0.38412445  1
  O  O325  1  0.24490849  0.74463523  0.87932509  1
  O  O326  1  0.74109864  0.25800836  0.38417176  1
  O  O327  1  0.75591236  0.23549975  0.87296516  1
  O  O328  1  0.73568495  0.75432025  0.36929750  1
  O  O329  1  0.74499388  0.74661249  0.87957569  1
  O  O330  1  0.00239722  0.12179801  0.00437018  1
  O  O331  1  0.00358819  0.11647642  0.50769341  1
  O  O332  1  0.00595327  0.62703365  0.00907950  1
  O  O333  1  0.01204040  0.61741139  0.50264761  1
  O  O334  1  0.50764657  0.12083125  0.00147835  1
  O  O335  1  0.49969613  0.11571050  0.50623683  1
  O  O336  1  0.50693409  0.61762459  0.00242277  1
  O  O337  1  0.50850950  0.61831150  0.50551004  1
  O  O338  1  0.49500777  0.37939601  0.49737121  1
  O  O339  1  0.49700822  0.38810801  0.99876815  1
  O  O340  1  0.49461239  0.87906373  0.49570024  1
  O  O341  1  0.49008599  0.87590729  0.99359975  1
  O  O342  1  0.99667104  0.37798018  0.49584288  1
  O  O343  1  0.99415652  0.37799094  0.99131430  1
  O  O344  1  1.00635999  0.88431758  0.48861283  1
  O  O345  1  0.99328197  0.88139798  0.99482103  1
  O  O346  1  0.49601482  0.49317858  0.38111179  1
  O  O347  1  0.49275980  0.50409495  0.88553852  1
  O  O348  1  0.49921895  0.99231345  0.38085386  1
  O  O349  1  0.49162241  0.99136100  0.87548865  1
  O  O350  1  1.00162284  0.49069942  0.38342999  1
  O  O351  1  0.99964086  0.48910905  0.87806643  1
  O  O352  1  0.99181702  0.99448713  0.38096314  1
  O  O353  1  0.99380446  0.99719961  0.88206502  1
  O  O354  1  -0.00166225  0.00815924  0.11831730  1
  O  O355  1  -0.00292469  0.00730908  0.61555594  1
  O  O356  1  0.00716567  0.51121893  0.12479207  1
  O  O357  1  0.00974409  0.50048681  0.61891293  1
  O  O358  1  0.51200190  0.00277296  0.12562510  1
  O  O359  1  0.50453106  0.00174550  0.61925978  1
  O  O360  1  0.50858346  0.50022179  0.11627583  1
  O  O361  1  0.50595044  0.50476115  0.62025113  1
  O  O362  1  0.24400045  0.37899461  0.24567807  1
  O  O363  1  0.24601740  0.38012967  0.74544576  1
  O  O364  1  0.24090514  0.88214841  0.25281005  1
  O  O365  1  0.25614643  0.87180155  0.73543446  1
  O  O366  1  0.74802286  0.37793554  0.23687532  1
  O  O367  1  0.75380419  0.38310957  0.74194141  1
  O  O368  1  0.74267981  0.88408828  0.24282345  1
  O  O369  1  0.74271323  0.87818761  0.74369303  1
  O  O370  1  0.25438768  0.11871742  0.25475330  1
  O  O371  1  0.25706477  0.12290548  0.75790548  1
  O  O372  1  0.25803000  0.61878003  0.25173000  1
  O  O373  1  0.25146291  0.61706928  0.75650386  1
  O  O374  1  0.75730613  0.11868243  0.24296712  1
  O  O375  1  0.75973982  0.12094266  0.75594674  1
  O  O376  1  0.75305888  0.62327666  0.25248583  1
  O  O377  1  0.76008222  0.62281462  0.75434746  1
  O  O378  1  0.36759888  0.12313744  0.36439141  1
  O  O379  1  0.36784074  0.11627881  0.86975614  1
  O  O380  1  0.37581317  0.61816503  0.36568891  1
  O  O381  1  0.36849408  0.61564079  0.87436639  1
  O  O382  1  0.88199654  0.11372207  0.36654196  1
  O  O383  1  0.87043306  0.12274368  0.86809550  1
  O  O384  1  0.87219270  0.62277076  0.37214998  1
  O  O385  1  0.87156772  0.62637291  0.86527438  1
  O  O386  1  0.12850601  0.38037294  0.13090239  1
  O  O387  1  0.13181216  0.37707432  0.63081587  1
  O  O388  1  0.12451452  0.87849496  0.13790291  1
  O  O389  1  0.13796629  0.87311482  0.61739400  1
  O  O390  1  0.63377877  0.38410132  0.12374462  1
  O  O391  1  0.63560758  0.38561450  0.61977847  1
  O  O392  1  0.62801492  0.88500165  0.12931465  1
  O  O393  1  0.63275928  0.87706195  0.62995288  1
  O  O394  1  0.11873899  0.25460793  0.25554544  1
  O  O395  1  0.13430978  0.25546186  0.76402963  1
  O  O396  1  0.11599199  0.75918527  0.25151147  1
  O  O397  1  0.11167295  0.74117484  0.75536452  1
  O  O398  1  0.61638729  0.25031963  0.25732856  1
  O  O399  1  0.61860546  0.25438672  0.73196317  1
  O  O400  1  0.61841934  0.75702848  0.25742008  1
  O  O401  1  0.62101278  0.75457434  0.75586761  1
  O  O402  1  0.38215378  0.24139985  0.25201107  1
  O  O403  1  0.36855663  0.24040792  0.73191871  1
  O  O404  1  0.37950893  0.74102606  0.25179672  1
  O  O405  1  0.38425496  0.74616346  0.74353196  1
  O  O406  1  0.87917246  0.24692978  0.24410535  1
  O  O407  1  0.87174411  0.23665814  0.74142112  1
  O  O408  1  0.88881050  0.75301247  0.24617763  1
  O  O409  1  0.88459182  0.74203492  0.74571192  1
  O  O410  1  0.38127779  0.49363980  0.49606554  1
  O  O411  1  0.38447673  0.50443238  0.99534379  1
  O  O412  1  0.38108030  0.99153696  0.49706534  1
  O  O413  1  0.37471282  0.99090764  0.99484034  1
  O  O414  1  0.88432758  0.49271899  0.50191991  1
  O  O415  1  0.87811579  0.48738283  0.99802585  1
  O  O416  1  0.88631481  1.00695281  0.48993110  1
  O  O417  1  0.87871385  0.99718113  0.99480332  1
  O  O418  1  0.11682743  0.00761573  0.00137008  1
  O  O419  1  0.11156304  0.00591203  0.50047655  1
  O  O420  1  0.12538880  0.50811238  0.00753755  1
  O  O421  1  0.12323872  0.50415978  0.50577882  1
  O  O422  1  0.62339617  0.00854721  0.00913156  1
  O  O423  1  0.61777443  0.00010280  0.50535110  1
  O  O424  1  0.61781532  0.50739813  0.00784003  1
  O  O425  1  0.61947209  0.50831820  0.50531218  1
  O  O426  1  0.36514567  0.37269753  0.12330139  1
  O  O427  1  0.37164877  0.36552260  0.62087308  1
  O  O428  1  0.37340803  0.87515126  0.11341985  1
  O  O429  1  0.36831600  0.86700590  0.61762142  1
  O  O430  1  0.86905509  0.37246646  0.11767296  1
  O  O431  1  0.87229170  0.36865335  0.62001224  1
  O  O432  1  0.86635936  0.87619480  0.11760253  1
  O  O433  1  0.86526735  0.86662384  0.63046547  1
  O  O434  1  0.12795620  0.13044267  0.37999500  1
  O  O435  1  0.12799250  0.13455232  0.88083286  1
  O  O436  1  0.12679943  0.62378974  0.38744017  1
  O  O437  1  0.12947985  0.63153970  0.88102261  1
  O  O438  1  0.62093375  0.13923867  0.37805015  1
  O  O439  1  0.63335114  0.11706499  0.88299561  1
  O  O440  1  0.62505640  0.63430671  0.38306346  1
  O  O441  1  0.63209269  0.63147714  0.88068502  1
