# generated using pymatgen
data_V93Zn93O256
_symmetry_space_group_name_H-M   'P 1'
_cell_length_a   17.05220534
_cell_length_b   17.05089093
_cell_length_c   17.05025867
_cell_angle_alpha   90.05453243
_cell_angle_beta   90.03615629
_cell_angle_gamma   89.98681092
_symmetry_Int_Tables_number   1
_chemical_formula_structural   V93Zn93O256
_chemical_formula_sum   'V93 Zn93 O256'
_cell_volume   4957.44960193
_cell_formula_units_Z   1
loop_
 _symmetry_equiv_pos_site_id
 _symmetry_equiv_pos_as_xyz
  1  'x, y, z'
loop_
 _atom_site_type_symbol
 _atom_site_label
 _atom_site_symmetry_multiplicity
 _atom_site_fract_x
 _atom_site_fract_y
 _atom_site_fract_z
 _atom_site_occupancy
  V  V0  1  0.00044925  0.87393579  0.87567231  1
  V  V1  1  0.74277847  0.50040924  0.24556019  1
  V  V2  1  0.49945194  0.12552847  0.12590647  1
  V  V3  1  0.25187654  0.87469898  0.62526160  1
  V  V4  1  0.62466983  -0.00061132  0.12551051  1
  V  V5  1  0.37927899  0.62459962  0.74729144  1
  V  V6  1  0.37409299  0.62381702  0.24876575  1
  V  V7  1  0.62369232  0.25031529  0.37595266  1
  V  V8  1  -0.00008936  0.62623618  0.62477869  1
  V  V9  1  0.87501867  0.00041293  0.37685088  1
  V  V10  1  0.12277764  0.00169422  0.62352921  1
  V  V11  1  0.75033085  0.87463852  0.12581765  1
  V  V12  1  0.74940827  0.74872553  0.00110967  1
  V  V13  1  0.12657988  0.87393998  0.75075092  1
  V  V14  1  0.37174561  0.25661847  0.62326857  1
  V  V15  1  0.50021560  0.50691120  0.50235784  1
  V  V16  1  0.87303334  0.24941545  0.12531569  1
  V  V17  1  0.62536916  0.12613653  0.50125354  1
  V  V18  1  -0.00102657  0.62388958  0.12477004  1
  V  V19  1  0.25121608  -0.00025394  0.75028117  1
  V  V20  1  0.37945701  0.74815128  0.62457649  1
  V  V21  1  0.74993869  0.11997317  0.86864257  1
  V  V22  1  0.12451124  0.49869239  0.12308920  1
  V  V23  1  0.49768543  0.37676576  0.37685841  1
  V  V24  1  0.49940402  0.87630213  0.37613168  1
  V  V25  1  -0.00009114  0.12383361  0.12490580  1
  V  V26  1  0.37528659  0.74807930  0.12373952  1
  V  V27  1  0.88279703  0.12968811  0.75102218  1
  V  V28  1  0.12636520  0.74903249  0.87587687  1
  V  V29  1  0.62821892  0.87808586  0.75212886  1
  V  V30  1  0.37478196  0.00149575  0.37605007  1
  V  V31  1  0.62540980  0.75031246  0.37706347  1
  V  V32  1  0.24935975  0.36775589  0.12029869  1
  V  V33  1  0.62564995  0.74906625  0.87663493  1
  V  V34  1  0.37566222  0.49927822  0.87358767  1
  V  V35  1  0.74937138  0.62434563  0.37775615  1
  V  V36  1  0.87123455  -0.00117025  0.86833282  1
  V  V37  1  0.12226632  0.36972095  0.75048506  1
  V  V38  1  0.00086845  0.00025637  -0.00019864  1
  V  V39  1  0.75233923  0.62264329  0.87475837  1
  V  V40  1  0.62149909  0.50859879  0.62561709  1
  V  V41  1  0.24998727  0.62571448  0.37377878  1
  V  V42  1  0.87591923  0.74945878  0.12600333  1
  V  V43  1  0.12377616  0.37496843  0.24808331  1
  V  V44  1  0.12449549  0.24972850  0.37544516  1
  V  V45  1  0.49964612  0.37401384  0.87570800  1
  V  V46  1  0.87532494  0.37428739  -0.00099123  1
  V  V47  1  0.24978939  0.50011109  0.24963723  1
  V  V48  1  0.87543061  0.87496392  0.00014748  1
  V  V49  1  0.87455933  0.62527981  0.24958921  1
  V  V50  1  -0.00192853  0.37631948  0.37411916  1
  V  V51  1  0.50075462  0.12501202  0.62506287  1
  V  V52  1  -0.00042050  0.49427012  -0.00770686  1
  V  V53  1  0.37475423  0.12468194  0.74956913  1
  V  V54  1  0.88169244  0.25194324  0.62876963  1
  V  V55  1  0.12597237  0.62347839  -0.00092221  1
  V  V56  1  0.75124388  0.87891103  0.62966534  1
  V  V57  1  0.25069865  0.74956254  0.50021932  1
  V  V58  1  0.62585644  0.87628621  0.25210333  1
  V  V59  1  0.00150233  0.74809212  0.75022065  1
  V  V60  1  0.25236800  0.49534604  0.74510875  1
  V  V61  1  0.25069153  0.74874741  -0.00028940  1
  V  V62  1  0.50648941  0.62067858  0.12545723  1
  V  V63  1  0.25135286  0.87440243  0.12442334  1
  V  V64  1  0.74862776  0.12696579  0.37575422  1
  V  V65  1  0.50263488  0.74627793  0.74735119  1
  V  V66  1  0.49901249  -0.00205860  0.00035759  1
  V  V67  1  0.87685003  0.87787803  0.50085302  1
  V  V68  1  -0.00196056  0.25043269  0.25083046  1
  V  V69  1  0.24929090  -0.00016692  0.24985545  1
  V  V70  1  0.62539549  0.12331695  -0.00030069  1
  V  V71  1  0.37614744  -0.00109157  0.87591480  1
  V  V72  1  0.62421329  0.24823336  0.87409739  1
  V  V73  1  0.74957458  0.24913231  0.00007381  1
  V  V74  1  0.24902348  0.13180091  0.87904275  1
  V  V75  1  0.12877819  0.13066033  0.00068075  1
  V  V76  1  0.74183229  0.37880145  0.12490433  1
  V  V77  1  0.62418856  0.37612962  0.74896650  1
  V  V78  1  0.50576003  0.49919891  0.00423441  1
  V  V79  1  0.87407925  0.12517946  0.25078901  1
  V  V80  1  0.25010656  0.25743678  0.50147534  1
  V  V81  1  -0.00307071  0.50026210  0.49819896  1
  V  V82  1  0.62807020  0.00143965  0.62892243  1
  V  V83  1  0.24890228  0.12628353  0.37471023  1
  V  V84  1  0.12352920  0.87383098  0.25107166  1
  V  V85  1  0.37037188  0.36874135  -0.00037908  1
  V  V86  1  0.74876032  0.37527877  0.62254192  1
  V  V87  1  0.87618508  0.75093369  0.62658261  1
  V  V88  1  0.12616979  0.62647242  0.49879913  1
  V  V89  1  0.75000757  0.00119178  0.25033345  1
  V  V90  1  0.49706555  0.25068780  0.24863735  1
  V  V91  1  0.13075989  0.49611456  0.62338259  1
  V  V92  1  0.49940452  0.24987094  0.74906721  1
  Zn  Zn93  1  0.49931032  0.74837623  0.24895771  1
  Zn  Zn94  1  0.75256419  0.50139247  0.74908191  1
  Zn  Zn95  1  0.00085435  0.00490129  0.49903580  1
  Zn  Zn96  1  0.49957543  0.87346361  0.87740215  1
  Zn  Zn97  1  0.87668287  0.62202705  0.75022077  1
  Zn  Zn98  1  0.37096945  0.38034957  0.50418649  1
  Zn  Zn99  1  0.75019559  0.74926546  0.50298800  1
  Zn  Zn100  1  -0.02001379  0.35006575  0.85225542  1
  Zn  Zn101  1  0.62078490  0.37946347  0.24662488  1
  Zn  Zn102  1  0.87442662  0.49644023  0.87048626  1
  Zn  Zn103  1  0.12206242  0.25149390  0.87757948  1
  Zn  Zn104  1  0.00040317  0.87488298  0.37520953  1
  Zn  Zn105  1  0.87248398  0.49885958  0.37429663  1
  Zn  Zn106  1  0.37550119  0.87584379  0.50102334  1
  Zn  Zn107  1  0.00323501  0.13109495  0.62645642  1
  Zn  Zn108  1  0.37017434  0.24589316  0.12028096  1
  Zn  Zn109  1  0.12273088  0.12705913  0.50119384  1
  Zn  Zn110  1  0.37622251  0.87280969  -0.00152232  1
  Zn  Zn111  1  0.00014931  0.74943436  0.25311311  1
  Zn  Zn112  1  0.37270273  0.12590728  0.24729988  1
  Zn  Zn113  1  0.37446099  0.50091834  0.37735853  1
  Zn  Zn114  1  0.75095815  0.25117923  0.49890167  1
  Zn  Zn115  1  0.87383567  0.37227130  0.49853145  1
  Zn  Zn116  1  0.49904069  0.00095761  0.50163212  1
  Zn  Zn117  1  0.12580812  -0.00048887  0.12410910  1
  Zn  Zn118  1  0.12276373  0.75144398  0.37588936  1
  Zn  Zn119  1  0.62776324  0.62089736  0.00425305  1
  Zn  Zn120  1  0.25068994  0.62433703  0.87460424  1
  Zn  Zn121  1  0.62116047  0.62965372  0.50605507  1
  Zn  Zn122  1  0.18471887  0.18574383  0.18876300  1
  Zn  Zn123  1  0.19199191  0.18574646  0.68580472  1
  Zn  Zn124  1  0.18691348  0.68821051  0.18626803  1
  Zn  Zn125  1  0.19039604  0.68431878  0.68681624  1
  Zn  Zn126  1  0.68467820  0.18956632  0.18866913  1
  Zn  Zn127  1  0.69110952  0.18956654  0.68803150  1
  Zn  Zn128  1  0.68726722  0.68870251  0.19067087  1
  Zn  Zn129  1  0.69137693  0.69018915  0.69024085  1
  Zn  Zn130  1  0.31249399  0.31426633  0.31221370  1
  Zn  Zn131  1  0.31045065  0.31311729  0.81031974  1
  Zn  Zn132  1  0.31168088  0.81099870  0.31095761  1
  Zn  Zn133  1  0.31318766  0.81280724  0.81409586  1
  Zn  Zn134  1  0.81167144  0.31483403  0.31240928  1
  Zn  Zn135  1  0.80709515  0.31096287  0.81007903  1
  Zn  Zn136  1  0.81283134  0.81183340  0.31376475  1
  Zn  Zn137  1  0.81286524  0.80918232  0.81278740  1
  Zn  Zn138  1  0.18566888  0.43827806  0.43478007  1
  Zn  Zn139  1  0.18868427  0.43746589  0.93278632  1
  Zn  Zn140  1  0.18923056  0.93619923  0.43839413  1
  Zn  Zn141  1  0.18927051  0.93994134  0.93871370  1
  Zn  Zn142  1  0.68328648  0.43936225  0.43768624  1
  Zn  Zn143  1  0.68799634  0.43663976  0.93678919  1
  Zn  Zn144  1  0.68947407  0.94005064  0.44191891  1
  Zn  Zn145  1  0.68777724  0.93657028  0.93878286  1
  Zn  Zn146  1  0.31324018  0.06088554  0.06261431  1
  Zn  Zn147  1  0.31031761  0.06680016  0.56024288  1
  Zn  Zn148  1  0.31453880  0.55925122  0.06229459  1
  Zn  Zn149  1  0.31484424  0.56490977  0.56170975  1
  Zn  Zn150  1  0.81283369  0.06165763  0.06023589  1
  Zn  Zn151  1  0.81160415  0.06483607  0.56456519  1
  Zn  Zn152  1  0.81398434  0.56061312  0.06122163  1
  Zn  Zn153  1  0.81109253  0.56271640  0.56407054  1
  Zn  Zn154  1  0.43424798  0.43761879  0.18660309  1
  Zn  Zn155  1  0.44124680  0.43807258  0.68620370  1
  Zn  Zn156  1  0.43643822  0.93632328  0.18866376  1
  Zn  Zn157  1  0.44099746  0.93584431  0.68993202  1
  Zn  Zn158  1  0.93254770  0.43925448  0.18540083  1
  Zn  Zn159  1  0.93693477  0.44039767  0.68512791  1
  Zn  Zn160  1  0.93846409  0.93830619  0.18799559  1
  Zn  Zn161  1  0.93984705  0.93817265  0.68997948  1
  Zn  Zn162  1  0.06169492  0.06066317  0.31429637  1
  Zn  Zn163  1  0.06312605  0.06240202  0.81403105  1
  Zn  Zn164  1  0.06325828  0.56351878  0.31201924  1
  Zn  Zn165  1  0.06447490  0.56116893  0.81118925  1
  Zn  Zn166  1  0.56136628  0.06428209  0.31255920  1
  Zn  Zn167  1  0.56072785  0.06145136  0.81258548  1
  Zn  Zn168  1  0.56137595  0.56306739  0.31317603  1
  Zn  Zn169  1  0.56431378  0.56250267  0.81452391  1
  Zn  Zn170  1  0.43664299  0.18725856  0.43891584  1
  Zn  Zn171  1  0.43776276  0.18480886  0.93731417  1
  Zn  Zn172  1  0.43603144  0.68771052  0.43551599  1
  Zn  Zn173  1  0.43829949  0.68552546  0.93654715  1
  Zn  Zn174  1  0.93742212  0.18766819  0.44298084  1
  Zn  Zn175  1  0.94008566  0.18719575  0.93844549  1
  Zn  Zn176  1  0.93744969  0.69122344  0.43693907  1
  Zn  Zn177  1  0.93783505  0.68533133  0.93894306  1
  Zn  Zn178  1  0.06030294  0.31085642  0.06136080  1
  Zn  Zn179  1  0.06359505  0.31534150  0.56215674  1
  Zn  Zn180  1  0.06352079  0.81170059  0.06440656  1
  Zn  Zn181  1  0.06292354  0.81393997  0.56266415  1
  Zn  Zn182  1  0.56042618  0.31070231  0.06063055  1
  Zn  Zn183  1  0.56155707  0.31493615  0.56103604  1
  Zn  Zn184  1  0.56135057  0.81031208  0.06302050  1
  Zn  Zn185  1  0.56235187  0.81459981  0.56197078  1
  O  O186  1  0.11921855  0.12179228  0.11808627  1
  O  O187  1  0.12476001  0.11385616  0.62734199  1
  O  O188  1  0.11973773  0.61802337  0.11879484  1
  O  O189  1  0.12009771  0.61630255  0.61946252  1
  O  O190  1  0.62074445  0.11881514  0.11946735  1
  O  O191  1  0.62265570  0.11846204  0.62419187  1
  O  O192  1  0.61098846  0.63073946  0.12508308  1
  O  O193  1  0.63329544  0.61309673  0.62543782  1
  O  O194  1  0.38733841  0.37749911  0.37646061  1
  O  O195  1  0.37920756  0.37870352  0.88024944  1
  O  O196  1  0.38306227  0.88252838  0.37456026  1
  O  O197  1  0.37808144  0.88346695  0.87611382  1
  O  O198  1  0.88194266  0.37841380  0.37794938  1
  O  O199  1  0.87146293  0.37541981  0.88176575  1
  O  O200  1  0.87088767  0.88139169  0.38622331  1
  O  O201  1  0.87873397  0.88094490  0.87932195  1
  O  O202  1  0.25762133  0.00483314  0.37091543  1
  O  O203  1  0.25620548  0.00768268  0.86856631  1
  O  O204  1  0.25069623  0.50653273  0.36794629  1
  O  O205  1  0.25805361  0.50241451  0.86347300  1
  O  O206  1  0.75390744  0.00663789  0.36935512  1
  O  O207  1  0.75992982  0.00884979  0.88294833  1
  O  O208  1  0.74965864  0.50935891  0.36801601  1
  O  O209  1  0.74926338  0.51057109  0.87414817  1
  O  O210  1  0.24392841  0.49027155  0.12963059  1
  O  O211  1  0.24070569  0.50742370  0.63166061  1
  O  O212  1  0.25012040  0.99272723  0.13248715  1
  O  O213  1  0.24435580  0.99591631  0.63063864  1
  O  O214  1  0.75505652  0.48990687  0.13234919  1
  O  O215  1  0.74100912  0.49155255  0.62553905  1
  O  O216  1  0.74493123  0.99478649  0.12969345  1
  O  O217  1  0.73980598  0.99050614  0.62418193  1
  O  O218  1  0.00342547  0.37066751  0.25261970  1
  O  O219  1  0.01730681  0.38512183  0.74906996  1
  O  O220  1  0.01109964  0.87421486  0.24935476  1
  O  O221  1  0.00691140  0.86833679  0.75665559  1
  O  O222  1  0.50064735  0.36940184  0.25640182  1
  O  O223  1  0.50420896  0.36902451  0.75686977  1
  O  O224  1  0.50689852  0.87435900  0.26146699  1
  O  O225  1  0.51188454  0.86514147  0.75266911  1
  O  O226  1  0.49857245  0.13422635  0.24465096  1
  O  O227  1  0.49455236  0.13097816  0.74519355  1
  O  O228  1  0.49370805  0.62410331  0.24175686  1
  O  O229  1  0.49200238  0.63485840  0.75368795  1
  O  O230  1  0.99362934  0.13043507  0.24532663  1
  O  O231  1  0.98650626  0.12050409  0.74813278  1
  O  O232  1  0.99320960  0.62388192  0.24230427  1
  O  O233  1  1.00128276  0.63092475  0.74281865  1
  O  O234  1  0.38107344  0.26467736  -0.00063484  1
  O  O235  1  0.36830923  0.25181025  0.50710302  1
  O  O236  1  0.36880931  0.74921025  0.00498480  1
  O  O237  1  0.37187194  0.74956179  0.51071849  1
  O  O238  1  0.86829663  0.25332360  0.00617662  1
  O  O239  1  0.86947553  0.25237186  0.51191762  1
  O  O240  1  0.86972339  0.75596914  0.00579560  1
  O  O241  1  0.87351244  0.76161071  0.50795550  1
  O  O242  1  0.13345131  0.25160468  0.49477391  1
  O  O243  1  0.12338086  0.23397430  1.00212600  1
  O  O244  1  0.13278904  0.74385100  0.50207285  1
  O  O245  1  0.13012292  0.74356096  0.99527956  1
  O  O246  1  0.62588122  0.24374524  0.49404824  1
  O  O247  1  0.62896482  0.24268730  0.99326232  1
  O  O248  1  0.62651500  0.74916692  0.49022593  1
  O  O249  1  0.63251226  0.74901264  0.99416221  1
  O  O250  1  0.49972160  0.24480781  0.13365030  1
  O  O251  1  0.49351079  0.24442678  0.63002663  1
  O  O252  1  0.49360699  0.73999208  0.12642864  1
  O  O253  1  0.49230060  0.75662057  0.63560358  1
  O  O254  1  0.99270840  0.24408528  0.13139947  1
  O  O255  1  0.98575004  0.25335175  0.62209632  1
  O  O256  1  0.99282615  0.74170561  0.12501549  1
  O  O257  1  0.99658143  0.74569917  0.63073000  1
  O  O258  1  0.00404289  0.25575967  0.36980349  1
  O  O259  1  0.00877377  0.24661325  0.87614788  1
  O  O260  1  0.00390741  0.75618795  0.37145926  1
  O  O261  1  0.00600599  0.75489842  0.87128870  1
  O  O262  1  0.50279662  0.25698634  0.36848066  1
  O  O263  1  0.50505946  0.25355646  0.86908383  1
  O  O264  1  0.50804672  0.75862383  0.37393328  1
  O  O265  1  0.50638676  0.75075761  0.86497014  1
  O  O266  1  0.24700923  0.13750143  0.49205856  1
  O  O267  1  0.24121573  0.11662436  0.99003125  1
  O  O268  1  0.24547248  0.62995048  0.49460619  1
  O  O269  1  0.24386301  0.62880020  0.99904703  1
  O  O270  1  0.74269280  0.12631743  0.49330662  1
  O  O271  1  0.74519170  0.12950401  0.99130204  1
  O  O272  1  0.74728588  0.62634356  0.48855949  1
  O  O273  1  0.74819138  0.62964374  0.99372037  1
  O  O274  1  0.25872454  0.38242430  0.00812684  1
  O  O275  1  0.25201089  0.36234305  0.49247442  1
  O  O276  1  0.25073436  0.86764602  0.00661633  1
  O  O277  1  0.25393114  0.86748682  0.50757600  1
  O  O278  1  0.75383346  0.36957690  0.00654584  1
  O  O279  1  0.74978992  0.37604198  0.51094065  1
  O  O280  1  0.75598728  0.86968802  0.00648580  1
  O  O281  1  0.75892409  0.87467593  0.51182675  1
  O  O282  1  0.12906765  0.49391422  0.24281227  1
  O  O283  1  0.13454838  0.49562144  0.74219658  1
  O  O284  1  0.13113343  0.99112318  0.24869124  1
  O  O285  1  0.13107210  0.99345994  0.74406247  1
  O  O286  1  0.63867090  0.49973925  0.25327890  1
  O  O287  1  0.62304121  0.49390428  0.74136931  1
  O  O288  1  0.63070719  0.99619470  0.24537099  1
  O  O289  1  0.61916624  0.98936630  0.74120907  1
  O  O290  1  0.36923050  0.00039697  0.26150477  1
  O  O291  1  0.37165055  0.00579116  0.75427843  1
  O  O292  1  0.36677435  0.50650823  0.25108878  1
  O  O293  1  0.37194061  0.50587658  0.75037164  1
  O  O294  1  0.86850244  0.00564506  0.25532648  1
  O  O295  1  0.87716959  0.00636466  0.76300424  1
  O  O296  1  0.86308877  0.50722390  0.25176496  1
  O  O297  1  0.87182664  0.50428489  0.75290648  1
  O  O298  1  0.11813686  0.36999137  0.36688237  1
  O  O299  1  0.12894159  0.37252836  0.85827321  1
  O  O300  1  0.12551378  0.87463554  0.36391843  1
  O  O301  1  0.12032493  0.86992847  0.87037626  1
  O  O302  1  0.61315567  0.36957325  0.37321013  1
  O  O303  1  0.61977529  0.36756788  0.86995830  1
  O  O304  1  0.62008370  0.87033811  0.37305603  1
  O  O305  1  0.62754654  0.86947776  0.86573851  1
  O  O306  1  0.38226295  0.12839853  0.12634409  1
  O  O307  1  0.38083055  0.13256290  0.63024846  1
  O  O308  1  0.38291193  0.62872235  0.12933158  1
  O  O309  1  0.37187789  0.63719254  0.63593779  1
  O  O310  1  0.87837387  0.12966203  0.13038219  1
  O  O311  1  0.87172650  0.13330131  0.63605554  1
  O  O312  1  0.87905571  0.63019496  0.12953585  1
  O  O313  1  0.88144884  0.63324045  0.62461742  1
  O  O314  1  0.24996488  0.26419943  0.13155283  1
  O  O315  1  0.26138289  0.24312221  0.61371770  1
  O  O316  1  0.25584007  0.75382871  0.11853772  1
  O  O317  1  0.25996478  0.75441060  0.62180971  1
  O  O318  1  0.75389637  0.25605339  0.12025182  1
  O  O319  1  0.75618816  0.26104105  0.62410263  1
  O  O320  1  0.75504523  0.75541587  0.12134401  1
  O  O321  1  0.75578914  0.76155792  0.62405726  1
  O  O322  1  0.24486322  0.24628689  0.37994092  1
  O  O323  1  0.24607483  0.23532161  0.86776964  1
  O  O324  1  0.24948996  0.74357438  0.38276064  1
  O  O325  1  0.24380750  0.74786601  0.88066818  1
  O  O326  1  0.74205732  0.24478068  0.37414615  1
  O  O327  1  0.74324732  0.24038103  0.88083284  1
  O  O328  1  0.74109094  0.74273328  0.37630953  1
  O  O329  1  0.74606121  0.74260273  0.88129473  1
  O  O330  1  0.00728495  0.11867518  0.00619572  1
  O  O331  1  0.00463073  0.12200140  0.50774334  1
  O  O332  1  0.00535849  0.61512736  0.00506084  1
  O  O333  1  0.00560254  0.61813584  0.50378228  1
  O  O334  1  0.50675392  0.11921831  0.00550164  1
  O  O335  1  0.50724917  0.12379549  0.50736537  1
  O  O336  1  0.50012754  0.61561127  0.00739342  1
  O  O337  1  0.50233281  0.61169566  0.49172420  1
  O  O338  1  0.49851257  0.38409737  0.49083783  1
  O  O339  1  0.49248956  0.38094549  0.99570762  1
  O  O340  1  0.49809645  0.87832518  0.48806727  1
  O  O341  1  0.49903171  0.88240388  0.99815000  1
  O  O342  1  1.00133603  0.38660480  0.49349170  1
  O  O343  1  0.99319226  0.38303235  1.00247979  1
  O  O344  1  0.98648924  0.87941855  0.50248151  1
  O  O345  1  0.99491703  0.87901931  0.99475854  1
  O  O346  1  0.50059603  0.49181239  0.38227870  1
  O  O347  1  0.49456021  0.49331302  0.88156567  1
  O  O348  1  0.49270748  0.99314670  0.37530198  1
  O  O349  1  0.49403121  0.99965058  0.88183046  1
  O  O350  1  0.99998575  0.49644475  0.38391098  1
  O  O351  1  1.00048153  0.49925587  0.88700429  1
  O  O352  1  0.99018936  0.99606445  0.37782510  1
  O  O353  1  0.99131145  0.99335068  0.87955219  1
  O  O354  1  -0.00066711  0.00702586  0.11772598  1
  O  O355  1  0.01376685  -0.00090155  0.62645670  1
  O  O356  1  0.00482252  0.50364475  0.11548623  1
  O  O357  1  0.00899489  0.50596429  0.61537217  1
  O  O358  1  0.50592284  0.00491533  0.12209516  1
  O  O359  1  0.50992986  0.00521252  0.62463086  1
  O  O360  1  0.49276152  0.50838371  0.11538294  1
  O  O361  1  0.51069718  0.49392134  0.61500000  1
  O  O362  1  0.24367458  0.38030528  0.24232483  1
  O  O363  1  0.24340702  0.38880340  0.75014050  1
  O  O364  1  0.24258881  0.87946371  0.24486299  1
  O  O365  1  0.24553674  0.87962844  0.74495509  1
  O  O366  1  0.74809993  0.38295985  0.24173991  1
  O  O367  1  0.74142460  0.37663588  0.73974153  1
  O  O368  1  0.74567738  0.88166561  0.24542569  1
  O  O369  1  0.73949234  0.86856990  0.74145241  1
  O  O370  1  0.25105040  0.11913982  0.25641624  1
  O  O371  1  0.25595502  0.11851410  0.75801855  1
  O  O372  1  0.25352242  0.61923217  0.25309347  1
  O  O373  1  0.26116168  0.61521634  0.75121951  1
  O  O374  1  0.75423871  0.12050381  0.25478834  1
  O  O375  1  0.75800735  0.12816813  0.76391228  1
  O  O376  1  0.75361892  0.61891191  0.25687669  1
  O  O377  1  0.75292455  0.62580465  0.76256355  1
  O  O378  1  0.36989399  0.11597756  0.37315616  1
  O  O379  1  0.36786223  0.12015861  0.87023954  1
  O  O380  1  0.36798728  0.62377663  0.36672387  1
  O  O381  1  0.37496590  0.61852826  0.86308556  1
  O  O382  1  0.86879374  0.12120386  0.36962891  1
  O  O383  1  0.86852049  0.11806307  0.87032868  1
  O  O384  1  0.86338155  0.62610332  0.37003609  1
  O  O385  1  0.86368936  0.62413986  0.87541619  1
  O  O386  1  0.13096552  0.37869684  0.12795764  1
  O  O387  1  0.12169357  0.38934994  0.63329361  1
  O  O388  1  0.13191228  0.87678959  0.13330851  1
  O  O389  1  0.13199664  0.88154604  0.63140353  1
  O  O390  1  0.63845144  0.36824330  0.12498071  1
  O  O391  1  0.63132310  0.38198566  0.62928839  1
  O  O392  1  0.63056050  0.87954142  0.13179623  1
  O  O393  1  0.63174118  0.88123852  0.63152804  1
  O  O394  1  0.11708655  0.25591579  0.25493516  1
  O  O395  1  0.13420638  0.26948500  0.74008572  1
  O  O396  1  0.12472053  0.76149309  0.25044217  1
  O  O397  1  0.12196878  0.75411975  0.75471009  1
  O  O398  1  0.61224809  0.25160525  0.25652037  1
  O  O399  1  0.61879864  0.25469051  0.75477826  1
  O  O400  1  0.62402158  0.75775921  0.26192352  1
  O  O401  1  0.61871467  0.75714210  0.75385747  1
  O  O402  1  0.38738388  0.24951756  0.24845027  1
  O  O403  1  0.37889584  0.24486226  0.74267098  1
  O  O404  1  0.37608909  0.74173235  0.24254449  1
  O  O405  1  0.38254258  0.74406421  0.74470523  1
  O  O406  1  0.87893816  0.24422883  0.24527794  1
  O  O407  1  0.86996107  0.24127950  0.74223048  1
  O  O408  1  0.87472997  0.74382011  0.24299717  1
  O  O409  1  0.88440443  0.74968498  0.74385175  1
  O  O410  1  0.38416619  0.49795914  0.50037543  1
  O  O411  1  0.38353019  0.49003142  0.99341549  1
  O  O412  1  0.37563021  0.99881819  0.48840216  1
  O  O413  1  0.38223673  0.99822344  0.99362129  1
  O  O414  1  0.88807004  0.49942190  0.50028576  1
  O  O415  1  0.88453781  0.49268807  0.99848682  1
  O  O416  1  0.87313741  0.99250901  0.49643993  1
  O  O417  1  0.88044665  0.99474374  0.99019894  1
  O  O418  1  0.11802774  0.00920474  0.00059855  1
  O  O419  1  0.12681352  0.00030999  0.51249402  1
  O  O420  1  0.11835107  0.50218527  0.00326851  1
  O  O421  1  0.11866607  0.50477618  0.50600933  1
  O  O422  1  0.62038161  0.00431021  0.00631015  1
  O  O423  1  0.62336282  0.00603210  0.51242945  1
  O  O424  1  0.60934029  0.49910999  -0.00495717  1
  O  O425  1  0.61679868  0.50298649  0.50871282  1
  O  O426  1  0.36562870  0.37380389  0.11607878  1
  O  O427  1  0.38101206  0.36005253  0.62528412  1
  O  O428  1  0.36923246  0.86656719  0.12483890  1
  O  O429  1  0.37104389  0.86512931  0.62655235  1
  O  O430  1  0.86433265  0.36795778  0.11964115  1
  O  O431  1  0.86558045  0.36908792  0.62564924  1
  O  O432  1  0.86943600  0.87073136  0.11981578  1
  O  O433  1  0.86825979  0.87392616  0.62190332  1
  O  O434  1  0.13076801  0.13267243  0.37508147  1
  O  O435  1  0.13356661  0.12342404  0.88222460  1
  O  O436  1  0.13224394  0.62674082  0.38111600  1
  O  O437  1  0.12655111  0.63111813  0.88116902  1
  O  O438  1  0.62909212  0.12967940  0.38080120  1
  O  O439  1  0.63223214  0.12724232  0.87863625  1
  O  O440  1  0.63310420  0.63528056  0.37354682  1
  O  O441  1  0.63464926  0.63137316  0.87752722  1
