# generated using pymatgen
data_V93Zn93O256
_symmetry_space_group_name_H-M   'P 1'
_cell_length_a   17.05022797
_cell_length_b   17.05101445
_cell_length_c   17.05302544
_cell_angle_alpha   90.02307189
_cell_angle_beta   89.95142766
_cell_angle_gamma   89.95718722
_symmetry_Int_Tables_number   1
_chemical_formula_structural   V93Zn93O256
_chemical_formula_sum   'V93 Zn93 O256'
_cell_volume   4957.71480119
_cell_formula_units_Z   1
loop_
 _symmetry_equiv_pos_site_id
 _symmetry_equiv_pos_as_xyz
  1  'x, y, z'
loop_
 _atom_site_type_symbol
 _atom_site_label
 _atom_site_symmetry_multiplicity
 _atom_site_fract_x
 _atom_site_fract_y
 _atom_site_fract_z
 _atom_site_occupancy
  V  V0  1  0.00409256  0.12350540  0.12179666  1
  V  V1  1  0.12514344  0.37996304  0.24376949  1
  V  V2  1  0.36997403  0.12658111  0.75663860  1
  V  V3  1  0.75008126  0.37436232  0.62415627  1
  V  V4  1  0.62383409  0.62592654  0.50093376  1
  V  V5  1  0.12448540  0.87458353  0.24946478  1
  V  V6  1  0.37401287  0.62653060  0.25185695  1
  V  V7  1  0.62434675  0.75001649  0.37698839  1
  V  V8  1  0.00021025  0.37356767  0.37266986  1
  V  V9  1  0.37455957  0.25515411  0.61911173  1
  V  V10  1  0.37556584  0.74961806  0.12683555  1
  V  V11  1  -0.00049438  0.74873156  0.74891783  1
  V  V12  1  0.25060229  0.37860454  0.12378912  1
  V  V13  1  0.25509662  0.37647930  0.61483399  1
  V  V14  1  0.50003441  0.25089033  0.75023628  1
  V  V15  1  0.24990222  0.75093761  0.50087115  1
  V  V16  1  0.49539599  0.62803773  0.63984328  1
  V  V17  1  0.74959266  0.87449304  0.12586158  1
  V  V18  1  0.49380255  0.49730529  0.50215427  1
  V  V19  1  0.13356949  0.24565497  0.37246389  1
  V  V20  1  0.12494747  0.50161778  0.62174605  1
  V  V21  1  0.49921898  0.49981101  0.00257226  1
  V  V22  1  0.49715355  0.87548841  0.87500657  1
  V  V23  1  0.62134746  0.75031384  0.87289063  1
  V  V24  1  0.50016184  -0.00006580  0.00306595  1
  V  V25  1  0.87306823  0.87378479  0.50133108  1
  V  V26  1  0.24929152  0.87499459  0.12650554  1
  V  V27  1  0.87526872  0.62503624  0.74778447  1
  V  V28  1  0.62660576  0.24924722  0.87446923  1
  V  V29  1  0.62519017  0.00037727  0.12677431  1
  V  V30  1  0.24866245  0.50091080  0.24909044  1
  V  V31  1  0.87487372  0.12402595  0.74751922  1
  V  V32  1  0.50107708  0.25163870  0.25158988  1
  V  V33  1  0.87454045  -0.00165163  0.87424798  1
  V  V34  1  0.12830251  0.62111558  0.00114923  1
  V  V35  1  0.00239863  0.37173435  0.87295496  1
  V  V36  1  0.12575456  0.00037427  0.62364228  1
  V  V37  1  0.00025251  -0.00126591  0.00046571  1
  V  V38  1  0.00224430  0.62125735  0.12294373  1
  V  V39  1  0.24982142  0.74893408  -0.00020522  1
  V  V40  1  0.49501190  0.37580945  0.37908661  1
  V  V41  1  0.49871200  -0.00028618  0.50146686  1
  V  V42  1  0.62493840  0.62450255  0.00303336  1
  V  V43  1  0.37595882  0.50729983  0.86985664  1
  V  V44  1  0.61992503  0.87263628  0.75072055  1
  V  V45  1  0.87542197  0.24937529  0.12312896  1
  V  V46  1  0.87537902  0.12378557  0.24984000  1
  V  V47  1  0.74958014  0.24895786  0.49885661  1
  V  V48  1  0.75029571  0.12502548  0.87493077  1
  V  V49  1  0.12400762  0.87539139  0.74833342  1
  V  V50  1  -0.00093842  0.87370453  0.87463084  1
  V  V51  1  0.74932204  0.37593091  0.12601697  1
  V  V52  1  0.12468080  0.75003353  0.37449700  1
  V  V53  1  0.75133303  0.49939616  0.75042862  1
  V  V54  1  0.62359470  0.50083136  0.62625006  1
  V  V55  1  0.24840924  0.00465253  0.75710228  1
  V  V56  1  0.74978355  0.74914252  0.00137966  1
  V  V57  1  0.00125699  0.24974462  0.74839202  1
  V  V58  1  0.87564136  0.24873662  0.62237749  1
  V  V59  1  0.87454301  0.74845118  0.12444724  1
  V  V60  1  0.74958105  -0.00013687  0.24939992  1
  V  V61  1  0.74817541  -0.00112874  0.75080349  1
  V  V62  1  0.62355628  -0.00100490  0.62696074  1
  V  V63  1  0.00148589  0.24947523  0.24741208  1
  V  V64  1  0.87342368  0.50004921  0.37347960  1
  V  V65  1  0.49898537  0.12587404  0.62650330  1
  V  V66  1  0.00018390  0.49912610  0.49952849  1
  V  V67  1  0.62640255  0.37476626  0.74984851  1
  V  V68  1  0.00056938  0.74911507  0.24901700  1
  V  V69  1  0.12539787  0.37467574  0.74626532  1
  V  V70  1  0.25466584  0.50638316  0.74846335  1
  V  V71  1  0.37467978  0.87529460  0.00194647  1
  V  V72  1  0.75158108  0.24917295  -0.00100625  1
  V  V73  1  0.49771309  0.75055316  0.25233186  1
  V  V74  1  0.87434113  0.62334786  0.25057256  1
  V  V75  1  0.00106944  0.12477415  0.62159044  1
  V  V76  1  0.37436783  0.25295548  0.12382515  1
  V  V77  1  0.87508027  0.37355052  0.49777136  1
  V  V78  1  0.62432197  0.25093743  0.37592480  1
  V  V79  1  0.62502502  0.12489276  0.50079647  1
  V  V80  1  0.00774251  0.49776372  0.00223402  1
  V  V81  1  0.37442983  0.87467481  0.50275678  1
  V  V82  1  0.37691450  0.74707895  0.63963924  1
  V  V83  1  0.87548669  -0.00081163  0.37550689  1
  V  V84  1  0.13342341  0.12518645  0.49568179  1
  V  V85  1  0.24891894  0.00376582  0.25606683  1
  V  V86  1  0.50215544  0.37702512  0.87532931  1
  V  V87  1  0.87682422  0.49972843  0.87363309  1
  V  V88  1  0.49770259  0.87671383  0.37751768  1
  V  V89  1  0.24895745  0.62601028  0.37571899  1
  V  V90  1  0.50124511  0.12572171  0.12632253  1
  V  V91  1  0.37412485  0.49956870  0.37819056  1
  V  V92  1  0.36992753  0.12574796  0.25695875  1
  Zn  Zn93  1  0.62490656  0.12433879  -0.00033572  1
  Zn  Zn94  1  0.25410745  0.62885184  0.87124154  1
  Zn  Zn95  1  0.62336842  0.87542126  0.25195964  1
  Zn  Zn96  1  0.36985034  0.00635994  0.38178246  1
  Zn  Zn97  1  0.62537781  0.49933584  0.12813730  1
  Zn  Zn98  1  0.12207228  0.62722183  0.49851955  1
  Zn  Zn99  1  0.62491628  0.37872494  0.25145838  1
  Zn  Zn100  1  0.74949674  0.12579092  0.37437466  1
  Zn  Zn101  1  0.49946196  0.62402668  0.12843245  1
  Zn  Zn102  1  0.25119560  0.87404427  0.62705136  1
  Zn  Zn103  1  0.12755142  0.74819711  0.87379885  1
  Zn  Zn104  1  0.12662518  -0.00003863  0.12449352  1
  Zn  Zn105  1  0.36886368  0.00915891  0.88297337  1
  Zn  Zn106  1  0.25339374  0.24000151  -0.01142176  1
  Zn  Zn107  1  0.74970522  0.62456971  0.87495275  1
  Zn  Zn108  1  -0.00078824  0.62534861  0.62275483  1
  Zn  Zn109  1  0.74846562  0.87199210  0.62626788  1
  Zn  Zn110  1  0.25713515  0.24994015  0.49194855  1
  Zn  Zn111  1  0.74939175  0.62354007  0.37420162  1
  Zn  Zn112  1  0.13840269  0.12098888  -0.01391203  1
  Zn  Zn113  1  -0.00081100  0.87311495  0.37493872  1
  Zn  Zn114  1  0.14237582  0.23824509  0.86864702  1
  Zn  Zn115  1  0.87154201  0.75032102  0.62341454  1
  Zn  Zn116  1  0.75030062  0.74944089  0.50280214  1
  Zn  Zn117  1  0.87456326  0.87168094  -0.00106755  1
  Zn  Zn118  1  0.87750684  0.37550706  -0.00015744  1
  Zn  Zn119  1  0.74711821  0.50100982  0.25074864  1
  Zn  Zn120  1  0.00181278  -0.00102219  0.49842647  1
  Zn  Zn121  1  0.37234706  0.37549427  -0.00421795  1
  Zn  Zn122  1  0.18931041  0.18889107  0.18261196  1
  Zn  Zn123  1  0.18872775  0.18830494  0.68452928  1
  Zn  Zn124  1  0.18656470  0.68640605  0.18530185  1
  Zn  Zn125  1  0.18767586  0.68882355  0.68506642  1
  Zn  Zn126  1  0.68763015  0.18796534  0.18856006  1
  Zn  Zn127  1  0.68797166  0.18662913  0.68713298  1
  Zn  Zn128  1  0.68761375  0.68701623  0.18977955  1
  Zn  Zn129  1  0.68780245  0.68838247  0.68646619  1
  Zn  Zn130  1  0.31445525  0.31540386  0.30949462  1
  Zn  Zn131  1  0.31610750  0.32023406  0.80644041  1
  Zn  Zn132  1  0.31172550  0.81566642  0.31522113  1
  Zn  Zn133  1  0.30850482  0.81837094  0.81543486  1
  Zn  Zn134  1  0.81197616  0.31154984  0.31045856  1
  Zn  Zn135  1  0.81539512  0.31211045  0.81176617  1
  Zn  Zn136  1  0.81039301  0.81163987  0.31273170  1
  Zn  Zn137  1  0.80971503  0.81152753  0.81373464  1
  Zn  Zn138  1  0.18571476  0.43607982  0.43400120  1
  Zn  Zn139  1  0.19266584  0.42622604  0.93042880  1
  Zn  Zn140  1  0.18709504  0.93528857  0.43749833  1
  Zn  Zn141  1  0.18432924  0.93617208  0.93694366  1
  Zn  Zn142  1  0.68549179  0.43801400  0.43710277  1
  Zn  Zn143  1  0.68964456  0.43670408  0.93916111  1
  Zn  Zn144  1  0.68840089  0.93706863  0.43810138  1
  Zn  Zn145  1  0.68725054  0.93723478  0.94030139  1
  Zn  Zn146  1  0.31356194  0.06192843  0.06898195  1
  Zn  Zn147  1  0.31205895  0.06323376  0.56950925  1
  Zn  Zn148  1  0.31354784  0.56161001  0.06341927  1
  Zn  Zn149  1  0.31270679  0.56888764  0.56343383  1
  Zn  Zn150  1  0.81380671  0.06181536  0.06158525  1
  Zn  Zn151  1  0.80979475  0.05967088  0.56230176  1
  Zn  Zn152  1  0.81549525  0.56080424  0.06109775  1
  Zn  Zn153  1  0.81180581  0.56103140  0.56149936  1
  Zn  Zn154  1  0.43724370  0.43876759  0.19096869  1
  Zn  Zn155  1  0.43738280  0.43840204  0.68786519  1
  Zn  Zn156  1  0.43612999  0.93822316  0.19066461  1
  Zn  Zn157  1  0.43446117  0.93771255  0.68887922  1
  Zn  Zn158  1  0.93581183  0.43763657  0.18557517  1
  Zn  Zn159  1  0.93805108  0.43646749  0.68574515  1
  Zn  Zn160  1  0.93625671  0.93464041  0.18719006  1
  Zn  Zn161  1  0.93838809  0.93768612  0.68502497  1
  Zn  Zn162  1  0.06239694  0.06188572  0.31189157  1
  Zn  Zn163  1  0.06103543  0.06195329  0.81076141  1
  Zn  Zn164  1  0.06138640  0.56266988  0.31245222  1
  Zn  Zn165  1  0.06567968  0.56181123  0.81403759  1
  Zn  Zn166  1  0.56075680  0.06340447  0.31363826  1
  Zn  Zn167  1  0.55984384  0.06194356  0.81404636  1
  Zn  Zn168  1  0.56225484  0.56202090  0.31200069  1
  Zn  Zn169  1  0.56510741  0.56155476  0.81653563  1
  Zn  Zn170  1  0.43987286  0.18678012  0.43799992  1
  Zn  Zn171  1  0.43941629  0.18942858  0.93992896  1
  Zn  Zn172  1  0.43644833  0.68762440  0.44337524  1
  Zn  Zn173  1  0.43844379  0.68849779  0.93753932  1
  Zn  Zn174  1  0.94250765  0.18596793  0.43531130  1
  Zn  Zn175  1  0.93954977  0.18645483  0.93650440  1
  Zn  Zn176  1  0.93822636  0.68667046  0.43686667  1
  Zn  Zn177  1  0.93857749  0.68522336  0.93599801  1
  Zn  Zn178  1  0.06888144  0.30753521  0.05656153  1
  Zn  Zn179  1  0.06524925  0.31140004  0.55922941  1
  Zn  Zn180  1  0.06375370  0.81004893  0.06226979  1
  Zn  Zn181  1  0.05974960  0.81412794  0.56190828  1
  Zn  Zn182  1  0.56487165  0.31222518  0.06171479  1
  Zn  Zn183  1  0.56230317  0.31317122  0.56229465  1
  Zn  Zn184  1  0.56250274  0.81311118  0.06465699  1
  Zn  Zn185  1  0.55722625  0.81046436  0.56579338  1
  O  O186  1  0.10955084  0.12356589  0.12714532  1
  O  O187  1  0.12016077  0.12130265  0.61597483  1
  O  O188  1  0.11844946  0.62796369  0.11090409  1
  O  O189  1  0.12385008  0.61106542  0.62232872  1
  O  O190  1  0.61820659  0.11942716  0.12444768  1
  O  O191  1  0.61832795  0.12010459  0.62141275  1
  O  O192  1  0.62210284  0.62492585  0.11312645  1
  O  O193  1  0.61654578  0.62089595  0.61915819  1
  O  O194  1  0.38716101  0.38144032  0.37212431  1
  O  O195  1  0.38606537  0.38867848  0.87562994  1
  O  O196  1  0.38107020  0.87762692  0.38517147  1
  O  O197  1  0.38503608  0.87651201  0.88200552  1
  O  O198  1  0.88101925  0.37813428  0.37885317  1
  O  O199  1  0.88653254  0.38143981  0.87323320  1
  O  O200  1  0.87387531  0.88310769  0.38194814  1
  O  O201  1  0.88056582  0.88055790  0.87551899  1
  O  O202  1  0.25165672  -0.00435398  0.36052594  1
  O  O203  1  0.25154380  -0.00523541  0.86166731  1
  O  O204  1  0.25487969  0.50450935  0.37001992  1
  O  O205  1  0.25981785  0.49717316  0.86500977  1
  O  O206  1  0.75937310  0.00202679  0.36922613  1
  O  O207  1  0.75429487  0.00481704  0.87072528  1
  O  O208  1  0.75823876  0.50061294  0.37406025  1
  O  O209  1  0.75792463  0.49961686  0.86823170  1
  O  O210  1  0.25980770  0.48933419  0.13646426  1
  O  O211  1  0.24560580  0.49587594  0.62744990  1
  O  O212  1  0.24843240  0.99151071  0.13734354  1
  O  O213  1  0.24293284  0.99780530  0.63685642  1
  O  O214  1  0.75072406  0.48742371  0.12327808  1
  O  O215  1  0.74355455  0.49338747  0.62996913  1
  O  O216  1  0.74599810  0.99525040  0.12986198  1
  O  O217  1  0.74067986  0.99763012  0.63316814  1
  O  O218  1  0.00783051  0.37011485  0.25119786  1
  O  O219  1  0.00438470  0.36999454  0.75381597  1
  O  O220  1  0.00616165  0.86674386  0.24967727  1
  O  O221  1  0.00299482  0.86702832  0.75408619  1
  O  O222  1  0.50145666  0.37021103  0.26146818  1
  O  O223  1  0.50730137  0.37085806  0.75465984  1
  O  O224  1  0.50011521  0.86883919  0.25918081  1
  O  O225  1  0.50989764  0.88328120  0.76243503  1
  O  O226  1  0.49136199  0.13135534  0.24570427  1
  O  O227  1  0.49288534  0.13113336  0.74491371  1
  O  O228  1  0.49149337  0.63193598  0.25086160  1
  O  O229  1  0.50595142  0.61851809  0.73818901  1
  O  O230  1  0.99484054  0.12896932  0.24090364  1
  O  O231  1  0.99271979  0.13025768  0.74101626  1
  O  O232  1  0.99556689  0.62887291  0.24273453  1
  O  O233  1  0.99249955  0.63119416  0.75007111  1
  O  O234  1  0.37720116  0.25523413  0.01320491  1
  O  O235  1  0.37360972  0.24110107  0.51494977  1
  O  O236  1  0.37034167  0.75528718  0.00644852  1
  O  O237  1  0.36830436  0.75664946  0.50687175  1
  O  O238  1  0.86991591  0.25110324  0.00531530  1
  O  O239  1  0.87089656  0.25397566  0.50298741  1
  O  O240  1  0.86829838  0.74738343  0.00552836  1
  O  O241  1  0.87333877  0.75963267  0.49964355  1
  O  O242  1  0.12742027  0.24313330  0.48922233  1
  O  O243  1  0.13097129  0.24271687  0.99162755  1
  O  O244  1  0.13048547  0.75020322  0.49404994  1
  O  O245  1  0.13137146  0.74033789  0.99753855  1
  O  O246  1  0.62941069  0.24479629  0.49657894  1
  O  O247  1  0.63207399  0.24720067  0.99156653  1
  O  O248  1  0.62050955  0.74138293  0.49320544  1
  O  O249  1  0.62851863  0.74256971  0.99407414  1
  O  O250  1  0.49319554  0.24807613  0.13099769  1
  O  O251  1  0.49353139  0.24742541  0.63037855  1
  O  O252  1  0.49309495  0.74964342  0.13328089  1
  O  O253  1  0.48960877  0.73876296  0.62222143  1
  O  O254  1  0.99559502  0.24219844  0.12762808  1
  O  O255  1  0.99452331  0.24574462  0.62796611  1
  O  O256  1  0.99419381  0.74219442  0.12909012  1
  O  O257  1  0.99631820  0.74777294  0.63798738  1
  O  O258  1  0.00876235  0.25532482  0.36653707  1
  O  O259  1  -0.00523346  0.26122040  0.86592250  1
  O  O260  1  0.00687731  0.74958421  0.36614861  1
  O  O261  1  0.00007669  0.75439960  0.86359978  1
  O  O262  1  0.50349116  0.25898353  0.37340965  1
  O  O263  1  0.50621049  0.25679097  0.86975539  1
  O  O264  1  0.50615815  0.75520488  0.37325383  1
  O  O265  1  0.51061793  0.76244958  0.88336637  1
  O  O266  1  0.23708076  0.12803408  0.50620404  1
  O  O267  1  0.24955444  0.12814278  1.00988877  1
  O  O268  1  0.24700004  0.63244045  0.49218806  1
  O  O269  1  0.24276884  0.62856663  1.00066534  1
  O  O270  1  0.74269111  0.13149834  0.49952515  1
  O  O271  1  0.74986165  0.13054254  0.99226783  1
  O  O272  1  0.73415178  0.62398355  0.50007660  1
  O  O273  1  0.74030469  0.62877965  0.99828968  1
  O  O274  1  0.25255170  0.38197173  0.01748871  1
  O  O275  1  0.24664466  0.37378481  0.51134014  1
  O  O276  1  0.25458832  0.87038412  0.00575834  1
  O  O277  1  0.25661486  0.86903121  0.50306639  1
  O  O278  1  0.75366217  0.36782239  0.00756136  1
  O  O279  1  0.75474859  0.36935108  0.50534682  1
  O  O280  1  0.75116641  0.86737581  0.00723320  1
  O  O281  1  0.75994771  0.87403761  0.50255296  1
  O  O282  1  0.13070758  0.48673837  0.25702376  1
  O  O283  1  0.13099225  0.49442067  0.73936465  1
  O  O284  1  0.13216147  0.99450436  0.24829937  1
  O  O285  1  0.13069862  0.99604059  0.74347132  1
  O  O286  1  0.62809473  0.49791375  0.24583803  1
  O  O287  1  0.63131546  0.49402533  0.74598000  1
  O  O288  1  0.63126367  0.99974747  0.24541252  1
  O  O289  1  0.62828747  0.99263388  0.74704711  1
  O  O290  1  0.36725627  0.00997459  0.25160559  1
  O  O291  1  0.36622667  0.00999190  0.75073401  1
  O  O292  1  0.37021778  0.50705794  0.25929899  1
  O  O293  1  0.36650190  0.49611017  0.75743917  1
  O  O294  1  0.86985989  0.00317127  0.25696213  1
  O  O295  1  0.86908153  0.00468037  0.75420511  1
  O  O296  1  0.87562410  0.50604263  0.25655078  1
  O  O297  1  0.87190357  0.50626715  0.75330443  1
  O  O298  1  0.11941899  0.36613667  0.36490824  1
  O  O299  1  0.10975793  0.38066245  0.86382178  1
  O  O300  1  0.12255150  0.86763510  0.36752737  1
  O  O301  1  0.11610909  0.87227003  0.86638653  1
  O  O302  1  0.61298129  0.36953562  0.37592946  1
  O  O303  1  0.62206735  0.36972203  0.86866875  1
  O  O304  1  0.61737989  0.86540653  0.37705925  1
  O  O305  1  0.61709899  0.86954785  0.87100549  1
  O  O306  1  0.38230119  0.13581417  0.13596476  1
  O  O307  1  0.38036595  0.13457376  0.63591859  1
  O  O308  1  0.37554914  0.63232082  0.13353200  1
  O  O309  1  0.38422554  0.63440309  0.62250423  1
  O  O310  1  0.88405851  0.12884305  0.13010094  1
  O  O311  1  0.87926190  0.12936214  0.62755677  1
  O  O312  1  0.88138071  0.62964440  0.12990650  1
  O  O313  1  0.87660440  0.62342077  0.63718777  1
  O  O314  1  0.26235707  0.26215910  0.12975879  1
  O  O315  1  0.25864713  0.26097037  0.62510653  1
  O  O316  1  0.25630849  0.75555385  0.12013025  1
  O  O317  1  0.25803912  0.75031851  0.61847304  1
  O  O318  1  0.75544041  0.25557172  0.11941444  1
  O  O319  1  0.75532979  0.25495760  0.61905729  1
  O  O320  1  0.75435376  0.75427804  0.12077353  1
  O  O321  1  0.75276351  0.75446547  0.62133021  1
  O  O322  1  0.23819911  0.25785647  0.37417032  1
  O  O323  1  0.24471606  0.28724041  0.88353539  1
  O  O324  1  0.24433335  0.74540352  0.38030059  1
  O  O325  1  0.24947843  0.74748007  0.88359152  1
  O  O326  1  0.74361719  0.24944231  0.38174324  1
  O  O327  1  0.74678048  0.24511948  0.87788591  1
  O  O328  1  0.73535997  0.74768452  0.37833429  1
  O  O329  1  0.73776186  0.74891892  0.88245744  1
  O  O330  1  -0.00442415  0.11387882  0.00872988  1
  O  O331  1  0.01179668  0.12362080  0.50486304  1
  O  O332  1  0.00815226  0.61701975  0.00171408  1
  O  O333  1  0.00163458  0.61546372  0.50316731  1
  O  O334  1  0.50067297  0.11840479  0.00818817  1
  O  O335  1  0.50547290  0.11987891  0.50730818  1
  O  O336  1  0.50851323  0.61670601  0.00106266  1
  O  O337  1  0.50874349  0.61578591  0.50693594  1
  O  O338  1  0.50508047  0.38733842  0.49330081  1
  O  O339  1  0.50252148  0.38585660  0.99407063  1
  O  O340  1  0.49418211  0.88126598  0.49713160  1
  O  O341  1  0.49503080  0.87998275  0.99442312  1
  O  O342  1  0.99433737  0.37823656  0.49295834  1
  O  O343  1  1.00162142  0.38127486  0.99070722  1
  O  O344  1  0.98776825  0.87839914  0.49615516  1
  O  O345  1  0.99818039  0.88216803  0.99506770  1
  O  O346  1  0.49534334  0.49421671  0.38386436  1
  O  O347  1  0.49548025  0.49699591  0.88230862  1
  O  O348  1  0.49712531  0.99511651  0.38394382  1
  O  O349  1  0.49863845  0.99040958  0.88365637  1
  O  O350  1  0.99459767  0.49249255  0.37958910  1
  O  O351  1  0.99525726  0.49150219  0.87967370  1
  O  O352  1  0.98630122  0.99743968  0.37413067  1
  O  O353  1  0.99342969  0.99378091  0.88165891  1
  O  O354  1  -0.00210967  0.00670200  0.11716125  1
  O  O355  1  0.00802307  0.00785330  0.62353265  1
  O  O356  1  -0.00639595  0.50452203  0.11010551  1
  O  O357  1  0.01051500  0.49681817  0.61892788  1
  O  O358  1  0.50493389  0.00477458  0.12259725  1
  O  O359  1  0.50439940  0.00634811  0.62160566  1
  O  O360  1  0.50060628  0.50099219  0.11397141  1
  O  O361  1  0.50340056  0.50565803  0.61904528  1
  O  O362  1  0.24312584  0.38096401  0.24400273  1
  O  O363  1  0.24483144  0.38803023  0.73493868  1
  O  O364  1  0.24520814  0.88197771  0.24542553  1
  O  O365  1  0.24194978  0.88530957  0.74778126  1
  O  O366  1  0.74870567  0.37493020  0.23806043  1
  O  O367  1  0.74632719  0.37897518  0.74345979  1
  O  O368  1  0.74703499  0.88146761  0.24376108  1
  O  O369  1  0.73647802  0.88123831  0.75258119  1
  O  O370  1  0.25905204  0.11606318  0.24055513  1
  O  O371  1  0.25940813  0.11792637  0.74381164  1
  O  O372  1  0.25386145  0.62043056  0.25560351  1
  O  O373  1  0.24192222  0.60975855  0.75119300  1
  O  O374  1  0.75816711  0.11876841  0.25091477  1
  O  O375  1  0.75553480  0.11948419  0.75478562  1
  O  O376  1  0.75928329  0.62273936  0.25228074  1
  O  O377  1  0.75817867  0.61819152  0.75155631  1
  O  O378  1  0.37761621  0.12764030  0.36132305  1
  O  O379  1  0.38189558  0.12742298  0.86074403  1
  O  O380  1  0.36853749  0.62074825  0.37128552  1
  O  O381  1  0.37513595  0.61158832  0.87924781  1
  O  O382  1  0.87485344  0.11602263  0.36937400  1
  O  O383  1  0.87056016  0.11886385  0.86681128  1
  O  O384  1  0.87403999  0.61777001  0.36879192  1
  O  O385  1  0.87411025  0.61822401  0.86325871  1
  O  O386  1  0.13446656  0.36680404  0.13711977  1
  O  O387  1  0.13328788  0.38377268  0.62641518  1
  O  O388  1  0.13156749  0.87473993  0.13203028  1
  O  O389  1  0.12442690  0.88245484  0.63117529  1
  O  O390  1  0.63702919  0.37504077  0.12618515  1
  O  O391  1  0.63015034  0.38041701  0.63032093  1
  O  O392  1  0.63116863  0.88157377  0.12854539  1
  O  O393  1  0.62009098  0.87955890  0.63671444  1
  O  O394  1  0.12135519  0.25688150  0.25527545  1
  O  O395  1  0.11838301  0.25775785  0.74684818  1
  O  O396  1  0.12051668  0.75435405  0.25420470  1
  O  O397  1  0.11539378  0.75404962  0.75003016  1
  O  O398  1  0.61766248  0.25083802  0.25821418  1
  O  O399  1  0.62025962  0.25562196  0.75397430  1
  O  O400  1  0.61732023  0.74886051  0.26195385  1
  O  O401  1  0.62965642  0.75955119  0.76251056  1
  O  O402  1  0.38033070  0.24487517  0.24327650  1
  O  O403  1  0.38057597  0.24547435  0.74136239  1
  O  O404  1  0.37811960  0.74583326  0.24712461  1
  O  O405  1  0.36768339  0.75680273  0.73801664  1
  O  O406  1  0.88218453  0.24394582  0.24399460  1
  O  O407  1  0.87982359  0.24391963  0.74126559  1
  O  O408  1  0.88037580  0.74369134  0.24501226  1
  O  O409  1  0.88127698  0.74112953  0.75114661  1
  O  O410  1  0.38733819  0.50846324  0.49517065  1
  O  O411  1  0.38559269  0.49908560  0.99243414  1
  O  O412  1  0.38007504  0.99582748  0.50264289  1
  O  O413  1  0.38173460  0.99258333  1.00167884  1
  O  O414  1  0.87979487  0.49242567  0.49495919  1
  O  O415  1  0.88723657  0.49951812  0.99030494  1
  O  O416  1  0.87461022  0.99373825  0.49089113  1
  O  O417  1  0.88442251  0.99676291  0.99346834  1
  O  O418  1  0.11122103  0.00003044  0.00287381  1
  O  O419  1  0.12469180  0.00809944  0.50327488  1
  O  O420  1  0.11482864  0.50592694  -0.00897848  1
  O  O421  1  0.11959044  0.49876156  0.50703881  1
  O  O422  1  0.61843352  0.00170762  0.00842187  1
  O  O423  1  0.61927036  0.00471449  0.50697394  1
  O  O424  1  0.61691764  0.50900572  -0.00199840  1
  O  O425  1  0.61565828  0.50737890  0.50614708  1
  O  O426  1  0.36901267  0.36677658  0.12833507  1
  O  O427  1  0.36799777  0.36591162  0.62992425  1
  O  O428  1  0.36939072  0.86929065  0.12109446  1
  O  O429  1  0.37615905  0.86599512  0.61918677  1
  O  O430  1  0.86705183  0.36715192  0.12286331  1
  O  O431  1  0.86967349  0.36890861  0.61806705  1
  O  O432  1  0.86779049  0.86591638  0.12327326  1
  O  O433  1  0.87247309  0.87590079  0.61408336  1
  O  O434  1  0.11922362  0.13537632  0.38171347  1
  O  O435  1  0.12029729  0.12805541  0.87373643  1
  O  O436  1  0.13169289  0.63154415  0.37474541  1
  O  O437  1  0.12904621  0.62627064  0.88724585  1
  O  O438  1  0.62472616  0.13247143  0.38330623  1
  O  O439  1  0.63169221  0.13159844  0.87414194  1
  O  O440  1  0.62156093  0.63304197  0.38559088  1
  O  O441  1  0.62450889  0.63426152  0.88437832  1
