# generated using pymatgen
data_V93Zn93O256
_symmetry_space_group_name_H-M   'P 1'
_cell_length_a   17.05049086
_cell_length_b   17.05023244
_cell_length_c   17.05109675
_cell_angle_alpha   89.99993463
_cell_angle_beta   90.07374499
_cell_angle_gamma   90.01799337
_symmetry_Int_Tables_number   1
_chemical_formula_structural   V93Zn93O256
_chemical_formula_sum   'V93 Zn93 O256'
_cell_volume   4957.00238242
_cell_formula_units_Z   1
loop_
 _symmetry_equiv_pos_site_id
 _symmetry_equiv_pos_as_xyz
  1  'x, y, z'
loop_
 _atom_site_type_symbol
 _atom_site_label
 _atom_site_symmetry_multiplicity
 _atom_site_fract_x
 _atom_site_fract_y
 _atom_site_fract_z
 _atom_site_occupancy
  V  V0  1  -0.00104701  0.37502659  0.87422066  1
  V  V1  1  0.12243667  0.00121700  0.12205282  1
  V  V2  1  0.12464516  0.24917968  0.87585391  1
  V  V3  1  0.75062546  0.75196227  -0.00036510  1
  V  V4  1  0.50144201  0.87506410  0.87491041  1
  V  V5  1  0.12396903  0.49872279  0.62405247  1
  V  V6  1  0.87388461  0.25067021  0.12589002  1
  V  V7  1  0.62887807  0.25025324  0.38261099  1
  V  V8  1  0.87393612  0.49985889  0.37519105  1
  V  V9  1  -0.00043107  0.25117003  0.25003994  1
  V  V10  1  0.12589680  0.62375658  0.49954612  1
  V  V11  1  0.37503903  0.87447336  0.00097942  1
  V  V12  1  0.12493169  0.87374105  0.24956625  1
  V  V13  1  0.37410307  0.24776906  0.62443640  1
  V  V14  1  0.74859418  0.37641274  0.12559492  1
  V  V15  1  -0.00048401  0.50207028  0.00037727  1
  V  V16  1  0.74952295  0.49924808  0.75019856  1
  V  V17  1  0.24917514  0.49932348  0.24809366  1
  V  V18  1  0.00364244  0.74767757  0.75735460  1
  V  V19  1  0.75140962  0.12844701  0.38297689  1
  V  V20  1  0.37532325  0.12352276  0.25129791  1
  V  V21  1  0.49880739  0.24863193  0.74987241  1
  V  V22  1  0.38904312  0.87654211  0.49562921  1
  V  V23  1  0.49941260  0.75538546  0.25368728  1
  V  V24  1  0.87411130  0.24748452  0.62633060  1
  V  V25  1  0.87384104  0.37612039  0.00002756  1
  V  V26  1  0.37363693  0.25138354  0.12464492  1
  V  V27  1  0.74827128  0.36885393  0.62246148  1
  V  V28  1  0.24852759  -0.00266814  0.74671585  1
  V  V29  1  0.37511587  0.75082808  0.12531745  1
  V  V30  1  0.24933430  0.62486307  0.37369736  1
  V  V31  1  0.75008204  0.62509758  0.87425883  1
  V  V32  1  0.75399062  0.75385645  0.50274704  1
  V  V33  1  0.74919581  0.50183308  0.25014748  1
  V  V34  1  0.50303898  0.12452990  0.12434878  1
  V  V35  1  0.87319398  0.50072443  0.87479847  1
  V  V36  1  0.62414117  0.37452955  0.74936142  1
  V  V37  1  0.37547168  0.50026408  0.37368348  1
  V  V38  1  0.00188294  0.87950329  0.38341967  1
  V  V39  1  0.74798851  0.24987066  0.00046815  1
  V  V40  1  0.12432321  0.62950497  -0.00755852  1
  V  V41  1  0.87952188  0.00091883  0.38192259  1
  V  V42  1  0.25186021  0.75056205  0.49921538  1
  V  V43  1  0.75581361  0.00017047  0.75393887  1
  V  V44  1  0.37548033  0.12297928  0.74916214  1
  V  V45  1  -0.00044876  0.12508521  0.12456336  1
  V  V46  1  0.75095865  0.62544153  0.37529820  1
  V  V47  1  -0.00302347  0.62545879  0.62487042  1
  V  V48  1  0.00053765  0.75113467  0.24985705  1
  V  V49  1  0.12486972  0.24973047  0.37512594  1
  V  V50  1  0.62458941  0.24908833  0.87581135  1
  V  V51  1  0.87478006  0.75288337  0.12553205  1
  V  V52  1  0.87047329  0.37083868  0.49992811  1
  V  V53  1  0.00080111  0.62628217  0.12409001  1
  V  V54  1  0.37640160  0.75051464  0.62363155  1
  V  V55  1  0.24729799  0.75006159  -0.00627060  1
  V  V56  1  0.62488706  0.50122909  0.12539116  1
  V  V57  1  0.62472903  0.75090201  0.87523619  1
  V  V58  1  0.62468749  0.62510024  0.50001837  1
  V  V59  1  0.75652950  0.12255238  0.87511157  1
  V  V60  1  0.12479971  0.37665189  0.24855729  1
  V  V61  1  0.49869643  0.37474540  0.87430779  1
  V  V62  1  0.50064132  0.74994587  0.75121859  1
  V  V63  1  0.25029628  0.49980029  0.74950334  1
  V  V64  1  0.37445405  0.37430065  0.49930860  1
  V  V65  1  0.50069134  0.62376413  0.62468204  1
  V  V66  1  0.49930470  0.50119137  0.00054070  1
  V  V67  1  0.62447765  0.62570846  0.00067641  1
  V  V68  1  0.12356437  0.37491777  0.74998427  1
  V  V69  1  0.49960747  0.25056807  0.25176027  1
  V  V70  1  0.37499964  0.62648419  0.24917365  1
  V  V71  1  0.38878330  -0.00423255  0.37723995  1
  V  V72  1  0.50075229  0.00080865  0.00058584  1
  V  V73  1  0.37270343  0.37486198  0.00061771  1
  V  V74  1  0.49984761  0.11889431  0.61730672  1
  V  V75  1  0.87664203  0.88198937  -0.00534171  1
  V  V76  1  0.87366763  0.12512276  0.25147386  1
  V  V77  1  0.37657309  -0.00003222  0.87490337  1
  V  V78  1  0.62217273  0.75672447  0.37646990  1
  V  V79  1  0.50055554  0.37435565  0.37490233  1
  V  V80  1  0.00435950  0.11857876  0.62081792  1
  V  V81  1  0.24842838  0.37382729  0.62419994  1
  V  V82  1  0.37321695  0.50058767  0.87450822  1
  V  V83  1  0.62430544  -0.00083094  0.61983225  1
  V  V84  1  -0.00188756  0.37537914  0.37541628  1
  V  V85  1  0.24883959  0.12496393  0.87523203  1
  V  V86  1  0.62690488  0.87688202  0.25012067  1
  V  V87  1  0.37451335  0.62412932  0.74985300  1
  V  V88  1  0.50010636  0.50053043  0.49978770  1
  V  V89  1  -0.00000533  0.88094579  0.87429543  1
  V  V90  1  0.24544953  0.24522102  0.49889507  1
  V  V91  1  0.25162184  0.00005457  0.25129281  1
  V  V92  1  0.12786571  0.86883921  0.75525540  1
  Zn  Zn93  1  0.87933065  0.12102878  0.75423058  1
  Zn  Zn94  1  -0.00066487  0.50003540  0.49943431  1
  Zn  Zn95  1  0.75090368  0.88041245  0.12405189  1
  Zn  Zn96  1  0.12438371  0.12448444  -0.00141778  1
  Zn  Zn97  1  0.12624498  0.49982493  0.12300586  1
  Zn  Zn98  1  0.62547374  0.12305984  0.50008898  1
  Zn  Zn99  1  -0.00354477  0.00443823  -0.00792855  1
  Zn  Zn100  1  0.88105347  0.87828093  0.50447463  1
  Zn  Zn101  1  0.62583752  0.49861475  0.62413615  1
  Zn  Zn102  1  0.24731819  0.37477229  0.12277702  1
  Zn  Zn103  1  -0.00155651  0.24843034  0.75012820  1
  Zn  Zn104  1  0.75338193  0.87724508  0.62829720  1
  Zn  Zn105  1  0.24947404  0.12368445  0.37573565  1
  Zn  Zn106  1  0.11811984  -0.00897506  0.61712539  1
  Zn  Zn107  1  0.62808848  -0.00094973  0.12461800  1
  Zn  Zn108  1  0.62627829  0.12308897  -0.00066339  1
  Zn  Zn109  1  0.62767958  0.87566605  0.74968938  1
  Zn  Zn110  1  0.87344375  0.62688607  0.74953212  1
  Zn  Zn111  1  0.62442740  0.37588579  0.25124305  1
  Zn  Zn112  1  0.87504128  0.75410812  0.62734769  1
  Zn  Zn113  1  0.12361346  0.74909686  0.37526914  1
  Zn  Zn114  1  0.24978919  0.87474105  0.12316309  1
  Zn  Zn115  1  0.25009705  0.87452634  0.62317965  1
  Zn  Zn116  1  0.24517021  0.62820473  0.87094566  1
  Zn  Zn117  1  0.50048171  0.62557086  0.12562963  1
  Zn  Zn118  1  0.75054045  0.00010151  0.25047048  1
  Zn  Zn119  1  0.11213803  0.10656051  0.48599866  1
  Zn  Zn120  1  0.24931716  0.24930689  0.00165940  1
  Zn  Zn121  1  0.87654926  0.62625866  0.25162330  1
  Zn  Zn122  1  0.18780141  0.18802578  0.18780597  1
  Zn  Zn123  1  0.18612163  0.18684545  0.68910047  1
  Zn  Zn124  1  0.18803432  0.68673250  0.18143837  1
  Zn  Zn125  1  0.18661650  0.68666465  0.68538815  1
  Zn  Zn126  1  0.68758389  0.18943667  0.19399439  1
  Zn  Zn127  1  0.68616821  0.18454898  0.68971339  1
  Zn  Zn128  1  0.68886259  0.68842546  0.18768519  1
  Zn  Zn129  1  0.68648046  0.68679218  0.68717332  1
  Zn  Zn130  1  0.31117636  0.31288695  0.31165107  1
  Zn  Zn131  1  0.31093273  0.31197292  0.81264920  1
  Zn  Zn132  1  0.31283499  0.81487860  0.31486805  1
  Zn  Zn133  1  0.31560535  0.81225738  0.81344376  1
  Zn  Zn134  1  0.80974759  0.31280258  0.31167079  1
  Zn  Zn135  1  0.81121647  0.31082680  0.81127530  1
  Zn  Zn136  1  0.81285261  0.81477099  0.31472854  1
  Zn  Zn137  1  0.81551338  0.81337214  0.81147464  1
  Zn  Zn138  1  0.18691398  0.43677853  0.43603361  1
  Zn  Zn139  1  0.18707352  0.43889277  0.93827012  1
  Zn  Zn140  1  0.19282023  0.93503275  0.43621329  1
  Zn  Zn141  1  0.18766363  0.93525751  0.93519212  1
  Zn  Zn142  1  0.68692585  0.43743088  0.43784395  1
  Zn  Zn143  1  0.68583870  0.43760079  0.93782840  1
  Zn  Zn144  1  0.69116923  0.93988492  0.43660935  1
  Zn  Zn145  1  0.68747085  0.93879436  0.93808693  1
  Zn  Zn146  1  0.31174325  0.06387121  0.06232145  1
  Zn  Zn147  1  0.31163161  0.05809605  0.55883814  1
  Zn  Zn148  1  0.31078141  0.56388768  0.06325673  1
  Zn  Zn149  1  0.31298544  0.56233796  0.56243900  1
  Zn  Zn150  1  0.80982829  0.06277677  0.06483226  1
  Zn  Zn151  1  0.81239697  0.06160468  0.56540280  1
  Zn  Zn152  1  0.81209923  0.56476735  0.06269180  1
  Zn  Zn153  1  0.81156110  0.55964046  0.56180754  1
  Zn  Zn154  1  0.43754959  0.43721529  0.18682904  1
  Zn  Zn155  1  0.43676600  0.43702619  0.68601245  1
  Zn  Zn156  1  0.43929115  0.93670556  0.18796099  1
  Zn  Zn157  1  0.43773253  0.93485601  0.68513895  1
  Zn  Zn158  1  0.93656384  0.43954127  0.18774282  1
  Zn  Zn159  1  0.93615380  0.43808877  0.68808430  1
  Zn  Zn160  1  0.93748418  0.93906658  0.19088099  1
  Zn  Zn161  1  0.93635122  0.93536521  0.68820235  1
  Zn  Zn162  1  0.06132885  0.06227013  0.30993573  1
  Zn  Zn163  1  0.06298745  0.06230744  0.80523220  1
  Zn  Zn164  1  0.06170499  0.56225457  0.31161303  1
  Zn  Zn165  1  0.06166767  0.56065943  0.81208287  1
  Zn  Zn166  1  0.56558183  0.06490786  0.31252087  1
  Zn  Zn167  1  0.56737163  0.06220208  0.80943061  1
  Zn  Zn168  1  0.56313787  0.56622951  0.31220335  1
  Zn  Zn169  1  0.56301892  0.56193505  0.81263085  1
  Zn  Zn170  1  0.43485618  0.18607277  0.43538034  1
  Zn  Zn171  1  0.43602938  0.18771076  0.93842802  1
  Zn  Zn172  1  0.43806414  0.68809835  0.43622387  1
  Zn  Zn173  1  0.43574642  0.68685148  0.93736407  1
  Zn  Zn174  1  0.93623514  0.18913743  0.43992547  1
  Zn  Zn175  1  0.93841454  0.18885732  0.94032899  1
  Zn  Zn176  1  0.93845940  0.68925816  0.43679391  1
  Zn  Zn177  1  0.93679176  0.69060123  0.93672495  1
  Zn  Zn178  1  0.06183011  0.31367697  0.06199857  1
  Zn  Zn179  1  0.05850671  0.30916623  0.56166864  1
  Zn  Zn180  1  0.06226566  0.81272732  0.06047596  1
  Zn  Zn181  1  0.06658536  0.80885521  0.56744243  1
  Zn  Zn182  1  0.56156707  0.31344635  0.06275669  1
  Zn  Zn183  1  0.56070702  0.31010475  0.56280150  1
  Zn  Zn184  1  0.56187917  0.81293812  0.06536862  1
  Zn  Zn185  1  0.56685529  0.81295419  0.56604647  1
  O  O186  1  0.11897411  0.11639081  0.12574373  1
  O  O187  1  0.10960064  0.12669340  0.62709985  1
  O  O188  1  0.11750991  0.62315143  0.11361486  1
  O  O189  1  0.11702634  0.61846091  0.61965283  1
  O  O190  1  0.61177275  0.12668165  0.12693199  1
  O  O191  1  0.61652606  0.11965466  0.62328452  1
  O  O192  1  0.62490986  0.61985349  0.11792458  1
  O  O193  1  0.61784078  0.62222182  0.61799696  1
  O  O194  1  0.38051739  0.38046333  0.38007723  1
  O  O195  1  0.38004125  0.38024389  0.87863114  1
  O  O196  1  0.37145276  0.88344026  0.38327312  1
  O  O197  1  0.38210650  0.88072810  0.88134194  1
  O  O198  1  0.87687069  0.37783339  0.38274922  1
  O  O199  1  0.87836238  0.37973141  0.88077827  1
  O  O200  1  0.88528441  0.88382686  0.37569241  1
  O  O201  1  0.88585928  0.86954008  0.88559849  1
  O  O202  1  0.25554105  0.00101788  0.35982323  1
  O  O203  1  0.25528778  0.00386880  0.86557124  1
  O  O204  1  0.25645826  0.50499263  0.36925897  1
  O  O205  1  0.25573290  0.50115387  0.86658879  1
  O  O206  1  0.75937494  0.00942708  0.37099601  1
  O  O207  1  0.74191469  0.01231722  0.86710454  1
  O  O208  1  0.75406597  0.50536038  0.37040591  1
  O  O209  1  0.75372026  0.50470935  0.87060023  1
  O  O210  1  0.24831809  0.49749140  0.13371165  1
  O  O211  1  0.24494135  0.49341278  0.62919573  1
  O  O212  1  0.24239934  0.99889323  0.13484413  1
  O  O213  1  0.25569908  0.99778575  0.64162566  1
  O  O214  1  0.74527355  0.49620957  0.12933940  1
  O  O215  1  0.74914522  0.48769793  0.63136491  1
  O  O216  1  0.74565332  0.99829853  0.13251050  1
  O  O217  1  0.74170834  1.00236884  0.63486470  1
  O  O218  1  0.00331509  0.36992336  0.25540313  1
  O  O219  1  0.00632949  0.37483577  0.75671205  1
  O  O220  1  0.00922943  0.87128736  0.25786292  1
  O  O221  1  0.00740643  0.86781193  0.75565566  1
  O  O222  1  0.50054421  0.36906018  0.25790836  1
  O  O223  1  0.50336948  0.36876825  0.75415945  1
  O  O224  1  0.50903759  0.86219170  0.24687498  1
  O  O225  1  0.49999011  0.86703207  0.75751935  1
  O  O226  1  0.49453256  0.13000475  0.24245507  1
  O  O227  1  0.49412227  0.13048700  0.74241787  1
  O  O228  1  0.49382485  0.63691706  0.24930342  1
  O  O229  1  0.49441514  0.62936980  0.74505549  1
  O  O230  1  0.99380664  0.13267185  0.24446955  1
  O  O231  1  0.99562390  0.12849719  0.73880692  1
  O  O232  1  0.99914110  0.63311505  0.24326670  1
  O  O233  1  1.00175515  0.63159513  0.74264756  1
  O  O234  1  0.37432869  0.25728209  0.00592604  1
  O  O235  1  0.36653519  0.25550326  0.50435825  1
  O  O236  1  0.36895356  0.75445622  0.00565531  1
  O  O237  1  0.36929827  0.75450383  0.50251822  1
  O  O238  1  0.86841815  0.25704719  0.00682460  1
  O  O239  1  0.87745890  0.26241781  0.51060785  1
  O  O240  1  0.87138343  0.75926852  0.00764998  1
  O  O241  1  0.86377403  0.75079363  0.50042822  1
  O  O242  1  0.13396792  0.25180773  0.49347686  1
  O  O243  1  0.12551388  0.24964970  0.98675649  1
  O  O244  1  0.13699562  0.74280342  0.49993729  1
  O  O245  1  0.13544942  0.74200172  1.00632989  1
  O  O246  1  0.61891765  0.24662634  0.48622489  1
  O  O247  1  0.63077696  0.24962528  0.99405565  1
  O  O248  1  0.63138924  0.74564999  0.49303496  1
  O  O249  1  0.63021368  0.74604147  0.99534875  1
  O  O250  1  0.49445832  0.24312252  0.13051654  1
  O  O251  1  0.49329983  0.24181893  0.63083317  1
  O  O252  1  0.49383640  0.74739073  0.13532545  1
  O  O253  1  0.49580796  0.74313557  0.63113434  1
  O  O254  1  0.99352855  0.24559255  0.12988174  1
  O  O255  1  0.99066819  0.24243457  0.62847408  1
  O  O256  1  0.99269787  0.74681500  0.12919930  1
  O  O257  1  1.00060569  0.73897678  0.63416694  1
  O  O258  1  0.00390769  0.25577893  0.36948856  1
  O  O259  1  0.00784786  0.25619694  0.87372673  1
  O  O260  1  0.00248208  0.75917616  0.36727972  1
  O  O261  1  -0.00164152  0.75853383  0.86364300  1
  O  O262  1  0.50555147  0.25417840  0.37077011  1
  O  O263  1  0.50331612  0.25495455  0.86916020  1
  O  O264  1  0.51173345  0.74432592  0.36607599  1
  O  O265  1  0.50451393  0.75473154  0.87088960  1
  O  O266  1  0.25242537  0.14019395  0.50021342  1
  O  O267  1  0.24618561  0.12640948  0.99063090  1
  O  O268  1  0.24767433  0.63179094  0.49431801  1
  O  O269  1  0.24144348  0.63224635  0.99827656  1
  O  O270  1  0.75168212  0.12418947  0.48598580  1
  O  O271  1  0.74840016  0.13157243  0.99301541  1
  O  O272  1  0.74446067  0.63193908  0.49551590  1
  O  O273  1  0.74424196  0.63146134  0.99388463  1
  O  O274  1  0.25770804  0.37283288  0.00119234  1
  O  O275  1  0.25474648  0.36646958  0.50455076  1
  O  O276  1  0.25574769  0.86733103  0.00068613  1
  O  O277  1  0.25719976  0.85964562  0.50050533  1
  O  O278  1  0.75476606  0.37049352  0.00548224  1
  O  O279  1  0.75878777  0.38027099  0.51074986  1
  O  O280  1  0.75969493  0.86961471  -0.00050451  1
  O  O281  1  0.75110982  0.86209692  0.49993085  1
  O  O282  1  0.13103975  0.49426667  0.24874624  1
  O  O283  1  0.13070098  0.49427606  0.74431050  1
  O  O284  1  0.13206482  0.99342880  0.24227993  1
  O  O285  1  0.13523787  0.98975870  0.74659722  1
  O  O286  1  0.63102242  0.50047843  0.24424296  1
  O  O287  1  0.63054662  0.49192519  0.74847653  1
  O  O288  1  0.62325017  0.98648569  0.25155629  1
  O  O289  1  0.63563443  0.99935774  0.74028382  1
  O  O290  1  0.36873145  0.00158987  0.25552438  1
  O  O291  1  0.36874817  0.00274759  0.75633072  1
  O  O292  1  0.37072949  0.50598491  0.25548474  1
  O  O293  1  0.36959965  0.50404507  0.75369433  1
  O  O294  1  0.87556771  0.00768872  0.26160781  1
  O  O295  1  0.86019160  0.00234342  0.74572968  1
  O  O296  1  0.86743234  0.50244112  0.25685575  1
  O  O297  1  0.86757189  0.50134767  0.75764209  1
  O  O298  1  0.11789047  0.36984591  0.36911770  1
  O  O299  1  0.11942397  0.36844932  0.87018695  1
  O  O300  1  0.11960662  0.87513788  0.36387756  1
  O  O301  1  0.11759996  0.87594425  0.86325463  1
  O  O302  1  0.61933725  0.36720553  0.37492373  1
  O  O303  1  0.61815204  0.36958572  0.86956315  1
  O  O304  1  0.63113825  0.86293426  0.36788090  1
  O  O305  1  0.61787627  0.86789152  0.87505133  1
  O  O306  1  0.38426758  0.12986768  0.13033064  1
  O  O307  1  0.38107869  0.12745051  0.62982060  1
  O  O308  1  0.37645261  0.63261727  0.13245773  1
  O  O309  1  0.38131490  0.62979122  0.62978365  1
  O  O310  1  0.87953659  0.13185297  0.13088302  1
  O  O311  1  0.88333727  0.13411717  0.62340162  1
  O  O312  1  0.88089856  0.63831744  0.12393936  1
  O  O313  1  0.88743096  0.62368801  0.62569940  1
  O  O314  1  0.25826779  0.25166115  0.12313606  1
  O  O315  1  0.25366275  0.25410103  0.61866913  1
  O  O316  1  0.25747953  0.75264677  0.11437541  1
  O  O317  1  0.25818437  0.74680516  0.61415382  1
  O  O318  1  0.75429116  0.25544337  0.12144747  1
  O  O319  1  0.75715027  0.26079532  0.63116606  1
  O  O320  1  0.76052290  0.75156545  0.11872508  1
  O  O321  1  0.75023281  0.74992423  0.61458669  1
  O  O322  1  0.24429115  0.24983671  0.38334349  1
  O  O323  1  0.24039063  0.24384416  0.87423299  1
  O  O324  1  0.24921924  0.74322511  0.38358835  1
  O  O325  1  0.25729539  0.74746883  0.88943483  1
  O  O326  1  0.73980660  0.24242356  0.36957789  1
  O  O327  1  0.74378516  0.24457729  0.88053689  1
  O  O328  1  0.74274300  0.74514345  0.38260283  1
  O  O329  1  0.74509796  0.74492436  0.88003781  1
  O  O330  1  0.00271288  0.12135873  0.00752085  1
  O  O331  1  0.00126815  0.13093120  0.51491754  1
  O  O332  1  0.00613229  0.62321084  0.00330406  1
  O  O333  1  0.00650714  0.62502500  0.50880906  1
  O  O334  1  0.49969786  0.12028177  0.00941691  1
  O  O335  1  0.49788627  0.12877592  0.51462170  1
  O  O336  1  0.50641999  0.61890254  0.00055041  1
  O  O337  1  0.50425771  0.62025482  0.50453346  1
  O  O338  1  0.49331349  0.37988868  0.49537041  1
  O  O339  1  0.49378441  0.38127576  0.99337000  1
  O  O340  1  0.48755457  0.86699496  0.50255038  1
  O  O341  1  0.49442668  0.88021026  0.99506560  1
  O  O342  1  0.98922142  0.37657053  0.49417046  1
  O  O343  1  0.99299425  0.38116426  0.99431940  1
  O  O344  1  1.00453340  0.86662686  0.48631961  1
  O  O345  1  0.99496207  0.87527905  0.99013009  1
  O  O346  1  0.49503146  0.49579649  0.37980613  1
  O  O347  1  0.49388027  0.49380668  0.87978306  1
  O  O348  1  0.48721122  1.00429923  0.37057394  1
  O  O349  1  0.49565256  0.99623641  0.87929211  1
  O  O350  1  0.99208719  0.49305013  0.37557744  1
  O  O351  1  0.99322441  0.49461184  0.88063439  1
  O  O352  1  0.99330073  0.99127760  0.37033364  1
  O  O353  1  1.00442852  0.98622089  0.87256146  1
  O  O354  1  0.00987718  0.00635417  0.12809546  1
  O  O355  1  -0.00126183  0.01501087  0.62947392  1
  O  O356  1  -0.00235102  0.50846658  0.11730281  1
  O  O357  1  0.00564084  0.50887774  0.62494677  1
  O  O358  1  0.49932232  0.01056018  0.12036173  1
  O  O359  1  0.50996098  0.00984711  0.63462529  1
  O  O360  1  0.50633804  0.50234647  0.11860803  1
  O  O361  1  0.50058635  0.50532712  0.61764282  1
  O  O362  1  0.24281796  0.38193673  0.24990534  1
  O  O363  1  0.24444849  0.37971418  0.74300139  1
  O  O364  1  0.24113415  0.88218537  0.24808183  1
  O  O365  1  0.24439464  0.87995579  0.75216839  1
  O  O366  1  0.74797265  0.38300563  0.24279668  1
  O  O367  1  0.74380729  0.37933342  0.74264295  1
  O  O368  1  0.73916819  0.87421119  0.24849695  1
  O  O369  1  0.74817165  0.88493366  0.75178497  1
  O  O370  1  0.25699690  0.11492253  0.24889744  1
  O  O371  1  0.25488420  0.11631639  0.75448213  1
  O  O372  1  0.25476571  0.62082829  0.25428901  1
  O  O373  1  0.25554991  0.61858950  0.74970760  1
  O  O374  1  0.75725551  0.12527471  0.26145429  1
  O  O375  1  0.75195061  0.11914999  0.75894872  1
  O  O376  1  0.75262282  0.62042045  0.25741168  1
  O  O377  1  0.75027028  0.61820771  0.75638304  1
  O  O378  1  0.37124160  0.11519716  0.36886459  1
  O  O379  1  0.37011284  0.11950304  0.86845900  1
  O  O380  1  0.36954185  0.61961279  0.36905719  1
  O  O381  1  0.37343249  0.61752100  0.86698141  1
  O  O382  1  0.87111014  0.12119086  0.37163723  1
  O  O383  1  0.86095463  0.13397301  0.87439196  1
  O  O384  1  0.86913490  0.61830271  0.37496648  1
  O  O385  1  0.86774203  0.61865672  0.87542574  1
  O  O386  1  0.12498135  0.37785386  0.13295061  1
  O  O387  1  0.12880285  0.37851929  0.62935890  1
  O  O388  1  0.12334942  0.88392410  0.13452685  1
  O  O389  1  0.12937082  0.87491393  0.63869148  1
  O  O390  1  0.63104865  0.38252993  0.12642604  1
  O  O391  1  0.63260271  0.37324508  0.62949574  1
  O  O392  1  0.62786659  0.87476278  0.13660862  1
  O  O393  1  0.62856786  0.88489574  0.62921455  1
  O  O394  1  0.11880064  0.25586525  0.25516602  1
  O  O395  1  0.12460518  0.25679426  0.76088232  1
  O  O396  1  0.12162294  0.76056690  0.24756046  1
  O  O397  1  0.11707017  0.75756072  0.74560215  1
  O  O398  1  0.61679202  0.25236592  0.26212125  1
  O  O399  1  0.61835624  0.25573313  0.75553808  1
  O  O400  1  0.61919484  0.75553491  0.25725362  1
  O  O401  1  0.61820829  0.75010292  0.75767061  1
  O  O402  1  0.38011839  0.24390291  0.24625120  1
  O  O403  1  0.37815566  0.24349787  0.74384511  1
  O  O404  1  0.38160058  0.74781179  0.24752189  1
  O  O405  1  0.38031762  0.74410692  0.74416571  1
  O  O406  1  0.88026349  0.24620553  0.24481661  1
  O  O407  1  0.87602187  0.24939798  0.73759822  1
  O  O408  1  0.88078703  0.75148108  0.24082565  1
  O  O409  1  0.88765127  0.74659368  0.74740431  1
  O  O410  1  0.37947856  0.49433217  0.49365170  1
  O  O411  1  0.37961528  0.49591542  0.99450163  1
  O  O412  1  0.36626548  0.98789781  0.48868469  1
  O  O413  1  0.37989019  0.99498887  0.99428645  1
  O  O414  1  0.87640325  0.48838963  0.49411164  1
  O  O415  1  0.87883261  0.49530081  0.99459215  1
  O  O416  1  0.87111091  0.99894632  0.48562439  1
  O  O417  1  0.87813851  0.98533353  1.00892667  1
  O  O418  1  0.12432435  -0.00181631  0.01286665  1
  O  O419  1  0.15035881  0.00514118  0.51036325  1
  O  O420  1  0.11734879  0.50924776  0.00102315  1
  O  O421  1  0.12419385  0.50536898  0.50619166  1
  O  O422  1  0.61571552  0.00287301  0.00384247  1
  O  O423  1  0.63255165  0.00219655  0.51465594  1
  O  O424  1  0.61938575  0.50577781  0.00480787  1
  O  O425  1  0.61782096  0.50685995  0.50024229  1
  O  O426  1  0.37512077  0.36820337  0.11824790  1
  O  O427  1  0.36876398  0.36807411  0.61944362  1
  O  O428  1  0.37410070  0.86933209  0.11830248  1
  O  O429  1  0.37221473  0.86819436  0.61528738  1
  O  O430  1  0.86892702  0.37032864  0.11950339  1
  O  O431  1  0.86842538  0.36862197  0.61930275  1
  O  O432  1  0.87824461  0.86485395  0.11816155  1
  O  O433  1  0.87243656  0.87205213  0.61934791  1
  O  O434  1  0.12777606  0.13307869  0.37337708  1
  O  O435  1  0.12887746  0.13349390  0.87283297  1
  O  O436  1  0.13138625  0.62624861  0.38120308  1
  O  O437  1  0.12444124  0.62207656  0.88804794  1
  O  O438  1  0.63317814  0.13155884  0.37717666  1
  O  O439  1  0.63384635  0.13343802  0.87589567  1
  O  O440  1  0.63102443  0.63552198  0.38039675  1
  O  O441  1  0.63018790  0.63059245  0.88122917  1
