# generated using pymatgen
data_V93Zn93O256
_symmetry_space_group_name_H-M   'P 1'
_cell_length_a   17.05843458
_cell_length_b   17.06388963
_cell_length_c   17.06377398
_cell_angle_alpha   90.02372419
_cell_angle_beta   90.04391513
_cell_angle_gamma   90.05002050
_symmetry_Int_Tables_number   1
_chemical_formula_structural   V93Zn93O256
_chemical_formula_sum   'V93 Zn93 O256'
_cell_volume   4966.97492280
_cell_formula_units_Z   1
loop_
 _symmetry_equiv_pos_site_id
 _symmetry_equiv_pos_as_xyz
  1  'x, y, z'
loop_
 _atom_site_type_symbol
 _atom_site_label
 _atom_site_symmetry_multiplicity
 _atom_site_fract_x
 _atom_site_fract_y
 _atom_site_fract_z
 _atom_site_occupancy
  V  V0  1  0.23689965  0.13140283  0.37261540  1
  V  V1  1  0.74984096  0.62497642  0.87595370  1
  V  V2  1  0.12433761  0.87544000  0.24857412  1
  V  V3  1  0.00046127  0.50171603  0.00179158  1
  V  V4  1  0.75018627  0.24985126  0.50184785  1
  V  V5  1  0.36248349  0.75350947  0.62122290  1
  V  V6  1  0.87592661  0.87560585  0.00050660  1
  V  V7  1  0.25014805  0.62068813  0.86971551  1
  V  V8  1  0.50036996  0.62691938  0.62800658  1
  V  V9  1  -0.00011648  0.00049999  -0.00050132  1
  V  V10  1  0.62491407  0.50000411  0.12534437  1
  V  V11  1  0.25124500  0.37805309  0.62906134  1
  V  V12  1  0.62589046  0.74951180  0.37519725  1
  V  V13  1  0.37524788  0.25077450  0.12508782  1
  V  V14  1  0.12508009  0.00069312  0.12392116  1
  V  V15  1  0.25047745  0.37469400  0.12472638  1
  V  V16  1  0.37508540  0.62381037  0.24801703  1
  V  V17  1  0.62405359  0.75047425  0.87371354  1
  V  V18  1  0.74992691  0.87606638  0.62614626  1
  V  V19  1  0.00032338  0.87630332  0.37638981  1
  V  V20  1  0.12585570  0.25108438  0.87579899  1
  V  V21  1  0.00008101  0.75012799  0.25114113  1
  V  V22  1  0.13427670  0.88698268  0.74585975  1
  V  V23  1  0.50002046  0.12550728  0.12602952  1
  V  V24  1  0.75022203  0.49984431  0.25129096  1
  V  V25  1  0.87492119  0.12572913  0.25110390  1
  V  V26  1  0.87518430  0.50037354  0.87595336  1
  V  V27  1  0.62512372  0.00036597  0.12571095  1
  V  V28  1  0.25091323  0.62902551  0.37767875  1
  V  V29  1  0.62397894  0.87476393  0.24951488  1
  V  V30  1  0.00110276  0.37516010  0.87500387  1
  V  V31  1  0.74960137  0.00034733  0.25108127  1
  V  V32  1  0.00076145  0.62552449  0.62562733  1
  V  V33  1  0.62557541  0.12543453  0.00075643  1
  V  V34  1  0.49550635  -0.00717324  0.49768579  1
  V  V35  1  0.62361399  0.25017149  0.87441851  1
  V  V36  1  0.00099491  0.50017818  0.49985946  1
  V  V37  1  0.00141452  0.62443047  0.12504468  1
  V  V38  1  0.00027515  0.87650714  0.87445370  1
  V  V39  1  0.87557764  0.62437633  0.25134728  1
  V  V40  1  0.75074925  0.87521376  0.12472906  1
  V  V41  1  0.50033256  -0.00004984  0.00031408  1
  V  V42  1  0.13039363  0.50080190  0.63187250  1
  V  V43  1  0.62530768  0.37514793  0.25072580  1
  V  V44  1  0.87519707  0.25025914  0.62485528  1
  V  V45  1  0.12617269  0.37109379  0.25487688  1
  V  V46  1  0.75018009  0.00010124  0.74963165  1
  V  V47  1  0.25302514  0.12398516  0.87063979  1
  V  V48  1  0.01271969  0.12257447  0.62254418  1
  V  V49  1  0.37316768  0.87316874  -0.00092863  1
  V  V50  1  0.75117724  0.37520625  0.62539034  1
  V  V51  1  0.00422843  0.37050635  0.37686724  1
  V  V52  1  0.75056190  0.74926343  0.50012527  1
  V  V53  1  0.62407788  0.25062116  0.37530804  1
  V  V54  1  0.49962999  0.49700023  0.50019788  1
  V  V55  1  0.75028908  0.12518777  0.37673265  1
  V  V56  1  0.49940392  0.49894215  -0.00133820  1
  V  V57  1  0.87552503  0.25042117  0.12524448  1
  V  V58  1  0.12551191  0.12647638  -0.00048284  1
  V  V59  1  0.75086853  0.12517028  0.87442868  1
  V  V60  1  0.87511755  0.75075705  0.12569421  1
  V  V61  1  0.12725829  0.75135798  0.37708617  1
  V  V62  1  0.37492393  0.12488215  0.25172779  1
  V  V63  1  0.12757728  0.74929836  0.87656713  1
  V  V64  1  0.75004125  0.49915141  0.74990602  1
  V  V65  1  0.50120826  0.25030733  0.25137907  1
  V  V66  1  0.50035182  0.87451793  0.87353579  1
  V  V67  1  0.49984993  0.74910769  0.24792469  1
  V  V68  1  0.87629404  0.62552049  0.75049237  1
  V  V69  1  0.87561835  0.87618512  0.50021743  1
  V  V70  1  0.25036890  0.49988020  0.25082633  1
  V  V71  1  0.37100111  0.49870184  0.86655887  1
  V  V72  1  0.62468018  0.62373873  -0.00001077  1
  V  V73  1  0.37535622  0.24527871  0.62347633  1
  V  V74  1  0.62205594  0.12353164  0.50365838  1
  V  V75  1  0.24982515  0.87557744  0.12241769  1
  V  V76  1  0.25033812  0.00283657  0.24920273  1
  V  V77  1  0.87633856  0.50007957  0.37522917  1
  V  V78  1  0.01061541  0.00448687  0.50449794  1
  V  V79  1  0.87540960  0.12593237  0.74920992  1
  V  V80  1  0.00099849  0.25133508  0.74981964  1
  V  V81  1  0.62578493  0.49956373  0.62603902  1
  V  V82  1  0.75093269  0.25020954  0.00000173  1
  V  V83  1  0.87525224  0.37469739  0.00094782  1
  V  V84  1  -0.00033592  0.75126626  0.74993532  1
  V  V85  1  0.00197935  0.24984474  0.25375361  1
  V  V86  1  0.37284275  0.00321966  0.86852921  1
  V  V87  1  0.00048786  0.12562758  0.12563228  1
  V  V88  1  0.12975167  0.63037790  0.50048263  1
  V  V89  1  0.49882133  0.37382556  0.87422198  1
  V  V90  1  0.87478852  0.00038856  0.37641959  1
  V  V91  1  0.49531881  0.24201974  0.74921722  1
  V  V92  1  0.23488145  0.25006179  0.49358843  1
  Zn  Zn93  1  0.33888187  0.84350795  0.47706578  1
  Zn  Zn94  1  0.25070258  0.74671093  0.00114202  1
  Zn  Zn95  1  0.37372806  0.74897332  0.12278228  1
  Zn  Zn96  1  0.75188397  0.62358431  0.37693017  1
  Zn  Zn97  1  0.62213520  -0.00071749  0.62579728  1
  Zn  Zn98  1  0.62463104  0.37335805  0.74988839  1
  Zn  Zn99  1  0.87575576  0.74920338  0.62541357  1
  Zn  Zn100  1  0.49877656  0.62369907  0.12315455  1
  Zn  Zn101  1  0.37237437  -0.00307229  0.37349805  1
  Zn  Zn102  1  0.62496978  0.87535183  0.75044834  1
  Zn  Zn103  1  0.24099536  0.89908286  0.61470258  1
  Zn  Zn104  1  0.75035441  0.75023177  0.00065486  1
  Zn  Zn105  1  0.37380339  0.37506634  -0.00124113  1
  Zn  Zn106  1  0.37585338  0.49848729  0.37737080  1
  Zn  Zn107  1  0.62687371  0.62361351  0.50051994  1
  Zn  Zn108  1  0.12538825  0.50133957  0.12493808  1
  Zn  Zn109  1  0.37486949  0.37284695  0.49681090  1
  Zn  Zn110  1  0.87559084  0.37494407  0.49955337  1
  Zn  Zn111  1  0.75068994  0.37501552  0.12576280  1
  Zn  Zn112  1  0.49371108  0.87291008  0.37539845  1
  Zn  Zn113  1  0.49298608  0.11910865  0.62858672  1
  Zn  Zn114  1  0.25190831  0.25067932  -0.00057314  1
  Zn  Zn115  1  0.87568927  0.00039599  0.87553941  1
  Zn  Zn116  1  0.49801752  0.37575631  0.37549301  1
  Zn  Zn117  1  0.31253023  0.06249074  0.70743986  1
  Zn  Zn118  1  0.49724236  0.75170299  0.74863728  1
  Zn  Zn119  1  0.12828576  0.62334301  0.00244830  1
  Zn  Zn120  1  0.12927101  0.38070327  0.75400041  1
  Zn  Zn121  1  0.37101903  0.62391733  0.74733764  1
  Zn  Zn122  1  0.18735803  0.18972546  0.18795164  1
  Zn  Zn123  1  0.18733181  0.19584316  0.68753063  1
  Zn  Zn124  1  0.18781968  0.68894912  0.18712784  1
  Zn  Zn125  1  0.18487719  0.68952737  0.69139048  1
  Zn  Zn126  1  0.68846716  0.18878978  0.18760266  1
  Zn  Zn127  1  0.68549736  0.18848318  0.68810961  1
  Zn  Zn128  1  0.68903455  0.68527377  0.18684332  1
  Zn  Zn129  1  0.68728471  0.68619014  0.68845872  1
  Zn  Zn130  1  0.31616090  0.31327860  0.31425642  1
  Zn  Zn131  1  0.31387916  0.30990912  0.81132411  1
  Zn  Zn132  1  0.31169466  0.81220599  0.30635599  1
  Zn  Zn133  1  0.31280572  0.80976009  0.80880040  1
  Zn  Zn134  1  0.81332981  0.31381198  0.31413021  1
  Zn  Zn135  1  0.81347594  0.31297085  0.81220164  1
  Zn  Zn136  1  0.81265205  0.81319459  0.31264925  1
  Zn  Zn137  1  0.81337639  0.81179943  0.81411589  1
  Zn  Zn138  1  0.18884486  0.44049757  0.44057732  1
  Zn  Zn139  1  0.18697698  0.43935900  0.93944170  1
  Zn  Zn140  1  0.18832399  0.94257282  0.43362966  1
  Zn  Zn141  1  0.18829565  0.93946210  0.93367953  1
  Zn  Zn142  1  0.68671337  0.43650229  0.43839194  1
  Zn  Zn143  1  0.68666597  0.43602094  0.93751795  1
  Zn  Zn144  1  0.68467411  0.93671691  0.43766736  1
  Zn  Zn145  1  0.68873022  0.93733617  0.93788622  1
  Zn  Zn146  1  0.31253688  0.06326198  0.05933150  1
  Zn  Zn147  1  0.30917322  0.06679209  0.54520482  1
  Zn  Zn148  1  0.31235923  0.56063894  0.05818648  1
  Zn  Zn149  1  0.31528014  0.56377562  0.56283811  1
  Zn  Zn150  1  0.81332209  0.06242239  0.06281130  1
  Zn  Zn151  1  0.81708042  0.06310986  0.56384553  1
  Zn  Zn152  1  0.81181831  0.56279623  0.06402113  1
  Zn  Zn153  1  0.81456227  0.56190998  0.56284538  1
  Zn  Zn154  1  0.43870994  0.43793369  0.18800908  1
  Zn  Zn155  1  0.43830425  0.43210679  0.68677803  1
  Zn  Zn156  1  0.43666105  0.93752435  0.18707823  1
  Zn  Zn157  1  0.43904918  0.92949858  0.68254214  1
  Zn  Zn158  1  0.93796673  0.43749349  0.18818890  1
  Zn  Zn159  1  0.93884293  0.43799342  0.68752595  1
  Zn  Zn160  1  0.93751677  0.93814888  0.18763145  1
  Zn  Zn161  1  0.93953204  0.93835811  0.68724250  1
  Zn  Zn162  1  0.06064980  0.06016384  0.31274660  1
  Zn  Zn163  1  0.06272065  0.06526552  0.81211357  1
  Zn  Zn164  1  0.06394556  0.55973124  0.31210947  1
  Zn  Zn165  1  0.06203116  0.56427520  0.81446337  1
  Zn  Zn166  1  0.56199510  0.06327151  0.31534090  1
  Zn  Zn167  1  0.56303606  0.06134107  0.81412047  1
  Zn  Zn168  1  0.56389802  0.56327870  0.31380803  1
  Zn  Zn169  1  0.56140222  0.56119832  0.81167115  1
  Zn  Zn170  1  0.43418773  0.18534688  0.43711394  1
  Zn  Zn171  1  0.43593724  0.18808676  0.93927182  1
  Zn  Zn172  1  0.44039801  0.68258517  0.43887480  1
  Zn  Zn173  1  0.43778727  0.68464698  0.93533509  1
  Zn  Zn174  1  0.93938335  0.18710820  0.44078245  1
  Zn  Zn175  1  0.93792130  0.18787940  0.93672901  1
  Zn  Zn176  1  0.93942149  0.68726221  0.43838652  1
  Zn  Zn177  1  0.93876282  0.68879061  0.93875081  1
  Zn  Zn178  1  0.06360051  0.31349139  0.06363370  1
  Zn  Zn179  1  0.06159178  0.31468768  0.56610238  1
  Zn  Zn180  1  0.06153755  0.81216304  0.06183672  1
  Zn  Zn181  1  0.06394520  0.81456749  0.56389504  1
  Zn  Zn182  1  0.56249911  0.31460976  0.06270405  1
  Zn  Zn183  1  0.56294516  0.31242092  0.56508584  1
  Zn  Zn184  1  0.56206432  0.81164174  0.06117418  1
  Zn  Zn185  1  0.56315486  0.81080039  0.56466351  1
  O  O186  1  0.11963333  0.12058866  0.12068881  1
  O  O187  1  0.11099052  0.13040726  0.63147681  1
  O  O188  1  0.11739557  0.62357528  0.12397023  1
  O  O189  1  0.12267550  0.62018297  0.61838989  1
  O  O190  1  0.62032642  0.11976783  0.12056664  1
  O  O191  1  0.62390237  0.12355026  0.61247358  1
  O  O192  1  0.62376930  0.61829276  0.11828635  1
  O  O193  1  0.61734091  0.61911658  0.62414013  1
  O  O194  1  0.38042129  0.38077881  0.37856872  1
  O  O195  1  0.37905524  0.38201584  0.87608910  1
  O  O196  1  0.37617813  0.87675334  0.37532461  1
  O  O197  1  0.37870460  0.88197443  0.88174536  1
  O  O198  1  0.88686276  0.38175724  0.37575391  1
  O  O199  1  0.88096415  0.38053146  0.88122268  1
  O  O200  1  0.88108002  0.88072722  0.37956300  1
  O  O201  1  0.88201498  0.87643412  0.88213499  1
  O  O202  1  0.25063200  0.01284617  0.36655003  1
  O  O203  1  0.26066855  0.01046361  0.87820254  1
  O  O204  1  0.25030798  0.51223751  0.36918683  1
  O  O205  1  0.25963438  0.50726422  0.88087586  1
  O  O206  1  0.75443796  0.00458212  0.37021678  1
  O  O207  1  0.75135394  0.00595611  0.86622567  1
  O  O208  1  0.75710305  0.50117864  0.37032940  1
  O  O209  1  0.75573838  0.50490092  0.87029552  1
  O  O210  1  0.25073196  0.49013911  0.13198068  1
  O  O211  1  0.24172803  0.49021651  0.61566507  1
  O  O212  1  0.24373213  0.99625774  0.12897820  1
  O  O213  1  0.26470609  1.00703415  0.62587543  1
  O  O214  1  0.74384063  0.49803802  0.13284953  1
  O  O215  1  0.74621964  0.49572730  0.63001634  1
  O  O216  1  0.74460016  0.99604842  0.13174587  1
  O  O217  1  0.75055185  0.99219810  0.63227855  1
  O  O218  1  0.00739834  0.37106753  0.25765732  1
  O  O219  1  0.00111344  0.36937581  0.75768430  1
  O  O220  1  0.00454482  0.87087660  0.25587579  1
  O  O221  1  0.00672785  0.87018416  0.75539510  1
  O  O222  1  0.50766306  0.36780306  0.25087786  1
  O  O223  1  0.50290551  0.36253602  0.75617354  1
  O  O224  1  0.50517377  0.86525414  0.24999682  1
  O  O225  1  0.50622672  0.87274991  0.75796564  1
  O  O226  1  0.49624971  0.12970618  0.24468333  1
  O  O227  1  0.50553046  0.13706400  0.74832742  1
  O  O228  1  0.49169764  0.63247554  0.25036672  1
  O  O229  1  0.49886149  0.62531783  0.73777947  1
  O  O230  1  0.99424129  0.12928976  0.24557286  1
  O  O231  1  0.99433812  0.13066441  0.74328255  1
  O  O232  1  0.99556878  0.63054735  0.24623534  1
  O  O233  1  0.99533288  0.63095471  0.74570043  1
  O  O234  1  0.37339171  0.25408140  0.01010752  1
  O  O235  1  0.37195947  0.25148554  0.51104988  1
  O  O236  1  0.37650026  0.76302682  -0.00043134  1
  O  O237  1  0.38185539  0.74528901  0.51481418  1
  O  O238  1  0.87092950  0.25459290  0.00534110  1
  O  O239  1  0.86726352  0.25096293  0.50684540  1
  O  O240  1  0.87469042  0.75760022  0.00793632  1
  O  O241  1  0.86628898  0.75682880  0.49990786  1
  O  O242  1  0.13705383  0.25396770  0.50231603  1
  O  O243  1  0.12511755  0.24374095  0.99383554  1
  O  O244  1  0.11770331  0.73647662  0.49428748  1
  O  O245  1  0.12485602  0.75097386  0.98607839  1
  O  O246  1  0.62925514  0.24156014  0.49609538  1
  O  O247  1  0.63021664  0.24404297  0.99526544  1
  O  O248  1  0.63418333  0.75133213  0.49138820  1
  O  O249  1  0.62564731  0.74390855  0.98995614  1
  O  O250  1  0.49634550  0.24416510  0.13111510  1
  O  O251  1  0.49210232  0.24784485  0.63147805  1
  O  O252  1  0.49954515  0.74707374  0.13703432  1
  O  O253  1  0.49705151  0.74022028  0.62637125  1
  O  O254  1  0.99497844  0.24437783  0.13210823  1
  O  O255  1  0.99481606  0.24371459  0.62941174  1
  O  O256  1  0.99483167  0.74596909  0.13206641  1
  O  O257  1  0.99873961  0.74284167  0.63131301  1
  O  O258  1  -0.00622028  0.26223931  0.37051759  1
  O  O259  1  0.00526626  0.25547849  0.87020165  1
  O  O260  1  0.00587381  0.75694977  0.37039471  1
  O  O261  1  0.00814111  0.75536540  0.87036254  1
  O  O262  1  0.50708599  0.24827302  0.36859801  1
  O  O263  1  0.50259362  0.25274482  0.86837563  1
  O  O264  1  0.50873272  0.74949217  0.36632127  1
  O  O265  1  0.50861218  0.75493130  0.87375588  1
  O  O266  1  0.25049125  0.14247445  0.48705473  1
  O  O267  1  0.24273067  0.12714492  0.99111839  1
  O  O268  1  0.24046432  0.61895984  0.48921120  1
  O  O269  1  0.24839134  0.62809849  0.98866266  1
  O  O270  1  0.74250654  0.12858339  0.49595993  1
  O  O271  1  0.74548532  0.12984003  0.99504827  1
  O  O272  1  0.74993707  0.63777585  0.49995625  1
  O  O273  1  0.74369124  0.62619957  0.99319305  1
  O  O274  1  0.24999737  0.37410318  0.01433303  1
  O  O275  1  0.25063834  0.36413370  0.50603168  1
  O  O276  1  0.25932899  0.87628209  0.00322661  1
  O  O277  1  0.23748745  0.87370460  0.50430346  1
  O  O278  1  0.75740784  0.36778877  0.00071472  1
  O  O279  1  0.75169288  0.36743477  0.50702785  1
  O  O280  1  0.75716795  0.87525931  0.00785496  1
  O  O281  1  0.75424199  0.86884174  0.50674884  1
  O  O282  1  0.13105310  0.48870324  0.24769332  1
  O  O283  1  0.12110984  0.50194752  0.73548346  1
  O  O284  1  0.12937653  0.99459332  0.24281929  1
  O  O285  1  0.12155170  0.98522793  0.75588804  1
  O  O286  1  0.62989765  0.49583581  0.24599697  1
  O  O287  1  0.63281656  0.49798635  0.74431568  1
  O  O288  1  0.62977945  0.99566977  0.24551306  1
  O  O289  1  0.63846058  0.99983448  0.74805567  1
  O  O290  1  0.36800091  0.00690410  0.24917874  1
  O  O291  1  0.38549042  -0.00392380  0.76503512  1
  O  O292  1  0.37124049  0.51049338  0.25238944  1
  O  O293  1  0.38081163  0.50034516  0.76324670  1
  O  O294  1  0.86970082  0.00576021  0.25594187  1
  O  O295  1  0.86429989  0.00581051  0.75096243  1
  O  O296  1  0.87068932  0.50485996  0.25564628  1
  O  O297  1  0.87071955  0.50601575  0.75661748  1
  O  O298  1  0.11551241  0.38234458  0.36640140  1
  O  O299  1  0.11952999  0.37050389  0.87433643  1
  O  O300  1  0.11873358  0.87108517  0.36697818  1
  O  O301  1  0.12107322  0.86793142  0.86689945  1
  O  O302  1  0.62266044  0.36741210  0.36876243  1
  O  O303  1  0.61781636  0.36707663  0.87403978  1
  O  O304  1  0.62423793  0.86348104  0.36791106  1
  O  O305  1  0.61983132  0.86610251  0.87731729  1
  O  O306  1  0.38081003  0.12966400  0.13005674  1
  O  O307  1  0.37300014  0.13643997  0.62632015  1
  O  O308  1  0.37482713  0.62654184  0.13645750  1
  O  O309  1  0.38333661  0.63200388  0.62700592  1
  O  O310  1  0.88098167  0.13001690  0.13144585  1
  O  O311  1  0.88021126  0.13304359  0.63221110  1
  O  O312  1  0.88066620  0.63134673  0.13175184  1
  O  O313  1  0.88276100  0.62555267  0.63249655  1
  O  O314  1  0.25607624  0.25967231  0.12592615  1
  O  O315  1  0.25497122  0.25535795  0.61238098  1
  O  O316  1  0.25232460  0.75956046  0.12181548  1
  O  O317  1  0.26302618  0.74172370  0.62600389  1
  O  O318  1  0.75750878  0.25018425  0.11816321  1
  O  O319  1  0.75507677  0.25495707  0.62148294  1
  O  O320  1  0.75656482  0.75738844  0.12475922  1
  O  O321  1  0.75027634  0.75786807  0.61687253  1
  O  O322  1  0.25209213  0.24840594  0.38682208  1
  O  O323  1  0.24550264  0.24324984  0.87856010  1
  O  O324  1  0.24323248  0.73726391  0.36689936  1
  O  O325  1  0.24221196  0.74271021  0.87705921  1
  O  O326  1  0.74495845  0.24422319  0.38113435  1
  O  O327  1  0.74493326  0.24442793  0.87993894  1
  O  O328  1  0.74330861  0.75150841  0.38370072  1
  O  O329  1  0.74141636  0.74419669  0.87759808  1
  O  O330  1  0.00496882  0.12060710  0.00620248  1
  O  O331  1  -0.00669528  0.11635742  0.51045704  1
  O  O332  1  0.00003926  0.61907325  0.00739200  1
  O  O333  1  0.00914117  0.61975679  0.50496806  1
  O  O334  1  0.50619524  0.11983482  0.00643895  1
  O  O335  1  0.50915951  0.11502941  0.49979414  1
  O  O336  1  0.50635752  0.61746744  0.00088419  1
  O  O337  1  0.50389734  0.61563875  0.51128340  1
  O  O338  1  0.50099210  0.38634066  0.50086024  1
  O  O339  1  0.49867510  0.38091274  0.99221237  1
  O  O340  1  0.50756787  0.88909972  0.49907788  1
  O  O341  1  0.49215996  0.88059476  0.99533352  1
  O  O342  1  1.00139100  0.38074423  0.49147999  1
  O  O343  1  0.99423931  0.38033844  0.99501628  1
  O  O344  1  0.99492704  0.88233065  0.49635386  1
  O  O345  1  0.99561605  0.88141839  0.99518961  1
  O  O346  1  0.50136219  0.50218941  0.38823085  1
  O  O347  1  0.49308961  0.49402073  0.87926910  1
  O  O348  1  0.50083543  0.99646815  0.38573225  1
  O  O349  1  0.49409913  0.99565976  0.88220395  1
  O  O350  1  0.99631565  0.49131268  0.37956116  1
  O  O351  1  0.99405620  0.49564319  0.88065468  1
  O  O352  1  0.99357064  0.99588299  0.38212809  1
  O  O353  1  0.99845312  0.99537542  0.88247127  1
  O  O354  1  0.00562518  0.00612455  0.12060073  1
  O  O355  1  -0.00794456  0.01058563  0.61599926  1
  O  O356  1  -0.00051694  0.50675979  0.11972216  1
  O  O357  1  0.00902994  0.50553758  0.61968504  1
  O  O358  1  0.50607413  0.00555622  0.12038825  1
  O  O359  1  0.50175188  0.00086892  0.61284959  1
  O  O360  1  0.50676855  0.50116481  0.11795750  1
  O  O361  1  0.50486749  0.50581552  0.61994496  1
  O  O362  1  0.24357287  0.37836534  0.24536274  1
  O  O363  1  0.24725300  0.36573937  0.73289232  1
  O  O364  1  0.24340684  0.88220152  0.24283303  1
  O  O365  1  0.23591546  0.87432498  0.75157935  1
  O  O366  1  0.74371639  0.38127544  0.24948323  1
  O  O367  1  0.75023783  0.38195699  0.74397745  1
  O  O368  1  0.74472314  0.88125075  0.24476446  1
  O  O369  1  0.75162773  0.88298146  0.74309115  1
  O  O370  1  0.25531183  0.12276962  0.25364145  1
  O  O371  1  0.24695191  0.13370202  0.76574326  1
  O  O372  1  0.25670996  0.62055483  0.25655325  1
  O  O373  1  0.24976880  0.62796474  0.76563751  1
  O  O374  1  0.75491830  0.11985960  0.25633620  1
  O  O375  1  0.75454258  0.11851338  0.75383286  1
  O  O376  1  0.75802001  0.61873967  0.25296277  1
  O  O377  1  0.75633859  0.61897290  0.75584987  1
  O  O378  1  0.36434453  0.12423625  0.36622188  1
  O  O379  1  0.36626272  0.11485128  0.88298833  1
  O  O380  1  0.36675820  0.62565215  0.36597478  1
  O  O381  1  0.36786665  0.61698246  0.87253585  1
  O  O382  1  0.86971466  0.12028883  0.37009281  1
  O  O383  1  0.86864500  0.12445682  0.86770607  1
  O  O384  1  0.87641774  0.61853511  0.36878206  1
  O  O385  1  0.87028845  0.62005162  0.87068346  1
  O  O386  1  0.13406968  0.37624278  0.13530442  1
  O  O387  1  0.13220428  0.38561337  0.62543819  1
  O  O388  1  0.12889516  0.88104155  0.12899851  1
  O  O389  1  0.12642717  0.86791716  0.64292007  1
  O  O390  1  0.62783297  0.38150796  0.13215323  1
  O  O391  1  0.63354908  0.38121745  0.62764878  1
  O  O392  1  0.62988143  0.88102061  0.12952889  1
  O  O393  1  0.63913049  0.87628681  0.62731626  1
  O  O394  1  0.11839458  0.26322761  0.24595671  1
  O  O395  1  0.11701308  0.25492541  0.75850967  1
  O  O396  1  0.11873077  0.75634612  0.25610972  1
  O  O397  1  0.11894703  0.75613321  0.76184810  1
  O  O398  1  0.62095761  0.25398509  0.25533762  1
  O  O399  1  0.61647347  0.25091918  0.75697922  1
  O  O400  1  0.61902312  0.75346705  0.25595148  1
  O  O401  1  0.62566193  0.75085561  0.76425449  1
  O  O402  1  0.38159386  0.24417412  0.24416725  1
  O  O403  1  0.38484808  0.25414418  0.73798236  1
  O  O404  1  0.38390751  0.74127012  0.24832908  1
  O  O405  1  0.37841705  0.74620321  0.73675445  1
  O  O406  1  0.88062163  0.24426205  0.24572085  1
  O  O407  1  0.88126152  0.24523215  0.74507393  1
  O  O408  1  0.88101937  0.74563820  0.24609063  1
  O  O409  1  0.88120933  0.74321426  0.74951182  1
  O  O410  1  0.38751019  0.49906433  0.50003031  1
  O  O411  1  0.38271056  0.49743396  0.98945333  1
  O  O412  1  0.39253575  1.00401929  0.49445103  1
  O  O413  1  0.38084639  0.99106809  0.99245153  1
  O  O414  1  0.88329923  0.49886994  0.49394086  1
  O  O415  1  0.87966830  0.49473597  0.99485789  1
  O  O416  1  0.87960140  0.99398932  0.49310446  1
  O  O417  1  0.88214447  0.99407787  1.00014056  1
  O  O418  1  0.11949091  0.00556929  0.00497547  1
  O  O419  1  0.10843806  -0.00130187  0.49509447  1
  O  O420  1  0.11493867  0.50216145  0.00393183  1
  O  O421  1  0.12013037  0.51112017  0.50801963  1
  O  O422  1  0.62055254  0.00558997  0.00592873  1
  O  O423  1  0.61717415  0.00849356  0.49974189  1
  O  O424  1  0.61968557  0.50448482  0.00421286  1
  O  O425  1  0.61834382  0.50213760  0.50747795  1
  O  O426  1  0.36467838  0.36986004  0.12805539  1
  O  O427  1  0.36616736  0.36693348  0.62121997  1
  O  O428  1  0.36946901  0.87630673  0.11397742  1
  O  O429  1  0.36958918  0.85820918  0.62423632  1
  O  O430  1  0.87487271  0.36774535  0.11916951  1
  O  O431  1  0.87019486  0.36867460  0.62316787  1
  O  O432  1  0.87067942  0.87040922  0.12139568  1
  O  O433  1  0.86441393  0.87291025  0.61988316  1
  O  O434  1  0.13768476  0.12724933  0.36327401  1
  O  O435  1  0.13241201  0.13034778  0.88052363  1
  O  O436  1  0.13119793  0.62937516  0.38138812  1
  O  O437  1  0.13136370  0.63308374  0.87673709  1
  O  O438  1  0.63124234  0.13018400  0.38384954  1
  O  O439  1  0.63086097  0.13008789  0.88239170  1
  O  O440  1  0.62915267  0.63903452  0.37660385  1
  O  O441  1  0.62932798  0.63138953  0.87980741  1
