# generated using pymatgen
data_V93Zn93O256
_symmetry_space_group_name_H-M   'P 1'
_cell_length_a   17.05212602
_cell_length_b   17.05365871
_cell_length_c   17.05360089
_cell_angle_alpha   89.98886436
_cell_angle_beta   89.98732719
_cell_angle_gamma   89.91469354
_symmetry_Int_Tables_number   1
_chemical_formula_structural   V93Zn93O256
_chemical_formula_sum   'V93 Zn93 O256'
_cell_volume   4959.20082548
_cell_formula_units_Z   1
loop_
 _symmetry_equiv_pos_site_id
 _symmetry_equiv_pos_as_xyz
  1  'x, y, z'
loop_
 _atom_site_type_symbol
 _atom_site_label
 _atom_site_symmetry_multiplicity
 _atom_site_fract_x
 _atom_site_fract_y
 _atom_site_fract_z
 _atom_site_occupancy
  V  V0  1  -0.00004988  0.25290729  0.75748758  1
  V  V1  1  0.00222956  0.50212142  0.00408736  1
  V  V2  1  0.25037585  0.24989214  0.00015650  1
  V  V3  1  0.49903545  0.00651567  0.50602894  1
  V  V4  1  0.37619917  0.62393400  0.24989081  1
  V  V5  1  0.50668520  0.87473762  0.87145804  1
  V  V6  1  0.37526040  0.37522957  0.00095271  1
  V  V7  1  0.24943027  0.12590470  0.87591737  1
  V  V8  1  0.49766208  0.49989400  0.50277472  1
  V  V9  1  0.24951821  0.49965227  0.75087996  1
  V  V10  1  0.62487499  0.24990361  0.87378384  1
  V  V11  1  0.25006011  0.62518797  0.87513448  1
  V  V12  1  0.74906385  0.12457293  0.87437713  1
  V  V13  1  0.37585683  0.74978256  0.12446179  1
  V  V14  1  0.50024376  0.37401238  0.87523525  1
  V  V15  1  0.24911537  0.24967304  0.50345305  1
  V  V16  1  0.12444583  0.75027525  0.87451954  1
  V  V17  1  0.87717369  0.50139024  0.37532702  1
  V  V18  1  0.74628224  -0.00237739  0.75029257  1
  V  V19  1  0.49924665  0.49942622  -0.00097084  1
  V  V20  1  0.50084787  0.74847097  0.24995822  1
  V  V21  1  0.88201502  0.62524357  0.24570365  1
  V  V22  1  0.37482936  0.87519916  0.50013435  1
  V  V23  1  0.37474542  0.12555156  0.25023500  1
  V  V24  1  0.62784261  0.49896279  0.62794770  1
  V  V25  1  0.87484452  -0.00075470  0.87483187  1
  V  V26  1  0.49989134  -0.00011986  0.00022527  1
  V  V27  1  0.50014202  0.62495521  0.12557637  1
  V  V28  1  0.50008683  0.24712375  0.74288584  1
  V  V29  1  0.87421901  0.24960081  0.62520900  1
  V  V30  1  0.12229226  0.37455196  0.75728159  1
  V  V31  1  0.50683434  0.75395598  0.75035736  1
  V  V32  1  0.37760321  0.25032766  0.12817110  1
  V  V33  1  0.37491160  0.74996333  0.62525734  1
  V  V34  1  0.12393061  0.75097479  0.37460483  1
  V  V35  1  0.62732948  0.49844191  0.12473395  1
  V  V36  1  0.87803908  0.24972404  0.12512035  1
  V  V37  1  -0.00094939  0.87529555  0.37403268  1
  V  V38  1  0.37388833  0.62453273  0.75067433  1
  V  V39  1  0.37417917  0.37440749  0.50054051  1
  V  V40  1  0.75090416  0.24918194  -0.00397660  1
  V  V41  1  0.37497297  0.00035050  0.87465347  1
  V  V42  1  0.49998999  0.62603129  0.62595063  1
  V  V43  1  0.87421791  0.75061085  0.62373649  1
  V  V44  1  0.87945234  0.49944352  0.87380401  1
  V  V45  1  0.00167026  0.12167024  0.12714642  1
  V  V46  1  0.62219635  0.00028586  0.62908470  1
  V  V47  1  0.37456796  0.49911774  0.37448410  1
  V  V48  1  0.62463064  0.74721389  0.37407003  1
  V  V49  1  0.74502360  0.87424225  0.62898095  1
  V  V50  1  -0.00167856  -0.00078599  0.49994830  1
  V  V51  1  0.87433924  0.12468204  0.74974044  1
  V  V52  1  0.00005090  0.74949225  0.75025784  1
  V  V53  1  0.74913382  0.00297315  0.25479062  1
  V  V54  1  0.12454365  0.49985078  0.62644402  1
  V  V55  1  0.37447358  0.87482041  -0.00062055  1
  V  V56  1  0.75044582  0.37705304  0.12277075  1
  V  V57  1  0.12418539  -0.00098169  0.62561938  1
  V  V58  1  0.62658362  0.12631258  0.49814204  1
  V  V59  1  0.12085331  0.62569652  0.00787608  1
  V  V60  1  0.74785386  0.24552135  0.49550643  1
  V  V61  1  0.24959107  0.00049777  0.74974511  1
  V  V62  1  0.24986887  0.75031673  0.50029899  1
  V  V63  1  0.75082055  0.75011288  -0.00062665  1
  V  V64  1  0.25007675  0.62605588  0.37456338  1
  V  V65  1  0.87159121  0.00641281  0.37529264  1
  V  V66  1  0.12410606  0.12489975  0.50055972  1
  V  V67  1  0.75019000  0.87493196  0.12588507  1
  V  V68  1  0.50031697  0.87297402  0.37585113  1
  V  V69  1  0.24896859  0.87529999  0.62547757  1
  V  V70  1  -0.00010705  0.62520625  0.62566382  1
  V  V71  1  0.75209618  0.62766655  0.37481106  1
  V  V72  1  -0.00075233  0.12360960  0.62662274  1
  V  V73  1  0.12294970  0.25055491  0.37569110  1
  V  V74  1  0.62476246  -0.00099409  0.12528462  1
  V  V75  1  0.12543842  0.37530613  0.24913713  1
  V  V76  1  0.24829741  0.87701324  0.12455995  1
  V  V77  1  0.12567893  0.12241682  0.00322248  1
  V  V78  1  0.25017851  0.75011553  -0.00067999  1
  V  V79  1  0.88438059  0.37467142  -0.00679888  1
  V  V80  1  0.37809847  0.12629623  0.74308183  1
  V  V81  1  0.49844609  0.12448669  0.12447315  1
  V  V82  1  0.12334591  0.87927213  0.24530407  1
  V  V83  1  0.87623491  0.37521145  0.50133080  1
  V  V84  1  0.00017643  0.87530872  0.87431275  1
  V  V85  1  0.37388962  -0.00047108  0.37532400  1
  V  V86  1  0.24730098  0.00053242  0.24605221  1
  V  V87  1  0.62582620  0.62774022  -0.00350753  1
  V  V88  1  0.25001806  0.37613787  0.12544184  1
  V  V89  1  0.62551652  0.62588906  0.49968649  1
  V  V90  1  0.00201571  -0.00075652  0.00284880  1
  V  V91  1  0.88175294  0.74552070  0.12478293  1
  V  V92  1  0.12443119  0.62422860  0.50045021  1
  Zn  Zn93  1  0.87231112  0.87624636  0.49840765  1
  Zn  Zn94  1  0.62594107  0.37443093  0.74970119  1
  Zn  Zn95  1  0.62371657  0.12438910  -0.00207018  1
  Zn  Zn96  1  0.12520451  0.87536957  0.75037625  1
  Zn  Zn97  1  0.37507997  0.49944494  0.87482179  1
  Zn  Zn98  1  0.63102866  0.75441242  0.86881438  1
  Zn  Zn99  1  0.24908544  0.12348284  0.37445635  1
  Zn  Zn100  1  0.24977759  0.50124810  0.24774158  1
  Zn  Zn101  1  0.62495264  0.87364729  0.25139880  1
  Zn  Zn102  1  0.75370338  0.49984463  0.24858047  1
  Zn  Zn103  1  0.00359005  0.74710527  0.24542574  1
  Zn  Zn104  1  0.74903578  0.75308409  0.49916241  1
  Zn  Zn105  1  0.75216052  0.62491933  0.87200927  1
  Zn  Zn106  1  0.87255617  0.62257935  0.75017576  1
  Zn  Zn107  1  0.51273894  0.24486916  0.25837985  1
  Zn  Zn108  1  0.75046200  0.49893852  0.75360653  1
  Zn  Zn109  1  0.00066981  0.37586048  0.37394048  1
  Zn  Zn110  1  0.87609227  0.87412887  0.00105911  1
  Zn  Zn111  1  0.24991783  0.37432261  0.62791885  1
  Zn  Zn112  1  0.74935457  0.37422475  0.62811670  1
  Zn  Zn113  1  0.63177538  0.36247205  0.26022984  1
  Zn  Zn114  1  0.87146015  0.12827505  0.25288999  1
  Zn  Zn115  1  0.00123257  0.49853879  0.50188645  1
  Zn  Zn116  1  0.12164890  0.25398158  0.87846233  1
  Zn  Zn117  1  0.37921179  0.24677702  0.62161609  1
  Zn  Zn118  1  0.12237785  0.50564233  0.12951833  1
  Zn  Zn119  1  0.51273535  0.36476344  0.37575906  1
  Zn  Zn120  1  0.69005404  0.18239941  0.33287768  1
  Zn  Zn121  1  0.00006196  0.24908657  0.25104757  1
  Zn  Zn122  1  0.18866410  0.18858962  0.18644523  1
  Zn  Zn123  1  0.18653794  0.18714486  0.68872045  1
  Zn  Zn124  1  0.18999123  0.69109418  0.18901103  1
  Zn  Zn125  1  0.18620979  0.68723195  0.68822666  1
  Zn  Zn126  1  0.68786000  0.18595053  0.17243223  1
  Zn  Zn127  1  0.68594714  0.18515767  0.68343832  1
  Zn  Zn128  1  0.69055045  0.68503355  0.18834685  1
  Zn  Zn129  1  0.69069607  0.68311280  0.68790350  1
  Zn  Zn130  1  0.31187561  0.31174642  0.31362624  1
  Zn  Zn131  1  0.31247868  0.31242646  0.81371104  1
  Zn  Zn132  1  0.31240948  0.81278211  0.31208701  1
  Zn  Zn133  1  0.31474410  0.81281462  0.81185305  1
  Zn  Zn134  1  0.81538768  0.31752005  0.31061779  1
  Zn  Zn135  1  0.81058781  0.31531071  0.80990772  1
  Zn  Zn136  1  0.81319340  0.81429697  0.31084586  1
  Zn  Zn137  1  0.81443382  0.81352193  0.81114914  1
  Zn  Zn138  1  0.18890651  0.43738152  0.43798157  1
  Zn  Zn139  1  0.18800390  0.43990238  0.93786382  1
  Zn  Zn140  1  0.18614340  0.93721965  0.43558557  1
  Zn  Zn141  1  0.18603072  0.93815602  0.93652476  1
  Zn  Zn142  1  0.69302493  0.43841847  0.44271825  1
  Zn  Zn143  1  0.69025846  0.43651275  0.93601458  1
  Zn  Zn144  1  0.68616619  0.93582890  0.43994214  1
  Zn  Zn145  1  0.68779335  0.93798183  0.93952846  1
  Zn  Zn146  1  0.31353245  0.06235899  0.06382575  1
  Zn  Zn147  1  0.31016892  0.06230726  0.56228252  1
  Zn  Zn148  1  0.31035456  0.56104845  0.06276902  1
  Zn  Zn149  1  0.31015452  0.56255681  0.56444852  1
  Zn  Zn150  1  0.81341390  0.06175359  0.06245268  1
  Zn  Zn151  1  0.80992275  0.06258889  0.56220096  1
  Zn  Zn152  1  0.81483184  0.56354814  0.05895992  1
  Zn  Zn153  1  0.81155157  0.56472880  0.56162452  1
  Zn  Zn154  1  0.44417784  0.43215663  0.19125283  1
  Zn  Zn155  1  0.43813373  0.43541614  0.68834797  1
  Zn  Zn156  1  0.43674173  0.93691638  0.18833533  1
  Zn  Zn157  1  0.43639739  0.93682868  0.68823955  1
  Zn  Zn158  1  0.94070242  0.43806642  0.18652820  1
  Zn  Zn159  1  0.93965101  0.43636194  0.68789089  1
  Zn  Zn160  1  0.93391962  0.93591975  0.18770979  1
  Zn  Zn161  1  0.93521858  0.93511629  0.68829675  1
  Zn  Zn162  1  0.06129224  0.06214715  0.31361649  1
  Zn  Zn163  1  0.06321866  0.06400467  0.81431782  1
  Zn  Zn164  1  0.06197817  0.56199358  0.31386973  1
  Zn  Zn165  1  0.06011205  0.56230085  0.81612180  1
  Zn  Zn166  1  0.55837720  0.05793371  0.31331778  1
  Zn  Zn167  1  0.56198368  0.06430540  0.81232394  1
  Zn  Zn168  1  0.57971981  0.53253268  0.32824867  1
  Zn  Zn169  1  0.56034364  0.56324918  0.81226229  1
  Zn  Zn170  1  0.43772033  0.18707468  0.43383854  1
  Zn  Zn171  1  0.43704746  0.18788669  0.93568555  1
  Zn  Zn172  1  0.43796669  0.68585783  0.43729417  1
  Zn  Zn173  1  0.43797389  0.68800065  0.93559804  1
  Zn  Zn174  1  0.93746510  0.18759418  0.43914492  1
  Zn  Zn175  1  0.93607709  0.18467539  0.93800352  1
  Zn  Zn176  1  0.93922663  0.68859179  0.43787716  1
  Zn  Zn177  1  0.93826423  0.68477901  0.93685478  1
  Zn  Zn178  1  0.06391514  0.31155902  0.06297630  1
  Zn  Zn179  1  0.06127397  0.31344229  0.56810848  1
  Zn  Zn180  1  0.06355640  0.81362390  0.06155899  1
  Zn  Zn181  1  0.06148323  0.81340630  0.56160662  1
  Zn  Zn182  1  0.56204941  0.31059953  0.06226219  1
  Zn  Zn183  1  0.56321077  0.31327876  0.55981121  1
  Zn  Zn184  1  0.56344666  0.81426015  0.06229340  1
  Zn  Zn185  1  0.56301896  0.81457863  0.56175634  1
  O  O186  1  0.11476266  0.13169421  0.11364305  1
  O  O187  1  0.11924618  0.11860369  0.62028993  1
  O  O188  1  0.13213009  0.62691269  0.11199448  1
  O  O189  1  0.12008810  0.62037872  0.61975453  1
  O  O190  1  0.61680983  0.11606171  0.11867565  1
  O  O191  1  0.62915966  0.11043791  0.61227059  1
  O  O192  1  0.62183377  0.61975771  0.11350619  1
  O  O193  1  0.61854597  0.61901429  0.61952717  1
  O  O194  1  0.37004271  0.38456597  0.38600477  1
  O  O195  1  0.38181574  0.37593134  0.88327920  1
  O  O196  1  0.37953847  0.87917439  0.38147110  1
  O  O197  1  0.38279695  0.88065015  0.88070639  1
  O  O198  1  0.87700255  0.38438006  0.38230631  1
  O  O199  1  0.87027507  0.38136434  0.88746953  1
  O  O200  1  0.88128662  0.88534401  0.37530555  1
  O  O201  1  0.88231098  0.88161182  0.87807863  1
  O  O202  1  0.25540515  -0.00110261  0.36446287  1
  O  O203  1  0.25546807  0.00508439  0.86995414  1
  O  O204  1  0.26039870  0.50701082  0.37520954  1
  O  O205  1  0.25220427  0.50765676  0.86851405  1
  O  O206  1  0.75847602  -0.00762375  0.36584012  1
  O  O207  1  0.75430904  0.00359067  0.87042363  1
  O  O208  1  0.76508327  0.50748035  0.37409807  1
  O  O209  1  0.76402201  0.50232315  0.87858154  1
  O  O210  1  0.24539498  0.49139113  0.12748660  1
  O  O211  1  0.24189312  0.50015444  0.63345867  1
  O  O212  1  0.25608097  0.99303595  0.13788998  1
  O  O213  1  0.24382143  0.99450231  0.62963863  1
  O  O214  1  0.74529076  0.49091988  0.11880074  1
  O  O215  1  0.73750096  0.50079273  0.62364766  1
  O  O216  1  0.74671276  0.99571296  0.13264928  1
  O  O217  1  0.74319640  0.99285948  0.62980177  1
  O  O218  1  0.01186721  0.37090960  0.25084403  1
  O  O219  1  0.00920842  0.36264072  0.74448770  1
  O  O220  1  0.00950606  0.87635446  0.25411533  1
  O  O221  1  0.00190836  0.86868249  0.75671251  1
  O  O222  1  0.51208177  0.36641069  0.25170355  1
  O  O223  1  0.50048468  0.36473800  0.75721328  1
  O  O224  1  0.49993607  0.86728210  0.25720519  1
  O  O225  1  0.49173490  0.86520491  0.75997931  1
  O  O226  1  0.49222202  0.12266606  0.24277610  1
  O  O227  1  0.48789281  0.13490898  0.75818281  1
  O  O228  1  0.49272883  0.63088317  0.24206825  1
  O  O229  1  0.49313798  0.63406346  0.74564108  1
  O  O230  1  0.99966546  0.12561678  0.23740400  1
  O  O231  1  0.99453444  0.13104614  0.74514917  1
  O  O232  1  0.98689376  0.62703186  0.25372190  1
  O  O233  1  0.99884016  0.63207613  0.74332454  1
  O  O234  1  0.37009321  0.25508211  0.00715078  1
  O  O235  1  0.36597716  0.25607164  0.50007106  1
  O  O236  1  0.36977182  0.75481112  0.00477235  1
  O  O237  1  0.36998292  0.75477210  0.50541036  1
  O  O238  1  0.87304339  0.25665906  0.00576200  1
  O  O239  1  0.86939662  0.25571674  0.50486532  1
  O  O240  1  0.86608530  0.74777953  0.00706935  1
  O  O241  1  0.87391277  0.75216012  0.51260504  1
  O  O242  1  0.12991424  0.24696301  0.49501387  1
  O  O243  1  0.13020946  0.24111364  0.99775263  1
  O  O244  1  0.13099064  0.74512002  0.49472415  1
  O  O245  1  0.13005820  0.74399349  0.99515244  1
  O  O246  1  0.63466529  0.23969385  0.50683610  1
  O  O247  1  0.63295370  0.24816686  0.99288808  1
  O  O248  1  0.62355790  0.74245809  0.49279924  1
  O  O249  1  0.63386451  0.74274252  1.00074721  1
  O  O250  1  0.49455275  0.24166913  0.12698905  1
  O  O251  1  0.49945477  0.25430195  0.63879740  1
  O  O252  1  0.49456703  0.74547743  0.12866376  1
  O  O253  1  0.49482408  0.74736067  0.63165397  1
  O  O254  1  0.99152800  0.24095605  0.12362953  1
  O  O255  1  0.99429911  0.24215292  0.63415699  1
  O  O256  1  0.98564355  0.75539466  0.12404626  1
  O  O257  1  0.99274844  0.74667778  0.62950530  1
  O  O258  1  0.01180605  0.25104787  0.37416545  1
  O  O259  1  0.00003594  0.24221151  0.86118993  1
  O  O260  1  0.00652107  0.75760272  0.37254768  1
  O  O261  1  0.00434042  0.75548867  0.87099523  1
  O  O262  1  0.50115395  0.25241909  0.37279225  1
  O  O263  1  0.50535658  0.25480832  0.86787239  1
  O  O264  1  0.50443531  0.75289392  0.36987388  1
  O  O265  1  0.50055887  0.75836200  0.86726889  1
  O  O266  1  0.24305740  0.13314483  0.49852880  1
  O  O267  1  0.24258471  0.12788993  0.99808795  1
  O  O268  1  0.24471867  0.63168521  0.49498094  1
  O  O269  1  0.24311112  0.63097471  0.99467223  1
  O  O270  1  0.74219767  0.13449204  0.50196411  1
  O  O271  1  0.75113563  0.13131232  0.99251577  1
  O  O272  1  0.74359059  0.62906299  0.49258745  1
  O  O273  1  0.74180861  0.63466671  1.00000553  1
  O  O274  1  0.25459005  0.36984220  0.00478873  1
  O  O275  1  0.25656657  0.36625043  0.50217664  1
  O  O276  1  0.25414909  0.87060869  0.00401724  1
  O  O277  1  0.25483445  0.87009977  0.50487353  1
  O  O278  1  0.76100877  0.36915277  0.00727627  1
  O  O279  1  0.76085368  0.36680083  0.50336207  1
  O  O280  1  0.75123067  0.86508034  0.00588099  1
  O  O281  1  0.75253783  0.87334072  0.51322195  1
  O  O282  1  0.12622026  0.48959434  0.24996513  1
  O  O283  1  0.12801108  0.49314361  0.74722475  1
  O  O284  1  0.13478343  0.98987720  0.25675612  1
  O  O285  1  0.13149019  1.00019288  0.74391746  1
  O  O286  1  0.63252548  0.50959447  0.22831718  1
  O  O287  1  0.62209094  0.50026930  0.73834585  1
  O  O288  1  0.63343326  0.99810960  0.24509818  1
  O  O289  1  0.63021636  1.00803766  0.73819349  1
  O  O290  1  0.36649736  0.00389339  0.25537604  1
  O  O291  1  0.37053514  0.00760344  0.75464422  1
  O  O292  1  0.37571554  0.50404872  0.25963192  1
  O  O293  1  0.36889243  0.50664153  0.75057042  1
  O  O294  1  0.86571561  0.00213622  0.25683147  1
  O  O295  1  0.86872176  0.00567282  0.75535206  1
  O  O296  1  0.87613270  0.50627131  0.25681804  1
  O  O297  1  0.87826013  0.49791132  0.76252691  1
  O  O298  1  0.12503167  0.36749983  0.36803486  1
  O  O299  1  0.12865674  0.37401469  0.86155978  1
  O  O300  1  0.12012501  0.87030841  0.36582012  1
  O  O301  1  0.11856941  0.86822644  0.87402334  1
  O  O302  1  0.61758986  0.41851093  0.36253452  1
  O  O303  1  0.61848643  0.36813318  0.87490975  1
  O  O304  1  0.61756441  0.86677749  0.37477121  1
  O  O305  1  0.61038161  0.87417980  0.87995136  1
  O  O306  1  0.37962683  0.13003270  0.13036227  1
  O  O307  1  0.36952526  0.12535768  0.63930102  1
  O  O308  1  0.37960464  0.63025128  0.12866090  1
  O  O309  1  0.38011180  0.63092795  0.62992922  1
  O  O310  1  0.88338744  0.13503126  0.12360239  1
  O  O311  1  0.87970693  0.12901487  0.63084077  1
  O  O312  1  0.86796693  0.63371799  0.13402220  1
  O  O313  1  0.88062713  0.63438566  0.62517886  1
  O  O314  1  0.25633812  0.25575030  0.11847948  1
  O  O315  1  0.24989719  0.25049491  0.61255376  1
  O  O316  1  0.25710061  0.75688876  0.11850922  1
  O  O317  1  0.25494589  0.75477929  0.61982941  1
  O  O318  1  0.76028157  0.25721979  0.11630968  1
  O  O319  1  0.75719758  0.25055334  0.61540080  1
  O  O320  1  0.75684467  0.75459299  0.11703340  1
  O  O321  1  0.75657219  0.75752437  0.62583437  1
  O  O322  1  0.23944215  0.24882095  0.38647621  1
  O  O323  1  0.24927996  0.24263939  0.88333280  1
  O  O324  1  0.24493195  0.74597719  0.38105820  1
  O  O325  1  0.24544038  0.74611056  0.88050002  1
  O  O326  1  0.75745344  0.25466598  0.38879683  1
  O  O327  1  0.74558811  0.24424144  0.87765660  1
  O  O328  1  0.74355088  0.74560196  0.37555284  1
  O  O329  1  0.74918329  0.75090778  0.88577776  1
  O  O330  1  0.00623179  0.11872844  0.00618339  1
  O  O331  1  0.00503821  0.11949385  0.50738099  1
  O  O332  1  0.01231469  0.61776947  -0.00367285  1
  O  O333  1  0.00796851  0.62451993  0.50721087  1
  O  O334  1  0.49820785  0.11672688  0.00517378  1
  O  O335  1  0.50470652  0.11135634  0.49915365  1
  O  O336  1  0.50698186  0.62163672  0.00535136  1
  O  O337  1  0.50375179  0.61982898  0.50726718  1
  O  O338  1  0.48953079  0.38104024  0.49792955  1
  O  O339  1  0.49469007  0.37953598  0.99581342  1
  O  O340  1  0.49327695  0.88270222  0.49512395  1
  O  O341  1  0.49330454  0.87915249  0.99213637  1
  O  O342  1  0.98749661  0.37416389  0.49869969  1
  O  O343  1  0.99070659  0.38090736  1.00414568  1
  O  O344  1  0.99860417  0.88261092  0.49276356  1
  O  O345  1  1.00062756  0.88540929  0.99510389  1
  O  O346  1  0.48252275  0.50487582  0.38484223  1
  O  O347  1  0.49872303  0.49330413  0.88182166  1
  O  O348  1  0.49284057  0.99237772  0.38540458  1
  O  O349  1  0.49483046  0.99288943  0.87855492  1
  O  O350  1  0.98805272  0.49910541  0.37970514  1
  O  O351  1  0.99034107  0.50211322  0.88871147  1
  O  O352  1  0.99245273  0.99491535  0.37978347  1
  O  O353  1  0.99492764  0.99674527  0.88280063  1
  O  O354  1  -0.00911903  0.00989659  0.11409431  1
  O  O355  1  0.00375686  0.00416322  0.62076255  1
  O  O356  1  0.00276319  0.49766412  0.11002466  1
  O  O357  1  0.00647180  0.50730272  0.62386719  1
  O  O358  1  0.50357482  0.00344061  0.11969514  1
  O  O359  1  0.50866373  -0.01015020  0.61558726  1
  O  O360  1  0.50902556  0.50448186  0.11847272  1
  O  O361  1  0.50575664  0.50643035  0.62137630  1
  O  O362  1  0.24039857  0.37563876  0.24549642  1
  O  O363  1  0.24216225  0.37987344  0.74825880  1
  O  O364  1  0.24327972  0.88138337  0.24564409  1
  O  O365  1  0.25052546  0.88225185  0.74358712  1
  O  O366  1  0.75059262  0.37872176  0.23502188  1
  O  O367  1  0.74417263  0.38055351  0.74513540  1
  O  O368  1  0.74819063  0.88542943  0.24335760  1
  O  O369  1  0.75419084  0.88200213  0.73838394  1
  O  O370  1  0.25308973  0.11485071  0.24991933  1
  O  O371  1  0.25683750  0.12061580  0.75594711  1
  O  O372  1  0.25747751  0.62448971  0.25637404  1
  O  O373  1  0.25420687  0.62064500  0.75557207  1
  O  O374  1  0.74968311  0.11443264  0.24914108  1
  O  O375  1  0.75585133  0.11909283  0.75490710  1
  O  O376  1  0.76268635  0.62250811  0.25654732  1
  O  O377  1  0.75409430  0.61822448  0.75484652  1
  O  O378  1  0.37068367  0.11617538  0.36867331  1
  O  O379  1  0.36836833  0.11907216  0.86728905  1
  O  O380  1  0.36890012  0.61867085  0.37099992  1
  O  O381  1  0.36821054  0.62437311  0.86891762  1
  O  O382  1  0.88187761  0.11139507  0.37213572  1
  O  O383  1  0.86872503  0.11897292  0.86902383  1
  O  O384  1  0.87223742  0.61962602  0.36907692  1
  O  O385  1  0.87413476  0.61364102  0.87413132  1
  O  O386  1  0.13117095  0.37263683  0.13505471  1
  O  O387  1  0.12667028  0.38123250  0.63625431  1
  O  O388  1  0.13150739  0.86891212  0.13715500  1
  O  O389  1  0.13141069  0.88116827  0.62621616  1
  O  O390  1  0.63665692  0.38304552  0.11889664  1
  O  O391  1  0.62444867  0.38813625  0.62379067  1
  O  O392  1  0.63173102  0.88116861  0.12749596  1
  O  O393  1  0.63468425  0.88577748  0.61954782  1
  O  O394  1  0.12668634  0.25694996  0.25979118  1
  O  O395  1  0.11731243  0.25631175  0.75140207  1
  O  O396  1  0.12455347  0.75995872  0.25606500  1
  O  O397  1  0.11876120  0.75162857  0.75697359  1
  O  O398  1  0.63444315  0.24539816  0.25327805  1
  O  O399  1  0.61611125  0.24743893  0.75465558  1
  O  O400  1  0.61859062  0.74866438  0.25575592  1
  O  O401  1  0.61032560  0.74392182  0.75000921  1
  O  O402  1  0.36951598  0.24122389  0.24309473  1
  O  O403  1  0.38137753  0.24266885  0.74861050  1
  O  O404  1  0.37988391  0.74476795  0.24408835  1
  O  O405  1  0.38260510  0.74430105  0.74380732  1
  O  O406  1  0.87691807  0.24913553  0.23813126  1
  O  O407  1  0.88146953  0.24531035  0.74543865  1
  O  O408  1  0.87607390  0.74265712  0.24137223  1
  O  O409  1  0.88113482  0.74907948  0.73880316  1
  O  O410  1  0.37618285  0.49361622  0.49512374  1
  O  O411  1  0.38203321  0.49373297  0.99973211  1
  O  O412  1  0.38065562  0.99539728  0.49750395  1
  O  O413  1  0.37945704  0.99414664  0.99440037  1
  O  O414  1  0.87503653  0.49181697  0.49313450  1
  O  O415  1  0.88323828  0.49341695  0.99557880  1
  O  O416  1  0.87965790  1.00027801  0.49192934  1
  O  O417  1  0.88537897  0.99982529  0.99330759  1
  O  O418  1  0.11382566  0.01014886  -0.00437380  1
  O  O419  1  0.11934949  0.00510488  0.50481148  1
  O  O420  1  0.11849713  0.50857319  0.00003693  1
  O  O421  1  0.12461616  0.50576885  0.50625136  1
  O  O422  1  0.61768815  0.00069310  0.00684459  1
  O  O423  1  0.61737868  0.00494124  0.50768462  1
  O  O424  1  0.62140893  0.50776348  0.00707806  1
  O  O425  1  0.61823224  0.50723413  0.50956822  1
  O  O426  1  0.37042169  0.37015400  0.12067828  1
  O  O427  1  0.37238612  0.37381218  0.61129981  1
  O  O428  1  0.36963762  0.86915249  0.11867805  1
  O  O429  1  0.36854033  0.86976786  0.61914215  1
  O  O430  1  0.86982358  0.36803388  0.11681653  1
  O  O431  1  0.87507690  0.36959872  0.61551149  1
  O  O432  1  0.86765741  0.86488650  0.12283339  1
  O  O433  1  0.86650225  0.86672020  0.62330064  1
  O  O434  1  0.12543771  0.13409018  0.38124534  1
  O  O435  1  0.13076497  0.12702049  0.88657583  1
  O  O436  1  0.13033753  0.63047323  0.37959853  1
  O  O437  1  0.13094990  0.63147983  0.88401387  1
  O  O438  1  0.62327114  0.11332493  0.39189384  1
  O  O439  1  0.63209190  0.13069103  0.87686744  1
  O  O440  1  0.63175663  0.62555579  0.38007221  1
  O  O441  1  0.62441306  0.62738921  0.88837922  1
