# generated using pymatgen
data_V93Zn93O256
_symmetry_space_group_name_H-M   'P 1'
_cell_length_a   17.06577967
_cell_length_b   17.05698957
_cell_length_c   17.06272594
_cell_angle_alpha   89.95217398
_cell_angle_beta   89.92427828
_cell_angle_gamma   89.96410811
_symmetry_Int_Tables_number   1
_chemical_formula_structural   V93Zn93O256
_chemical_formula_sum   'V93 Zn93 O256'
_cell_volume   4966.79594627
_cell_formula_units_Z   1
loop_
 _symmetry_equiv_pos_site_id
 _symmetry_equiv_pos_as_xyz
  1  'x, y, z'
loop_
 _atom_site_type_symbol
 _atom_site_label
 _atom_site_symmetry_multiplicity
 _atom_site_fract_x
 _atom_site_fract_y
 _atom_site_fract_z
 _atom_site_occupancy
  V  V0  1  0.25285606  -0.00291105  0.75545021  1
  V  V1  1  0.62455556  0.50036533  0.12512124  1
  V  V2  1  0.62424240  0.37501292  0.75128504  1
  V  V3  1  -0.00044344  0.37461462  0.37523511  1
  V  V4  1  0.12627666  0.49885242  0.62543123  1
  V  V5  1  0.12527432  -0.00042456  0.62493244  1
  V  V6  1  0.12582841  0.24917414  0.37524563  1
  V  V7  1  0.74636864  0.12852851  0.37416992  1
  V  V8  1  0.62507687  0.00114103  0.62594119  1
  V  V9  1  0.00011730  0.00056114  0.49942009  1
  V  V10  1  0.25136973  -0.00258548  0.24882834  1
  V  V11  1  0.87352015  0.00058903  0.87404151  1
  V  V12  1  0.74752214  0.74893420  0.49840412  1
  V  V13  1  0.62410112  0.50026157  0.62569872  1
  V  V14  1  0.74826871  0.87675217  0.62562218  1
  V  V15  1  0.75004795  0.25031088  -0.00039279  1
  V  V16  1  0.87375123  0.75035079  0.62463176  1
  V  V17  1  0.49820200  0.25017901  0.75123823  1
  V  V18  1  0.62716658  0.87458618  0.25180497  1
  V  V19  1  0.75023079  0.37515175  0.12514700  1
  V  V20  1  0.62186923  0.75605479  0.87416441  1
  V  V21  1  0.12515618  0.62504236  0.49916323  1
  V  V22  1  0.00072273  0.25036221  0.24927816  1
  V  V23  1  0.24929077  0.87497542  0.62353354  1
  V  V24  1  0.74711327  0.25095040  0.49713862  1
  V  V25  1  0.12775236  0.12658766  0.49858060  1
  V  V26  1  0.12540968  -0.00107925  0.12299369  1
  V  V27  1  0.87452398  0.50021048  0.87471950  1
  V  V28  1  0.37583963  0.00004584  0.37502889  1
  V  V29  1  0.87530407  0.49968321  0.37423044  1
  V  V30  1  0.74918595  0.75002887  -0.00097852  1
  V  V31  1  0.00382043  0.50618133  0.00047192  1
  V  V32  1  0.87450609  0.00138727  0.37484335  1
  V  V33  1  0.12559617  0.73624433  0.87978969  1
  V  V34  1  0.50080174  0.12571749  0.12469057  1
  V  V35  1  0.37462927  0.25109789  0.12553865  1
  V  V36  1  0.36873682  0.62384235  0.75290717  1
  V  V37  1  0.87684439  0.25064562  0.12501090  1
  V  V38  1  0.87420125  0.87594808  -0.00135031  1
  V  V39  1  0.50129504  0.37050238  0.37659127  1
  V  V40  1  0.12743138  0.37298694  0.75226398  1
  V  V41  1  -0.00092953  0.12594625  0.62554247  1
  V  V42  1  0.50102793  0.87485446  0.37558721  1
  V  V43  1  0.25039703  0.62449432  0.37426383  1
  V  V44  1  0.49918677  0.50075307  -0.00019492  1
  V  V45  1  0.25147239  0.50039441  0.24888764  1
  V  V46  1  0.50238329  0.74991543  0.25178707  1
  V  V47  1  0.37696942  0.12475397  0.25124835  1
  V  V48  1  0.37541971  0.74851098  0.62358934  1
  V  V49  1  0.87537134  0.37593823  0.00055792  1
  V  V50  1  0.50025355  0.62371032  0.62448491  1
  V  V51  1  0.49533405  -0.00871868  -0.00868590  1
  V  V52  1  0.00158999  0.12504997  0.12424708  1
  V  V53  1  0.75088219  0.87617921  0.12622753  1
  V  V54  1  0.74983447  0.49947071  0.75004819  1
  V  V55  1  -0.00047681  0.62523373  0.62287480  1
  V  V56  1  0.75042296  0.37469478  0.62493286  1
  V  V57  1  0.62531045  0.62580954  -0.00037890  1
  V  V58  1  0.50032525  0.62542978  0.12614769  1
  V  V59  1  0.37635134  0.62412058  0.25083444  1
  V  V60  1  0.12638211  0.50738322  0.12123503  1
  V  V61  1  0.87452040  0.37542847  0.49958112  1
  V  V62  1  0.87787422  0.62571685  0.24853002  1
  V  V63  1  0.74906024  0.00154345  0.74990454  1
  V  V64  1  0.12283532  0.87402544  0.74817761  1
  V  V65  1  0.37532614  0.87604709  0.49948011  1
  V  V66  1  0.49923631  0.37629389  0.87520176  1
  V  V67  1  0.50237619  0.24985867  0.25233698  1
  V  V68  1  -0.00332949  0.87606632  0.87260021  1
  V  V69  1  0.49950159  0.75626430  0.75254979  1
  V  V70  1  0.49882538  0.12596531  0.62683545  1
  V  V71  1  0.37510771  0.12046279  0.75599956  1
  V  V72  1  0.00217905  0.24912377  0.75151744  1
  V  V73  1  0.25141671  0.37437666  0.12480139  1
  V  V74  1  0.36858283  0.50577684  0.87678189  1
  V  V75  1  0.87627409  0.74984105  0.12456001  1
  V  V76  1  0.00490189  0.36969535  0.87661464  1
  V  V77  1  0.00311003  0.87368599  0.37103915  1
  V  V78  1  0.75036494  0.12603581  0.87489093  1
  V  V79  1  0.74974909  0.00054869  0.24987376  1
  V  V80  1  -0.00242029  0.75029811  0.74801277  1
  V  V81  1  0.75093208  0.49974315  0.25018926  1
  V  V82  1  0.24649879  0.12241382  0.87685588  1
  V  V83  1  0.37343911  0.75903851  0.12010080  1
  V  V84  1  0.49840140  0.49853621  0.49961117  1
  V  V85  1  0.12640819  0.37464723  0.25004381  1
  V  V86  1  0.62370179  0.12554480  0.00030801  1
  V  V87  1  0.24958277  0.74902641  0.49821061  1
  V  V88  1  0.24509163  0.24931530  -0.00446178  1
  V  V89  1  0.62539276  0.37046327  0.25432804  1
  V  V90  1  0.62357780  0.12753070  0.49870077  1
  V  V91  1  0.87495947  0.87588742  0.49972512  1
  V  V92  1  0.87283953  0.62413488  0.74862800  1
  Zn  Zn93  1  0.34085638  -0.07590751  0.93523232  1
  Zn  Zn94  1  0.12831006  0.87095012  0.24558462  1
  Zn  Zn95  1  0.00488183  0.63007365  0.12019519  1
  Zn  Zn96  1  0.36970526  0.25122214  0.62478433  1
  Zn  Zn97  1  0.62421062  -0.00133948  0.12476718  1
  Zn  Zn98  1  0.62548402  0.74761618  0.37564607  1
  Zn  Zn99  1  0.25496067  0.75055971  -0.01314254  1
  Zn  Zn100  1  0.62441633  0.25180276  0.87546533  1
  Zn  Zn101  1  0.49948285  0.00073754  0.50090300  1
  Zn  Zn102  1  0.25213041  0.37270590  0.62379069  1
  Zn  Zn103  1  0.25245236  0.25412662  0.50064674  1
  Zn  Zn104  1  -0.00098592  0.00201281  -0.00188184  1
  Zn  Zn105  1  0.25250629  0.12653133  0.37536398  1
  Zn  Zn106  1  0.74906714  0.62480826  0.87431829  1
  Zn  Zn107  1  0.37429332  0.49795505  0.37573832  1
  Zn  Zn108  1  0.62516213  0.62459621  0.49748910  1
  Zn  Zn109  1  0.87382298  0.12728984  0.74912963  1
  Zn  Zn110  1  0.62108970  0.87828920  0.75336784  1
  Zn  Zn111  1  0.12546305  0.74904981  0.37012361  1
  Zn  Zn112  1  0.12220531  0.12856300  -0.00660686  1
  Zn  Zn113  1  0.37241455  0.37159183  0.50330214  1
  Zn  Zn114  1  0.25489987  0.88021955  0.11057546  1
  Zn  Zn115  1  -0.00053786  0.49959019  0.49919579  1
  Zn  Zn116  1  0.87460241  0.24961409  0.62577125  1
  Zn  Zn117  1  0.74924669  0.62487305  0.37519007  1
  Zn  Zn118  1  0.37470747  0.37526302  -0.00132072  1
  Zn  Zn119  1  0.87413348  0.12615701  0.25012611  1
  Zn  Zn120  1  0.00453598  0.75005502  0.24649536  1
  Zn  Zn121  1  0.24667249  0.50260619  0.75582809  1
  Zn  Zn122  1  0.18889736  0.18600460  0.18690084  1
  Zn  Zn123  1  0.18848955  0.18778771  0.68788856  1
  Zn  Zn124  1  0.19136000  0.68961345  0.18615943  1
  Zn  Zn125  1  0.18580098  0.68852424  0.68787316  1
  Zn  Zn126  1  0.68756495  0.18807331  0.18587850  1
  Zn  Zn127  1  0.68594941  0.18927143  0.68740633  1
  Zn  Zn128  1  0.68936963  0.68808640  0.18782242  1
  Zn  Zn129  1  0.68538156  0.68695637  0.68687466  1
  Zn  Zn130  1  0.31371144  0.31235471  0.31594584  1
  Zn  Zn131  1  0.31437156  0.31080550  0.81426667  1
  Zn  Zn132  1  0.31471043  0.81156803  0.31077018  1
  Zn  Zn133  1  0.30848362  0.80813868  0.80823588  1
  Zn  Zn134  1  0.81347111  0.31162933  0.31251106  1
  Zn  Zn135  1  0.81516158  0.31257282  0.81335950  1
  Zn  Zn136  1  0.81522893  0.81247376  0.31289448  1
  Zn  Zn137  1  0.80819336  0.81301139  0.81215048  1
  Zn  Zn138  1  0.18820613  0.43777219  0.43796602  1
  Zn  Zn139  1  0.18812236  0.43759098  0.93989546  1
  Zn  Zn140  1  0.18809421  0.93877766  0.43562826  1
  Zn  Zn141  1  0.17668247  0.93385655  0.93722864  1
  Zn  Zn142  1  0.68645534  0.43905480  0.43691520  1
  Zn  Zn143  1  0.68665691  0.43832587  0.93689355  1
  Zn  Zn144  1  0.68665891  0.93898799  0.43753986  1
  Zn  Zn145  1  0.68580644  0.93896741  0.93863677  1
  Zn  Zn146  1  0.31464879  0.06609926  0.06321761  1
  Zn  Zn147  1  0.31355728  0.06294929  0.56632644  1
  Zn  Zn148  1  0.31108138  0.57136331  0.05854369  1
  Zn  Zn149  1  0.31195090  0.56071573  0.56413722  1
  Zn  Zn150  1  0.81319034  0.06250196  0.06223341  1
  Zn  Zn151  1  0.81321283  0.06385356  0.56327299  1
  Zn  Zn152  1  0.81341916  0.56345959  0.06264110  1
  Zn  Zn153  1  0.81226659  0.56202861  0.56194737  1
  Zn  Zn154  1  0.43738760  0.43699363  0.18775013  1
  Zn  Zn155  1  0.43532838  0.43674110  0.68872406  1
  Zn  Zn156  1  0.44371698  0.94018366  0.18635488  1
  Zn  Zn157  1  0.43610143  0.93925646  0.68731861  1
  Zn  Zn158  1  0.94000372  0.43862292  0.18689420  1
  Zn  Zn159  1  0.93801226  0.43675589  0.68669679  1
  Zn  Zn160  1  0.93588596  0.93903988  0.18819688  1
  Zn  Zn161  1  0.93504664  0.93931960  0.68721928  1
  Zn  Zn162  1  0.06368102  0.06157758  0.31057090  1
  Zn  Zn163  1  0.06319014  0.06156617  0.81105885  1
  Zn  Zn164  1  0.06351639  0.56122294  0.31178831  1
  Zn  Zn165  1  0.05697658  0.55863360  0.80944042  1
  Zn  Zn166  1  0.56344532  0.06065126  0.31314486  1
  Zn  Zn167  1  0.56290179  0.06278360  0.81448896  1
  Zn  Zn168  1  0.56511877  0.56208666  0.31552930  1
  Zn  Zn169  1  0.55978832  0.56651898  0.81373987  1
  Zn  Zn170  1  0.43676287  0.18975094  0.43801198  1
  Zn  Zn171  1  0.43474818  0.18696177  0.93756899  1
  Zn  Zn172  1  0.43726440  0.68628256  0.43662941  1
  Zn  Zn173  1  0.43699523  0.69262635  0.93518053  1
  Zn  Zn174  1  0.93591417  0.18866114  0.43803693  1
  Zn  Zn175  1  0.93573273  0.18735063  0.93756674  1
  Zn  Zn176  1  0.93700245  0.68768739  0.43608820  1
  Zn  Zn177  1  0.93687565  0.68866593  0.93448708  1
  Zn  Zn178  1  0.06531986  0.31533012  0.06306902  1
  Zn  Zn179  1  0.06212032  0.31211963  0.56387053  1
  Zn  Zn180  1  0.06064666  0.81466455  0.05969535  1
  Zn  Zn181  1  0.06250353  0.81159214  0.55933967  1
  Zn  Zn182  1  0.56175957  0.31350837  0.06322285  1
  Zn  Zn183  1  0.56159513  0.31139985  0.56502812  1
  Zn  Zn184  1  0.56370154  0.81208709  0.06502111  1
  Zn  Zn185  1  0.56208299  0.81371529  0.56414863  1
  O  O186  1  0.11637021  0.11669686  0.12510747  1
  O  O187  1  0.11855269  0.11879102  0.61761034  1
  O  O188  1  0.12333815  0.61014048  0.13266554  1
  O  O189  1  0.11941117  0.61802861  0.62094245  1
  O  O190  1  0.62051396  0.12568096  0.11480862  1
  O  O191  1  0.62048431  0.12024530  0.61746842  1
  O  O192  1  0.62039843  0.61982700  0.12068951  1
  O  O193  1  0.61759239  0.61737347  0.62323050  1
  O  O194  1  0.38934269  0.37896692  0.37533272  1
  O  O195  1  0.38261071  0.38594126  0.87519805  1
  O  O196  1  0.38077749  0.88035393  0.38019205  1
  O  O197  1  0.38528019  0.84821675  0.87279872  1
  O  O198  1  0.88005657  0.37965365  0.37922041  1
  O  O199  1  0.88423650  0.38106401  0.88085174  1
  O  O200  1  0.88307672  0.88181831  0.38046618  1
  O  O201  1  0.87741842  0.88010593  0.87871338  1
  O  O202  1  0.25648652  0.00242663  0.36520535  1
  O  O203  1  0.25236476  0.00342158  0.87185462  1
  O  O204  1  0.25139754  0.50642410  0.36672823  1
  O  O205  1  0.26450681  0.49523300  0.87555281  1
  O  O206  1  0.75530149  0.00871500  0.37083399  1
  O  O207  1  0.75357971  0.00594034  0.86993962  1
  O  O208  1  0.75763498  0.49954077  0.36752125  1
  O  O209  1  0.75696127  0.50035854  0.86835955  1
  O  O210  1  0.24375371  0.49467798  0.12834670  1
  O  O211  1  0.23527431  0.49966483  0.62972967  1
  O  O212  1  0.24355562  1.00087309  0.13077266  1
  O  O213  1  0.24363275  0.99374838  0.63170576  1
  O  O214  1  0.74499968  0.49355799  0.12996477  1
  O  O215  1  0.74440380  0.49370153  0.62997531  1
  O  O216  1  0.74987516  0.99449900  0.13199280  1
  O  O217  1  0.74505724  0.99676412  0.62983621  1
  O  O218  1  0.00622247  0.36946667  0.25453091  1
  O  O219  1  0.00566813  0.36957893  0.75793638  1
  O  O220  1  0.00029018  0.87611596  0.26115961  1
  O  O221  1  0.00248139  0.86974549  0.75200814  1
  O  O222  1  0.50774969  0.37170530  0.25647261  1
  O  O223  1  0.50571809  0.37050164  0.75608172  1
  O  O224  1  0.50753293  0.87032801  0.25603716  1
  O  O225  1  0.50159173  0.85962945  0.73985595  1
  O  O226  1  0.49790896  0.13018340  0.24571342  1
  O  O227  1  0.49290136  0.12869425  0.74814020  1
  O  O228  1  0.49712852  0.62896159  0.24581275  1
  O  O229  1  0.49170775  0.63273725  0.74258605  1
  O  O230  1  0.99899947  0.13119507  0.23985973  1
  O  O231  1  1.00148645  0.13461847  0.74567100  1
  O  O232  1  0.98736339  0.62441031  0.24742560  1
  O  O233  1  0.99126015  0.63016991  0.74159293  1
  O  O234  1  0.36556749  0.25050574  0.00824055  1
  O  O235  1  0.37184547  0.25145656  0.50472767  1
  O  O236  1  0.38193171  0.74719837  0.01898317  1
  O  O237  1  0.36946051  0.75506804  0.50526466  1
  O  O238  1  0.86989556  0.25704965  0.00594828  1
  O  O239  1  0.86372409  0.25633036  0.50150363  1
  O  O240  1  0.86905320  0.75563930  0.00359067  1
  O  O241  1  0.86741638  0.75592734  0.50570796  1
  O  O242  1  0.12148449  0.23927826  0.49390170  1
  O  O243  1  0.14020754  0.24733679  1.00778875  1
  O  O244  1  0.13268846  0.74261028  0.49844798  1
  O  O245  1  0.11848408  0.75454740  0.98054648  1
  O  O246  1  0.63592399  0.23926272  0.50567207  1
  O  O247  1  0.63063583  0.24152268  1.00023918  1
  O  O248  1  0.63694521  0.75007034  0.50108025  1
  O  O249  1  0.62848333  0.74553958  0.99338275  1
  O  O250  1  0.49460183  0.24594192  0.13156597  1
  O  O251  1  0.50091069  0.24179401  0.63477280  1
  O  O252  1  0.49441136  0.74500585  0.13251026  1
  O  O253  1  0.49470547  0.74326184  0.63068146  1
  O  O254  1  0.99719712  0.24418672  0.12905254  1
  O  O255  1  0.99786330  0.24463297  0.63410940  1
  O  O256  1  0.99240107  0.74807096  0.12508967  1
  O  O257  1  0.99303490  0.74588738  0.62829762  1
  O  O258  1  0.00462058  0.25469887  0.36858427  1
  O  O259  1  -0.00522485  0.26153285  0.86841442  1
  O  O260  1  0.00035829  0.76251997  0.37383999  1
  O  O261  1  0.00348749  0.75667080  0.86631539  1
  O  O262  1  0.49885318  0.26173846  0.36787895  1
  O  O263  1  0.49988764  0.25772525  0.86961435  1
  O  O264  1  0.50080076  0.75706281  0.36936438  1
  O  O265  1  0.51225644  0.74117070  0.86300670  1
  O  O266  1  0.23518091  0.12168795  0.49957200  1
  O  O267  1  0.25065665  0.13111870  0.99228244  1
  O  O268  1  0.24587858  0.62920072  0.49487948  1
  O  O269  1  0.24779377  0.64132004  1.00547903  1
  O  O270  1  0.74373904  0.13169350  0.49411903  1
  O  O271  1  0.74225430  0.13013694  0.99661031  1
  O  O272  1  0.75012372  0.63716059  0.50021433  1
  O  O273  1  0.74342455  0.63185053  1.00001227  1
  O  O274  1  0.25239642  0.36578895  0.00580295  1
  O  O275  1  0.25270900  0.37389866  0.50300648  1
  O  O276  1  0.25233075  0.86915979  -0.00457699  1
  O  O277  1  0.25509525  0.87010159  0.50434806  1
  O  O278  1  0.75481282  0.37094406  0.00573801  1
  O  O279  1  0.75220209  0.36744345  0.50311993  1
  O  O280  1  0.75468764  0.86991283  0.00579855  1
  O  O281  1  0.75567547  0.86939819  0.50520626  1
  O  O282  1  0.13096662  0.49343144  0.24181333  1
  O  O283  1  0.12431821  0.49219686  0.74298702  1
  O  O284  1  0.13478263  0.99969722  0.24077680  1
  O  O285  1  0.13119855  0.99338490  0.74364772  1
  O  O286  1  0.63044221  0.49120773  0.24368536  1
  O  O287  1  0.62943582  0.49530197  0.74555625  1
  O  O288  1  0.63257006  0.99337711  0.24810954  1
  O  O289  1  0.63042486  0.99947125  0.74436553  1
  O  O290  1  0.37016456  0.00509340  0.25374192  1
  O  O291  1  0.36743020  0.01032129  0.74525702  1
  O  O292  1  0.36890628  0.50670938  0.24932823  1
  O  O293  1  0.37483984  0.50883040  0.75885888  1
  O  O294  1  0.86732589  0.00421788  0.25696336  1
  O  O295  1  0.86685890  0.00270252  0.75642407  1
  O  O296  1  0.87041702  0.50594091  0.25296800  1
  O  O297  1  0.86999648  0.50377256  0.75438405  1
  O  O298  1  0.11876533  0.36977705  0.36884774  1
  O  O299  1  0.11275012  0.38340597  0.86627621  1
  O  O300  1  0.11376378  0.87564524  0.37364814  1
  O  O301  1  0.11364053  0.86951590  0.86440129  1
  O  O302  1  0.61657482  0.38133208  0.36267342  1
  O  O303  1  0.61767247  0.37500635  0.86908209  1
  O  O304  1  0.61930733  0.87377034  0.36967309  1
  O  O305  1  0.63023013  0.86053027  0.87340166  1
  O  O306  1  0.38185095  0.13179512  0.13273683  1
  O  O307  1  0.38144295  0.12539934  0.63682694  1
  O  O308  1  0.38277960  0.63464641  0.13352359  1
  O  O309  1  0.38112580  0.62851214  0.63138529  1
  O  O310  1  0.88518801  0.13131623  0.12521242  1
  O  O311  1  0.88390202  0.12707738  0.62727918  1
  O  O312  1  0.87663070  0.63036563  0.13341981  1
  O  O313  1  0.87976901  0.63040264  0.62908500  1
  O  O314  1  0.25607719  0.25426215  0.11981875  1
  O  O315  1  0.24942212  0.25318452  0.62108909  1
  O  O316  1  0.26778210  0.75690802  0.13039417  1
  O  O317  1  0.25519167  0.75547680  0.61870936  1
  O  O318  1  0.75687377  0.25587504  0.11948678  1
  O  O319  1  0.75145417  0.25603465  0.61519329  1
  O  O320  1  0.75630444  0.75651062  0.11880310  1
  O  O321  1  0.75467863  0.75596311  0.61805729  1
  O  O322  1  0.24052071  0.24557439  0.37640648  1
  O  O323  1  0.25608353  0.23965689  0.88649738  1
  O  O324  1  0.25025182  0.74344468  0.38103266  1
  O  O325  1  0.22668465  0.74974030  0.86565270  1
  O  O326  1  0.75421558  0.24069455  0.38493004  1
  O  O327  1  0.75004051  0.24526937  0.88287074  1
  O  O328  1  0.75147680  0.75121040  0.38802560  1
  O  O329  1  0.74133465  0.74641048  0.88052952  1
  O  O330  1  0.00234319  0.12608818  0.01097336  1
  O  O331  1  0.00761477  0.12004830  0.50418651  1
  O  O332  1  -0.00742381  0.60941829  0.00012119  1
  O  O333  1  0.00568651  0.62419975  0.50583471  1
  O  O334  1  0.50779063  0.12140098  0.00465479  1
  O  O335  1  0.51105379  0.12582752  0.50494835  1
  O  O336  1  0.50680264  0.62036092  0.00667210  1
  O  O337  1  0.50062097  0.61552948  0.50559506  1
  O  O338  1  0.50444551  0.38150655  0.49162008  1
  O  O339  1  0.49899313  0.38244617  0.99428003  1
  O  O340  1  0.49259183  0.87662422  0.49474124  1
  O  O341  1  0.50988828  0.89376871  1.00694093  1
  O  O342  1  0.99284407  0.37482884  0.49297678  1
  O  O343  1  0.99579818  0.38066306  0.99335965  1
  O  O344  1  0.99487366  0.88094865  0.49232165  1
  O  O345  1  0.99030996  0.87858888  0.99094989  1
  O  O346  1  0.50041633  0.49121668  0.38423978  1
  O  O347  1  0.49278214  0.49593391  0.88053878  1
  O  O348  1  0.49338333  0.99304896  0.37702211  1
  O  O349  1  0.50505930  1.00349333  0.89201340  1
  O  O350  1  0.99342573  0.49192887  0.37526301  1
  O  O351  1  0.99419684  0.49047262  0.88212263  1
  O  O352  1  0.99489838  0.99422940  0.37965636  1
  O  O353  1  0.99234780  0.99465989  0.87400506  1
  O  O354  1  0.00697783  0.00926789  0.12593534  1
  O  O355  1  0.00571689  0.00460507  0.61936874  1
  O  O356  1  0.00894817  0.49890441  0.11619296  1
  O  O357  1  0.00971332  0.50629474  0.62468168  1
  O  O358  1  0.50388858  0.01018939  0.11639909  1
  O  O359  1  0.50680536  0.00807236  0.62340251  1
  O  O360  1  0.50563345  0.50504130  0.12044514  1
  O  O361  1  0.50524173  0.50324443  0.61806003  1
  O  O362  1  0.24548254  0.37997581  0.24520792  1
  O  O363  1  0.23526788  0.37491607  0.75365318  1
  O  O364  1  0.25231933  0.88956874  0.24710707  1
  O  O365  1  0.24256319  0.87821530  0.74128135  1
  O  O366  1  0.74324594  0.37833501  0.24537259  1
  O  O367  1  0.74537216  0.37965470  0.74522196  1
  O  O368  1  0.74749413  0.88065148  0.24630091  1
  O  O369  1  0.74726210  0.88270682  0.74219186  1
  O  O370  1  0.25759336  0.11363023  0.24946694  1
  O  O371  1  0.25549005  0.11876441  0.75790962  1
  O  O372  1  0.25660676  0.61941087  0.25480023  1
  O  O373  1  0.26509182  0.62462353  0.74340646  1
  O  O374  1  0.74879463  0.12229117  0.25943826  1
  O  O375  1  0.74992638  0.12051524  0.75659985  1
  O  O376  1  0.76152273  0.61849593  0.24915044  1
  O  O377  1  0.75600670  0.61714985  0.74869936  1
  O  O378  1  0.37551824  0.11800614  0.36820005  1
  O  O379  1  0.36550804  0.12646343  0.86368190  1
  O  O380  1  0.36900543  0.62183941  0.36830391  1
  O  O381  1  0.38326504  0.61688509  0.86451722  1
  O  O382  1  0.86364830  0.12003621  0.37543807  1
  O  O383  1  0.86766025  0.11875345  0.87435964  1
  O  O384  1  0.87335335  0.61904266  0.36507975  1
  O  O385  1  0.87341088  0.61806960  0.86636760  1
  O  O386  1  0.13175960  0.38319977  0.13181476  1
  O  O387  1  0.12080576  0.38454432  0.63534431  1
  O  O388  1  0.12653654  0.88797704  0.12433924  1
  O  O389  1  0.12905480  0.87993441  0.62776265  1
  O  O390  1  0.63014425  0.38114112  0.13286539  1
  O  O391  1  0.63073898  0.38064689  0.63182533  1
  O  O392  1  0.63439632  0.87580650  0.13341427  1
  O  O393  1  0.63148008  0.88389839  0.62544178  1
  O  O394  1  0.12025005  0.25484613  0.25427254  1
  O  O395  1  0.11165858  0.26031657  0.74577215  1
  O  O396  1  0.12254198  0.75421899  0.25151906  1
  O  O397  1  0.11531019  0.75522162  0.75315905  1
  O  O398  1  0.61978597  0.26354014  0.24239372  1
  O  O399  1  0.61789222  0.25707656  0.75297885  1
  O  O400  1  0.62058416  0.75672616  0.25133352  1
  O  O401  1  0.61716279  0.75029873  0.75645724  1
  O  O402  1  0.38158514  0.24417645  0.24565170  1
  O  O403  1  0.38109604  0.23856436  0.74952295  1
  O  O404  1  0.38330673  0.74361869  0.24334374  1
  O  O405  1  0.38198639  0.74023768  0.74140624  1
  O  O406  1  0.88206474  0.24894774  0.24263635  1
  O  O407  1  0.88824585  0.24995254  0.74783655  1
  O  O408  1  0.87557220  0.74087543  0.24362851  1
  O  O409  1  0.87751881  0.74524311  0.74355336  1
  O  O410  1  0.38923716  0.49798776  0.50046624  1
  O  O411  1  0.38204151  0.50134421  0.99282479  1
  O  O412  1  0.37513457  0.99429052  0.49413615  1
  O  O413  1  0.38907956  1.00229803  1.00277838  1
  O  O414  1  0.87554308  0.49321326  0.49274926  1
  O  O415  1  0.88234276  0.49350915  0.99637977  1
  O  O416  1  0.88029506  0.99523139  0.49491785  1
  O  O417  1  0.87496296  0.99359455  0.99215264  1
  O  O418  1  0.12057641  0.00521938  0.01097613  1
  O  O419  1  0.11953105  0.00731397  0.50453911  1
  O  O420  1  0.11494291  0.49205214  0.00997335  1
  O  O421  1  0.12212131  0.50632044  0.50978000  1
  O  O422  1  0.61892308  0.01220762  0.00251005  1
  O  O423  1  0.62583136  0.01223074  0.50685175  1
  O  O424  1  0.62020207  0.50546770  0.00599680  1
  O  O425  1  0.61521724  0.49975054  0.50706870  1
  O  O426  1  0.36874105  0.36868066  0.12451821  1
  O  O427  1  0.37103661  0.37197315  0.62450261  1
  O  O428  1  0.38001837  0.86147536  0.13099558  1
  O  O429  1  0.36851112  0.86930280  0.61927098  1
  O  O430  1  0.87025858  0.37064835  0.12025549  1
  O  O431  1  0.86774166  0.37514538  0.61776300  1
  O  O432  1  0.87010097  0.87025072  0.11934786  1
  O  O433  1  0.86909144  0.87042174  0.61870952  1
  O  O434  1  0.12369326  0.12928753  0.38406794  1
  O  O435  1  0.14100437  0.11958584  0.87468753  1
  O  O436  1  0.13162614  0.62486730  0.38122236  1
  O  O437  1  0.11199786  0.63812253  0.86806114  1
  O  O438  1  0.63632682  0.11885696  0.38563406  1
  O  O439  1  0.63164620  0.12852954  0.88584051  1
  O  O440  1  0.63142458  0.62907616  0.37895410  1
  O  O441  1  0.62758775  0.63368891  0.88189054  1
