# generated using pymatgen
data_V93Zn93O256
_symmetry_space_group_name_H-M   'P 1'
_cell_length_a   17.05133508
_cell_length_b   17.05515496
_cell_length_c   17.05255769
_cell_angle_alpha   90.03965877
_cell_angle_beta   89.96972856
_cell_angle_gamma   90.02388944
_symmetry_Int_Tables_number   1
_chemical_formula_structural   V93Zn93O256
_chemical_formula_sum   'V93 Zn93 O256'
_cell_volume   4959.10591390
_cell_formula_units_Z   1
loop_
 _symmetry_equiv_pos_site_id
 _symmetry_equiv_pos_as_xyz
  1  'x, y, z'
loop_
 _atom_site_type_symbol
 _atom_site_label
 _atom_site_symmetry_multiplicity
 _atom_site_fract_x
 _atom_site_fract_y
 _atom_site_fract_z
 _atom_site_occupancy
  V  V0  1  0.12625524  0.75546241  0.86842968  1
  V  V1  1  0.00139644  0.37518058  0.87538005  1
  V  V2  1  0.24945482  0.49862671  0.75150711  1
  V  V3  1  0.37092598  0.24977626  0.12354435  1
  V  V4  1  0.37338094  0.49904154  0.87581822  1
  V  V5  1  0.62439288  0.12359296  0.50066713  1
  V  V6  1  0.87627839  0.12647729  0.24833107  1
  V  V7  1  0.75014191  0.00154578  0.24972827  1
  V  V8  1  0.25087537  0.75066215  -0.00133433  1
  V  V9  1  0.24940996  0.50193936  0.25082977  1
  V  V10  1  0.00239236  0.24946141  0.74964007  1
  V  V11  1  0.74968292  0.74645672  0.49056203  1
  V  V12  1  0.25018092  -0.00238821  0.25110998  1
  V  V13  1  0.24509785  -0.00196056  0.74996096  1
  V  V14  1  0.62471745  0.87488184  0.74832663  1
  V  V15  1  0.37518635  0.74895142  0.62396489  1
  V  V16  1  0.87595127  -0.00156302  0.87584563  1
  V  V17  1  0.62884104  0.62434343  0.49273280  1
  V  V18  1  -0.00009518  0.25083961  0.25136945  1
  V  V19  1  0.75066072  0.49971178  0.74919280  1
  V  V20  1  0.12480205  0.74921882  0.37628833  1
  V  V21  1  0.62507291  -0.00097445  0.62463058  1
  V  V22  1  0.37547010  0.37584355  0.49993195  1
  V  V23  1  0.62374554  0.24983013  0.37505070  1
  V  V24  1  0.87738450  0.62472226  0.74708195  1
  V  V25  1  0.87597056  0.75162333  0.12172183  1
  V  V26  1  0.37233333  0.12491520  0.74934143  1
  V  V27  1  0.74862726  0.25262392  0.00043618  1
  V  V28  1  0.86826886  0.50653471  0.37193282  1
  V  V29  1  0.74995182  0.37381588  0.62486799  1
  V  V30  1  0.24950802  0.62538675  0.37531676  1
  V  V31  1  0.12534366  0.24669070  0.89076989  1
  V  V32  1  0.50020551  0.87438364  0.87431100  1
  V  V33  1  0.00160171  0.87524662  0.87139329  1
  V  V34  1  0.24978457  0.37470392  0.12522376  1
  V  V35  1  0.00108945  0.87592596  0.37432398  1
  V  V36  1  0.37009511  0.37111892  0.00047230  1
  V  V37  1  0.24873721  0.87374235  0.62740835  1
  V  V38  1  0.12254907  0.62560384  0.50359336  1
  V  V39  1  0.25025425  0.12441429  0.37700164  1
  V  V40  1  0.25086507  0.62446208  0.87474906  1
  V  V41  1  0.12474304  0.37634973  0.25237020  1
  V  V42  1  0.49821402  0.50027503  -0.00023864  1
  V  V43  1  0.62091771  0.86876778  0.24873148  1
  V  V44  1  0.62482394  0.00131579  0.12320813  1
  V  V45  1  0.24444093  0.12784610  0.88647114  1
  V  V46  1  0.00057965  0.75175191  0.24841205  1
  V  V47  1  0.12329424  -0.00363072  0.62669229  1
  V  V48  1  0.62440660  0.50034085  0.62446877  1
  V  V49  1  0.75026417  -0.00148495  0.74782432  1
  V  V50  1  0.87364462  0.37641960  0.00092029  1
  V  V51  1  0.87441995  0.25172466  0.12551466  1
  V  V52  1  0.00037954  0.00063710  0.49845619  1
  V  V53  1  0.87586701  0.50098143  0.87437335  1
  V  V54  1  0.50040282  -0.00042740  -0.00072233  1
  V  V55  1  0.12507055  0.62666133  -0.00006368  1
  V  V56  1  0.24789746  0.24943918  0.50147329  1
  V  V57  1  0.75027976  0.24974592  0.50106909  1
  V  V58  1  0.62519643  0.49995849  0.12559152  1
  V  V59  1  0.87787001  0.74464809  0.62292950  1
  V  V60  1  0.75167789  0.87613881  0.12138511  1
  V  V61  1  0.37843281  -0.00195159  0.37719253  1
  V  V62  1  0.12521406  0.25118551  0.37571629  1
  V  V63  1  0.87590163  0.12434826  0.74801606  1
  V  V64  1  0.49998218  0.24859372  0.75115413  1
  V  V65  1  0.50016999  0.12284014  0.62582230  1
  V  V66  1  0.37669683  0.74958870  0.12591848  1
  V  V67  1  -0.00043803  0.50167255  0.00001819  1
  V  V68  1  0.37637105  0.12545144  0.25117175  1
  V  V69  1  0.87407597  0.37513571  0.50000993  1
  V  V70  1  0.62555907  0.62541376  -0.00146255  1
  V  V71  1  0.74883232  0.12461518  0.37485450  1
  V  V72  1  0.50198882  0.86547385  0.37113774  1
  V  V73  1  -0.00106588  0.62750240  0.12597205  1
  V  V74  1  0.37752305  0.62866431  0.25103198  1
  V  V75  1  0.62651675  0.37553473  0.24987133  1
  V  V76  1  0.12420772  0.50136190  0.12611997  1
  V  V77  1  0.50222981  0.74994886  0.74871415  1
  V  V78  1  0.50054072  0.63036794  0.12913457  1
  V  V79  1  0.24976936  0.87502072  0.12531579  1
  V  V80  1  0.50108235  0.62446517  0.62447619  1
  V  V81  1  0.74931703  0.62564179  0.87436554  1
  V  V82  1  -0.00074388  0.50162501  0.50293344  1
  V  V83  1  0.12713186  0.87471647  0.24919248  1
  V  V84  1  0.62451169  0.12644855  -0.00039807  1
  V  V85  1  0.37693074  0.87462024  -0.00020528  1
  V  V86  1  0.49971782  0.25008973  0.25066160  1
  V  V87  1  0.12134901  0.50291674  0.62772199  1
  V  V88  1  0.62457032  0.25040843  0.87563154  1
  V  V89  1  0.62405640  0.37400627  0.75043630  1
  V  V90  1  0.87473505  0.87376081  0.49891319  1
  V  V91  1  0.24879222  0.37364885  0.62643488  1
  V  V92  1  0.00202681  0.74740906  0.74550753  1
  Zn  Zn93  1  0.74215473  0.51336123  0.25409226  1
  Zn  Zn94  1  0.00211652  0.12649910  0.62328875  1
  Zn  Zn95  1  0.62712016  0.74979203  0.87387819  1
  Zn  Zn96  1  0.37668182  0.62236856  0.75011971  1
  Zn  Zn97  1  0.62737317  0.74025556  0.36426499  1
  Zn  Zn98  1  0.37774149  0.87316958  0.49910839  1
  Zn  Zn99  1  0.12364222  0.12585494  0.49970976  1
  Zn  Zn100  1  -0.00055588  0.37548015  0.37596336  1
  Zn  Zn101  1  0.12594451  0.37262148  0.75218561  1
  Zn  Zn102  1  0.01322207  0.12856670  0.11046906  1
  Zn  Zn103  1  0.49869634  0.37617641  0.37716299  1
  Zn  Zn104  1  0.74879936  0.87311545  0.62268925  1
  Zn  Zn105  1  0.87714193  0.25006240  0.62380474  1
  Zn  Zn106  1  0.01100436  0.00873609  -0.00315284  1
  Zn  Zn107  1  0.87722707  0.87774141  -0.00098270  1
  Zn  Zn108  1  0.75030690  0.75120274  -0.00424324  1
  Zn  Zn109  1  0.37553475  0.50027554  0.37656562  1
  Zn  Zn110  1  0.75103908  0.37948199  0.12677609  1
  Zn  Zn111  1  0.37304454  0.00033154  0.87626205  1
  Zn  Zn112  1  0.86735809  0.63222962  0.25528922  1
  Zn  Zn113  1  0.37327384  0.24919578  0.62536615  1
  Zn  Zn114  1  0.50204420  -0.00282543  0.50007242  1
  Zn  Zn115  1  0.49873171  0.12519800  0.12376789  1
  Zn  Zn116  1  0.74971932  0.12507707  0.87462150  1
  Zn  Zn117  1  0.87539181  0.00054683  0.37446130  1
  Zn  Zn118  1  0.49948240  0.49959150  0.49919884  1
  Zn  Zn119  1  0.24948715  0.75068977  0.50104750  1
  Zn  Zn120  1  0.12655863  0.00843948  0.11632417  1
  Zn  Zn121  1  0.49798101  0.37471954  0.87500858  1
  Zn  Zn122  1  0.19008747  0.18851774  0.18954307  1
  Zn  Zn123  1  0.18469816  0.18456770  0.68858244  1
  Zn  Zn124  1  0.18882629  0.68898861  0.18749694  1
  Zn  Zn125  1  0.18933247  0.68466514  0.68893332  1
  Zn  Zn126  1  0.68839105  0.18930384  0.18521560  1
  Zn  Zn127  1  0.68826208  0.18662490  0.68768029  1
  Zn  Zn128  1  0.69170541  0.68618318  0.18459175  1
  Zn  Zn129  1  0.68970486  0.68824086  0.68288194  1
  Zn  Zn130  1  0.31112353  0.31242548  0.31342658  1
  Zn  Zn131  1  0.30974550  0.31032649  0.81402782  1
  Zn  Zn132  1  0.31264963  0.81036607  0.31336244  1
  Zn  Zn133  1  0.31565954  0.81255568  0.81062196  1
  Zn  Zn134  1  0.81167187  0.31545682  0.31545238  1
  Zn  Zn135  1  0.81250539  0.31242761  0.81389733  1
  Zn  Zn136  1  0.81284436  0.81522726  0.31007163  1
  Zn  Zn137  1  0.81233900  0.81253056  0.80942452  1
  Zn  Zn138  1  0.18942418  0.43804035  0.43820667  1
  Zn  Zn139  1  0.18640907  0.43504822  0.93836459  1
  Zn  Zn140  1  0.18866862  0.93577553  0.43989453  1
  Zn  Zn141  1  0.18865007  0.93748144  0.93695630  1
  Zn  Zn142  1  0.68681114  0.43671982  0.43763455  1
  Zn  Zn143  1  0.68649107  0.43807349  0.93709583  1
  Zn  Zn144  1  0.68765041  0.93544931  0.43621211  1
  Zn  Zn145  1  0.68706131  0.93881451  0.93458449  1
  Zn  Zn146  1  0.31314399  0.05965443  0.06509251  1
  Zn  Zn147  1  0.31199805  0.06197319  0.56176038  1
  Zn  Zn148  1  0.31240059  0.56169048  0.06282913  1
  Zn  Zn149  1  0.30985859  0.56135733  0.56403170  1
  Zn  Zn150  1  0.81450024  0.06615938  0.06068791  1
  Zn  Zn151  1  0.81256395  0.06200119  0.56315618  1
  Zn  Zn152  1  0.81010070  0.56375494  0.06434850  1
  Zn  Zn153  1  0.81091387  0.56351590  0.56134655  1
  Zn  Zn154  1  0.43903785  0.43958616  0.18822531  1
  Zn  Zn155  1  0.43710283  0.43661950  0.68652663  1
  Zn  Zn156  1  0.43845001  0.93736461  0.18741906  1
  Zn  Zn157  1  0.43622847  0.93745670  0.68819631  1
  Zn  Zn158  1  0.93852616  0.43677096  0.18877544  1
  Zn  Zn159  1  0.93782403  0.43567002  0.68690630  1
  Zn  Zn160  1  0.94127091  0.94226953  0.18512919  1
  Zn  Zn161  1  0.93757590  0.93180186  0.68691184  1
  Zn  Zn162  1  0.06675528  0.06588373  0.30494530  1
  Zn  Zn163  1  0.06352964  0.06397057  0.81427910  1
  Zn  Zn164  1  0.05776405  0.56386424  0.31462952  1
  Zn  Zn165  1  0.06277347  0.56640165  0.81249382  1
  Zn  Zn166  1  0.56209030  0.06029705  0.31046353  1
  Zn  Zn167  1  0.56275976  0.06144813  0.81407157  1
  Zn  Zn168  1  0.55697458  0.55749685  0.31452159  1
  Zn  Zn169  1  0.56150144  0.56185142  0.81239092  1
  Zn  Zn170  1  0.43784085  0.18869420  0.43952475  1
  Zn  Zn171  1  0.43638873  0.18648723  0.93659633  1
  Zn  Zn172  1  0.43992847  0.68603828  0.43893594  1
  Zn  Zn173  1  0.43915001  0.68730366  0.93702230  1
  Zn  Zn174  1  0.93704365  0.18732862  0.43520255  1
  Zn  Zn175  1  0.93585723  0.18919609  0.93616754  1
  Zn  Zn176  1  0.94043090  0.68711101  0.43839997  1
  Zn  Zn177  1  0.93750156  0.68845187  0.93637288  1
  Zn  Zn178  1  0.05885428  0.31386190  0.06684040  1
  Zn  Zn179  1  0.06242907  0.31553729  0.56297340  1
  Zn  Zn180  1  0.06402928  0.81939502  0.05798850  1
  Zn  Zn181  1  0.06247667  0.81458662  0.56354690  1
  Zn  Zn182  1  0.55847957  0.31330449  0.06360141  1
  Zn  Zn183  1  0.56103527  0.30976061  0.56492547  1
  Zn  Zn184  1  0.56470978  0.81101292  0.06028080  1
  Zn  Zn185  1  0.56295317  0.81247798  0.55826470  1
  O  O186  1  0.11669929  0.11590368  0.15539660  1
  O  O187  1  0.12297113  0.11024906  0.62129421  1
  O  O188  1  0.11970321  0.62163655  0.11950368  1
  O  O189  1  0.13160460  0.61324971  0.61614686  1
  O  O190  1  0.62351550  0.11909644  0.11814497  1
  O  O191  1  0.62006200  0.11864308  0.62086031  1
  O  O192  1  0.61655444  0.62093380  0.12034663  1
  O  O193  1  0.62061669  0.61934252  0.61688573  1
  O  O194  1  0.37331711  0.37532500  0.38759145  1
  O  O195  1  0.37327997  0.37844229  0.88521614  1
  O  O196  1  0.38339989  0.88120424  0.37298589  1
  O  O197  1  0.38120037  0.87636905  0.88168657  1
  O  O198  1  0.87689307  0.38618392  0.38301781  1
  O  O199  1  0.88135454  0.38182225  0.88025278  1
  O  O200  1  0.88307426  0.87736336  0.38049521  1
  O  O201  1  0.88202719  0.88302046  0.87273653  1
  O  O202  1  0.26023552  0.00188866  0.37181909  1
  O  O203  1  0.24903263  0.01029389  0.86493410  1
  O  O204  1  0.25137416  0.50817437  0.36839249  1
  O  O205  1  0.25286689  0.50480250  0.87145420  1
  O  O206  1  0.75130856  0.00641874  0.36796883  1
  O  O207  1  0.75960584  0.00061452  0.86611756  1
  O  O208  1  0.76554633  0.49723628  0.37680323  1
  O  O209  1  0.75657061  0.50488440  0.86815297  1
  O  O210  1  0.24272710  0.49630113  0.13096306  1
  O  O211  1  0.24057640  0.49418370  0.63159132  1
  O  O212  1  0.25223781  0.99138022  0.13467353  1
  O  O213  1  0.24402402  0.99328806  0.63020826  1
  O  O214  1  0.74052060  0.49839039  0.12917353  1
  O  O215  1  0.74506226  0.49419622  0.63060200  1
  O  O216  1  0.74643295  0.99310039  0.12851104  1
  O  O217  1  0.74365552  0.99740016  0.63071527  1
  O  O218  1  0.00752163  0.36909996  0.25242475  1
  O  O219  1  -0.00023627  0.36544854  0.75691236  1
  O  O220  1  0.00656480  0.87050604  0.25524876  1
  O  O221  1  -0.00442781  0.86100101  0.76072737  1
  O  O222  1  0.50972264  0.36928813  0.25082020  1
  O  O223  1  0.50607043  0.36720007  0.75035382  1
  O  O224  1  0.51115151  0.88071903  0.25695004  1
  O  O225  1  0.50464381  0.87025843  0.75460997  1
  O  O226  1  0.49358271  0.13117868  0.24774090  1
  O  O227  1  0.49031982  0.12744914  0.74716101  1
  O  O228  1  0.49031901  0.61929614  0.23918323  1
  O  O229  1  0.49919274  0.63108427  0.74207981  1
  O  O230  1  0.98434581  0.13252949  0.25741879  1
  O  O231  1  0.99270949  0.13277746  0.74962963  1
  O  O232  1  0.99637985  0.63383052  0.24334546  1
  O  O233  1  0.99205819  0.63834525  0.75640441  1
  O  O234  1  0.38088537  0.25988403  0.01081632  1
  O  O235  1  0.36682039  0.25759259  0.50302972  1
  O  O236  1  0.37010495  0.75454799  0.00531458  1
  O  O237  1  0.37243132  0.74943500  0.51310557  1
  O  O238  1  0.86862381  0.25801712  0.00444684  1
  O  O239  1  0.86876257  0.25620646  0.50058798  1
  O  O240  1  0.87444404  0.75387361  0.01047925  1
  O  O241  1  0.87091984  0.75169567  0.50493050  1
  O  O242  1  0.12981395  0.24955411  0.49436191  1
  O  O243  1  0.11967277  0.25356829  0.98966878  1
  O  O244  1  0.12330074  0.74024261  0.49698708  1
  O  O245  1  0.13104830  0.74604704  0.98976698  1
  O  O246  1  0.63034804  0.24364160  0.49550409  1
  O  O247  1  0.62769618  0.24697803  0.99590710  1
  O  O248  1  0.63470426  0.74133718  0.49913481  1
  O  O249  1  0.62869035  0.74071760  0.99623848  1
  O  O250  1  0.48732368  0.24890688  0.13208913  1
  O  O251  1  0.49828055  0.23994575  0.63414667  1
  O  O252  1  0.49413846  0.73717887  0.11865983  1
  O  O253  1  0.49259467  0.74584037  0.62851844  1
  O  O254  1  0.99178938  0.24897465  0.13422850  1
  O  O255  1  0.99914489  0.24931048  0.63617633  1
  O  O256  1  0.99397792  0.74895006  0.12758347  1
  O  O257  1  0.99168002  0.75651953  0.63439147  1
  O  O258  1  0.00688312  0.25324313  0.37003659  1
  O  O259  1  0.00682786  0.25516253  0.86791951  1
  O  O260  1  0.00518681  0.75566711  0.36932551  1
  O  O261  1  0.00705365  0.75540402  0.86742927  1
  O  O262  1  0.50658425  0.25142564  0.36866732  1
  O  O263  1  0.50579440  0.25134305  0.86841878  1
  O  O264  1  0.50337949  0.76193244  0.37702106  1
  O  O265  1  0.50122735  0.75589648  0.86671938  1
  O  O266  1  0.24877688  0.13079932  0.49398613  1
  O  O267  1  0.25736659  0.12027869  0.98365233  1
  O  O268  1  0.23790249  0.62495076  0.49490985  1
  O  O269  1  0.24488387  0.63110471  0.99521247  1
  O  O270  1  0.74488623  0.12985881  0.49540958  1
  O  O271  1  0.74320343  0.13383862  0.99757698  1
  O  O272  1  0.73978057  0.63394805  0.50455909  1
  O  O273  1  0.74332161  0.62509623  0.99246544  1
  O  O274  1  0.26228000  0.38160008  0.00865892  1
  O  O275  1  0.25602459  0.36973158  0.50655039  1
  O  O276  1  0.25796607  0.86825133  0.00421318  1
  O  O277  1  0.25428552  0.87228981  0.51342835  1
  O  O278  1  0.75652538  0.37103855  0.00103346  1
  O  O279  1  0.75376914  0.36884611  0.50583051  1
  O  O280  1  0.75064617  0.87584534  0.01149992  1
  O  O281  1  0.75604222  0.86550114  0.50072970  1
  O  O282  1  0.12832597  0.49718094  0.24522863  1
  O  O283  1  0.12801922  0.50047391  0.74223446  1
  O  O284  1  0.13557578  0.98734558  0.25713681  1
  O  O285  1  0.13559790  1.00505839  0.74050637  1
  O  O286  1  0.62256766  0.49096358  0.24552253  1
  O  O287  1  0.63104083  0.49412889  0.74467135  1
  O  O288  1  0.63125498  0.99247180  0.24257695  1
  O  O289  1  0.63028563  0.99549346  0.74449886  1
  O  O290  1  0.37105534  0.00411654  0.25909596  1
  O  O291  1  0.36514430  0.00956206  0.75098152  1
  O  O292  1  0.36796266  0.51215216  0.24871338  1
  O  O293  1  0.36775727  0.49930603  0.75747636  1
  O  O294  1  0.86877781  0.01018964  0.25095270  1
  O  O295  1  0.87217078  0.00531758  0.75481091  1
  O  O296  1  0.87765114  0.49899523  0.26608961  1
  O  O297  1  0.87132813  0.50451550  0.75437729  1
  O  O298  1  0.12534671  0.36995833  0.36953004  1
  O  O299  1  0.11993019  0.36549089  0.87364631  1
  O  O300  1  0.12114179  0.86745225  0.37139328  1
  O  O301  1  0.11936375  0.86178532  0.87514242  1
  O  O302  1  0.62372879  0.36816768  0.36711204  1
  O  O303  1  0.62204568  0.36929252  0.86800638  1
  O  O304  1  0.61807345  0.87498648  0.36439995  1
  O  O305  1  0.61830114  0.87358779  0.86688664  1
  O  O306  1  0.37387128  0.13444185  0.13138399  1
  O  O307  1  0.37896441  0.12449533  0.63513494  1
  O  O308  1  0.38149462  0.62895582  0.13073236  1
  O  O309  1  0.37951321  0.63313683  0.62585253  1
  O  O310  1  0.87019285  0.13339865  0.13828843  1
  O  O311  1  0.87871865  0.12593488  0.63716538  1
  O  O312  1  0.88163018  0.63656824  0.12389440  1
  O  O313  1  0.87196924  0.63670555  0.62947572  1
  O  O314  1  0.26356617  0.25817781  0.13400536  1
  O  O315  1  0.24742820  0.25564107  0.62037024  1
  O  O316  1  0.25643294  0.75445329  0.11780356  1
  O  O317  1  0.25690904  0.75750374  0.62831460  1
  O  O318  1  0.75617413  0.25551471  0.11812383  1
  O  O319  1  0.75190397  0.25600705  0.61903063  1
  O  O320  1  0.75968039  0.76092705  0.12254722  1
  O  O321  1  0.76130577  0.75211632  0.61441128  1
  O  O322  1  0.24463785  0.24409110  0.38080113  1
  O  O323  1  0.24017480  0.23575983  0.87005840  1
  O  O324  1  0.24278148  0.74359887  0.37865938  1
  O  O325  1  0.24398064  0.74634967  0.87709512  1
  O  O326  1  0.74318315  0.24460224  0.38135731  1
  O  O327  1  0.74299260  0.24928096  0.88184005  1
  O  O328  1  0.74939320  0.75430742  0.38659385  1
  O  O329  1  0.74974931  0.74172325  0.87525053  1
  O  O330  1  -0.00762109  0.12176774  0.00005424  1
  O  O331  1  -0.00048053  0.11296071  0.50167077  1
  O  O332  1  0.00582470  0.62104142  0.00469323  1
  O  O333  1  0.01280902  0.61505392  0.49681004  1
  O  O334  1  0.50550215  0.11807722  0.00078379  1
  O  O335  1  0.50684852  0.12344930  0.50726493  1
  O  O336  1  0.50405136  0.61916999  0.00831959  1
  O  O337  1  0.51031212  0.62467941  0.50823413  1
  O  O338  1  0.48749648  0.37316791  0.50245195  1
  O  O339  1  0.48711392  0.38221028  1.00041745  1
  O  O340  1  0.49904018  0.87853040  0.48733502  1
  O  O341  1  0.49626175  0.87933725  0.99477743  1
  O  O342  1  0.99351233  0.38573107  0.49974996  1
  O  O343  1  0.99403102  0.38252514  0.99515082  1
  O  O344  1  0.99573207  0.88214336  0.49426087  1
  O  O345  1  0.99648903  0.87465922  0.98149305  1
  O  O346  1  0.49243281  0.49346762  0.38191548  1
  O  O347  1  0.49159599  0.49817816  0.88132415  1
  O  O348  1  0.49069464  0.99197407  0.37424219  1
  O  O349  1  0.49722988  0.99271974  0.88120924  1
  O  O350  1  0.99263024  0.49714967  0.38729420  1
  O  O351  1  0.99595427  0.49624222  0.88009714  1
  O  O352  1  1.00148597  0.99491819  0.38450564  1
  O  O353  1  0.99256526  0.99026751  0.86795171  1
  O  O354  1  0.00351280  0.00422902  0.11808031  1
  O  O355  1  0.00823056  -0.00487604  0.61727753  1
  O  O356  1  0.00467707  0.50675489  0.11991272  1
  O  O357  1  0.00931904  0.49559902  0.61545832  1
  O  O358  1  0.50672582  0.00090271  0.11754079  1
  O  O359  1  0.50591747  0.00592283  0.62424593  1
  O  O360  1  0.50434939  0.51064329  0.11963345  1
  O  O361  1  0.50700711  0.50631095  0.62404521  1
  O  O362  1  0.24493435  0.38244502  0.24494209  1
  O  O363  1  0.24727242  0.38041466  0.74511031  1
  O  O364  1  0.24722166  0.87751620  0.24495478  1
  O  O365  1  0.25785345  0.88695285  0.73973212  1
  O  O366  1  0.73520591  0.37685250  0.24998245  1
  O  O367  1  0.74511076  0.38015163  0.74514954  1
  O  O368  1  0.74365875  0.88160890  0.23983777  1
  O  O369  1  0.74320704  0.88098446  0.74638241  1
  O  O370  1  0.25945419  0.11828741  0.25951239  1
  O  O371  1  0.25693619  0.11650527  0.75350716  1
  O  O372  1  0.25670433  0.62065632  0.25454227  1
  O  O373  1  0.25262305  0.61681365  0.75769703  1
  O  O374  1  0.75620544  0.12212198  0.25503957  1
  O  O375  1  0.76003775  0.11893498  0.75056539  1
  O  O376  1  0.75493356  0.62533682  0.25119906  1
  O  O377  1  0.75626374  0.61838358  0.75338562  1
  O  O378  1  0.37192725  0.11652670  0.37149508  1
  O  O379  1  0.36268526  0.12509377  0.86544131  1
  O  O380  1  0.36983931  0.62646302  0.36668088  1
  O  O381  1  0.36789623  0.61800432  0.87504162  1
  O  O382  1  0.86602648  0.12481974  0.36549757  1
  O  O383  1  0.87427099  0.11588593  0.86179258  1
  O  O384  1  0.88168013  0.60992103  0.37659352  1
  O  O385  1  0.87024535  0.61924650  0.86878422  1
  O  O386  1  0.12967580  0.38169814  0.13110406  1
  O  O387  1  0.13029442  0.38723936  0.62715795  1
  O  O388  1  0.13437442  0.87109747  0.13350304  1
  O  O389  1  0.13591281  0.88497281  0.62144395  1
  O  O390  1  0.62311286  0.38116498  0.13406484  1
  O  O391  1  0.63048276  0.37966600  0.63050228  1
  O  O392  1  0.63230956  0.88000327  0.12963283  1
  O  O393  1  0.62449506  0.88154400  0.63042861  1
  O  O394  1  0.12054086  0.25868291  0.25723770  1
  O  O395  1  0.11330161  0.24864965  0.75766525  1
  O  O396  1  0.12033758  0.75465434  0.25631222  1
  O  O397  1  0.11651619  0.74134889  0.75924198  1
  O  O398  1  0.62000910  0.25653471  0.25396398  1
  O  O399  1  0.62031864  0.25403451  0.75543475  1
  O  O400  1  0.63203639  0.76505585  0.24775747  1
  O  O401  1  0.61924196  0.75639754  0.74783748  1
  O  O402  1  0.37995970  0.24624088  0.24409951  1
  O  O403  1  0.37876863  0.23914552  0.74957277  1
  O  O404  1  0.36862692  0.73587008  0.24248522  1
  O  O405  1  0.38174636  0.74802426  0.73854283  1
  O  O406  1  0.87789179  0.24574759  0.24704925  1
  O  O407  1  0.88459007  0.24158195  0.75233275  1
  O  O408  1  0.88208426  0.75390488  0.23793684  1
  O  O409  1  0.88125516  0.74500620  0.74088373  1
  O  O410  1  0.37341016  0.48793843  0.50136790  1
  O  O411  1  0.37855338  0.49209599  0.99625474  1
  O  O412  1  0.37662764  0.99842801  0.48728365  1
  O  O413  1  0.38178812  0.99199775  0.99910689  1
  O  O414  1  0.88152913  0.49767498  0.49412613  1
  O  O415  1  0.88072706  0.49703080  0.99445746  1
  O  O416  1  0.88483150  0.99379171  0.50022296  1
  O  O417  1  0.87224721  0.99973128  0.98285626  1
  O  O418  1  0.12411940  -0.00599360  0.00349273  1
  O  O419  1  0.11595513  -0.00034666  0.50744799  1
  O  O420  1  0.11938961  0.50602795  0.00581599  1
  O  O421  1  0.11863015  0.50565561  0.50705305  1
  O  O422  1  0.62062474  0.00585369  0.00396434  1
  O  O423  1  0.62550987  0.00668490  0.50591350  1
  O  O424  1  0.61808854  0.50510742  0.00521349  1
  O  O425  1  0.62631100  0.50777252  0.50665627  1
  O  O426  1  0.37050008  0.36964952  0.12007061  1
  O  O427  1  0.36688116  0.37209239  0.61758555  1
  O  O428  1  0.37086669  0.86858560  0.12043766  1
  O  O429  1  0.36824930  0.86638816  0.62346127  1
  O  O430  1  0.87424696  0.37063099  0.11883501  1
  O  O431  1  0.86736727  0.37438346  0.61820073  1
  O  O432  1  0.86735497  0.86968672  0.12380068  1
  O  O433  1  0.87384494  0.86254424  0.61733034  1
  O  O434  1  0.13316440  0.13249288  0.37545621  1
  O  O435  1  0.13746488  0.13096887  0.87219081  1
  O  O436  1  0.12913817  0.62964434  0.38315883  1
  O  O437  1  0.13066196  0.63434839  0.88125696  1
  O  O438  1  0.62953682  0.12959103  0.37949355  1
  O  O439  1  0.62688985  0.13191661  0.88117070  1
  O  O440  1  0.61687560  0.62510764  0.38778758  1
  O  O441  1  0.63153539  0.62433370  0.88034825  1
