# generated using pymatgen
data_V93Zn93O256
_symmetry_space_group_name_H-M   'P 1'
_cell_length_a   17.04752716
_cell_length_b   17.04653910
_cell_length_c   17.04537688
_cell_angle_alpha   89.98149165
_cell_angle_beta   89.95193952
_cell_angle_gamma   90.02501866
_symmetry_Int_Tables_number   1
_chemical_formula_structural   V93Zn93O256
_chemical_formula_sum   'V93 Zn93 O256'
_cell_volume   4953.40685918
_cell_formula_units_Z   1
loop_
 _symmetry_equiv_pos_site_id
 _symmetry_equiv_pos_as_xyz
  1  'x, y, z'
loop_
 _atom_site_type_symbol
 _atom_site_label
 _atom_site_symmetry_multiplicity
 _atom_site_fract_x
 _atom_site_fract_y
 _atom_site_fract_z
 _atom_site_occupancy
  V  V0  1  0.12551827  0.49507814  0.62964861  1
  V  V1  1  0.87626044  0.12613861  0.75094658  1
  V  V2  1  0.12364598  0.87575589  0.75073923  1
  V  V3  1  0.87667616  0.37567515  0.00338164  1
  V  V4  1  0.88047067  0.37503486  0.49946185  1
  V  V5  1  0.74708022  0.87495112  0.12462665  1
  V  V6  1  0.37309150  0.87491260  -0.00138277  1
  V  V7  1  0.50111258  0.87385436  0.37491829  1
  V  V8  1  0.50236118  0.24961179  0.24589737  1
  V  V9  1  0.37632662  0.25029643  0.62411303  1
  V  V10  1  0.62024214  0.12438666  0.00085066  1
  V  V11  1  0.37278279  0.74910735  0.12564255  1
  V  V12  1  0.00335700  0.25501740  0.75084173  1
  V  V13  1  0.50211544  0.00145791  0.49881264  1
  V  V14  1  -0.00746019  0.12413717  0.12835896  1
  V  V15  1  0.49898536  0.87491172  0.87397548  1
  V  V16  1  -0.00018603  0.62506269  0.62658249  1
  V  V17  1  0.49826666  0.49914060  0.00029127  1
  V  V18  1  0.75096782  0.37554890  0.62507438  1
  V  V19  1  0.25132091  0.24996207  0.49960078  1
  V  V20  1  0.12756100  0.12540721  0.50047075  1
  V  V21  1  0.88073808  0.49695030  0.37567112  1
  V  V22  1  0.62692407  0.25235164  0.37052324  1
  V  V23  1  0.62317027  0.75056247  0.87514853  1
  V  V24  1  0.50140928  0.49928324  0.49938705  1
  V  V25  1  0.62664015  0.50014345  0.62590622  1
  V  V26  1  0.25005839  0.37553213  0.62636703  1
  V  V27  1  0.62677178  0.37545649  0.74975358  1
  V  V28  1  0.24989626  0.62420250  0.37606113  1
  V  V29  1  -0.00063885  0.74981427  0.24969165  1
  V  V30  1  0.37731213  0.37424693  0.49901075  1
  V  V31  1  0.49823377  0.62487174  0.12573239  1
  V  V32  1  0.75026190  0.62502063  0.37569277  1
  V  V33  1  0.74929235  0.25030373  0.00172674  1
  V  V34  1  0.62692140  0.62564706  0.50038750  1
  V  V35  1  0.87522498  0.62458261  0.25064760  1
  V  V36  1  0.12494426  0.25349190  0.87387768  1
  V  V37  1  -0.00060722  -0.00043871  0.00001141  1
  V  V38  1  0.12493589  0.87467615  0.24949827  1
  V  V39  1  0.24793864  0.74871374  -0.00012727  1
  V  V40  1  0.00162635  0.12684304  0.62567725  1
  V  V41  1  0.87421911  0.00106249  0.87569471  1
  V  V42  1  0.49884643  0.62761826  0.62678562  1
  V  V43  1  0.25014184  -0.00000929  0.24849636  1
  V  V44  1  0.62517133  0.75082651  0.37375252  1
  V  V45  1  0.49984645  0.37569686  0.87550993  1
  V  V46  1  0.24998652  0.74999802  0.49948751  1
  V  V47  1  0.37670702  0.24791193  0.12479335  1
  V  V48  1  0.37442164  0.37427704  -0.00036736  1
  V  V49  1  0.49850183  0.00310222  0.00194406  1
  V  V50  1  0.37524125  0.12479804  0.75026660  1
  V  V51  1  0.37980050  0.12436553  0.24467262  1
  V  V52  1  0.62478677  0.87670227  0.74892606  1
  V  V53  1  0.62304631  0.62420635  0.00077631  1
  V  V54  1  0.12574834  0.62487257  0.50048669  1
  V  V55  1  0.11716327  0.62002586  0.00086874  1
  V  V56  1  0.37486482  0.87532378  0.50015080  1
  V  V57  1  0.50395298  0.37574693  0.36999145  1
  V  V58  1  0.24877406  0.62259552  0.87472432  1
  V  V59  1  0.37342254  0.00090985  0.87401499  1
  V  V60  1  0.37701929  -0.00010364  0.37313263  1
  V  V61  1  0.12255520  0.25276824  0.37563200  1
  V  V62  1  0.00269654  0.00002918  0.49928132  1
  V  V63  1  0.50087008  0.25109725  0.74897090  1
  V  V64  1  0.87740213  0.50056839  0.88123669  1
  V  V65  1  0.24931266  0.24870034  -0.00005608  1
  V  V66  1  0.75032412  0.12574466  0.87509794  1
  V  V67  1  0.00054850  0.37718280  0.87835053  1
  V  V68  1  0.61879131  0.00404423  0.12491696  1
  V  V69  1  0.74862120  0.74934775  0.00091367  1
  V  V70  1  0.74345783  0.49578055  0.25106544  1
  V  V71  1  0.24854199  0.37333043  0.12513132  1
  V  V72  1  0.75564101  0.00626988  0.25077955  1
  V  V73  1  0.74916548  0.62441274  0.87571831  1
  V  V74  1  0.24999435  0.87584891  0.62551780  1
  V  V75  1  0.00087648  0.49890277  0.49914127  1
  V  V76  1  0.11696616  0.49848050  0.12204744  1
  V  V77  1  0.75201453  0.25009652  0.49948076  1
  V  V78  1  0.12307765  0.74976062  0.87523609  1
  V  V79  1  0.24892223  0.49687092  0.75058483  1
  V  V80  1  0.62774946  0.12577015  0.49870328  1
  V  V81  1  0.87678306  0.87705305  0.49739350  1
  V  V82  1  0.25031748  0.49987682  0.25182613  1
  V  V83  1  0.11869501  0.37372199  0.25384888  1
  V  V84  1  -0.00400741  0.24477313  0.25153422  1
  V  V85  1  0.75196213  0.87655496  0.62442271  1
  V  V86  1  0.12371004  0.12474450  0.00060677  1
  V  V87  1  0.50213830  0.12583774  0.62310895  1
  V  V88  1  0.87438966  0.87438866  -0.00160297  1
  V  V89  1  0.87523539  0.62659074  0.75014481  1
  V  V90  1  0.74332615  0.37484624  0.12915179  1
  V  V91  1  0.87250954  0.74870202  0.12556481  1
  V  V92  1  0.62536565  0.25003197  0.87528328  1
  Zn  Zn93  1  0.62292408  0.87598173  0.24852266  1
  Zn  Zn94  1  0.37407500  0.50036135  0.87394801  1
  Zn  Zn95  1  0.12456321  -0.00012431  0.12357764  1
  Zn  Zn96  1  0.87663476  0.25163323  0.62549887  1
  Zn  Zn97  1  0.87728430  0.75085996  0.62380376  1
  Zn  Zn98  1  -0.00084860  0.75149974  0.75009771  1
  Zn  Zn99  1  0.24909343  0.00307064  0.75046247  1
  Zn  Zn100  1  0.88251601  0.00827475  0.36634205  1
  Zn  Zn101  1  0.24870834  0.12439238  0.87318265  1
  Zn  Zn102  1  0.12401559  0.74913362  0.37515276  1
  Zn  Zn103  1  0.24838715  0.87450696  0.12341484  1
  Zn  Zn104  1  0.37431094  0.62554812  0.25314034  1
  Zn  Zn105  1  0.75102395  0.00277206  0.74909766  1
  Zn  Zn106  1  0.37565570  0.75007792  0.62668897  1
  Zn  Zn107  1  0.87120998  0.24649896  0.13281217  1
  Zn  Zn108  1  0.25242950  0.12627621  0.37496810  1
  Zn  Zn109  1  -0.00472048  0.61945581  0.12143145  1
  Zn  Zn110  1  0.62111583  0.49671187  0.12933773  1
  Zn  Zn111  1  0.75906023  0.13003985  0.37024249  1
  Zn  Zn112  1  0.75398384  0.75094099  0.49901149  1
  Zn  Zn113  1  0.37443285  0.62717175  0.75254097  1
  Zn  Zn114  1  0.62692499  0.00171525  0.62403201  1
  Zn  Zn115  1  0.12691551  0.00186673  0.62690742  1
  Zn  Zn116  1  0.75056655  0.49926914  0.75085032  1
  Zn  Zn117  1  -0.00046322  0.87581860  0.37436239  1
  Zn  Zn118  1  -0.00159526  0.87501824  0.87354309  1
  Zn  Zn119  1  0.49611977  0.75011611  0.75024356  1
  Zn  Zn120  1  0.49845761  0.75012046  0.25041781  1
  Zn  Zn121  1  0.37611566  0.50000640  0.37523813  1
  Zn  Zn122  1  0.18626225  0.18454604  0.18649343  1
  Zn  Zn123  1  0.18802101  0.18837762  0.68801800  1
  Zn  Zn124  1  0.18563565  0.68483587  0.18668186  1
  Zn  Zn125  1  0.18733943  0.68722427  0.68819666  1
  Zn  Zn126  1  0.68557312  0.18585283  0.18556175  1
  Zn  Zn127  1  0.68963108  0.18919908  0.68588828  1
  Zn  Zn128  1  0.68685559  0.68518493  0.18946389  1
  Zn  Zn129  1  0.68905870  0.69062989  0.68741656  1
  Zn  Zn130  1  0.31265430  0.31296948  0.31297129  1
  Zn  Zn131  1  0.31252410  0.31352741  0.81175395  1
  Zn  Zn132  1  0.31162071  0.81183250  0.31310691  1
  Zn  Zn133  1  0.31137846  0.80966878  0.81087917  1
  Zn  Zn134  1  0.81390034  0.31543013  0.31458150  1
  Zn  Zn135  1  0.81384686  0.31194433  0.81297482  1
  Zn  Zn136  1  0.81096316  0.81812579  0.31216180  1
  Zn  Zn137  1  0.81020107  0.81276926  0.81304146  1
  Zn  Zn138  1  0.18699881  0.43614679  0.43891883  1
  Zn  Zn139  1  0.18669320  0.43663158  0.93843235  1
  Zn  Zn140  1  0.18727390  0.93679952  0.43460881  1
  Zn  Zn141  1  0.18789158  0.93811081  0.93592722  1
  Zn  Zn142  1  0.68947395  0.43675208  0.43837897  1
  Zn  Zn143  1  0.68770920  0.43888048  0.93975992  1
  Zn  Zn144  1  0.68807535  0.93784158  0.43639689  1
  Zn  Zn145  1  0.68746133  0.93869482  0.93723276  1
  Zn  Zn146  1  0.31138704  0.06307526  0.06209041  1
  Zn  Zn147  1  0.31413459  0.06230599  0.56289280  1
  Zn  Zn148  1  0.30868369  0.56093052  0.06198109  1
  Zn  Zn149  1  0.31454643  0.56152467  0.56154518  1
  Zn  Zn150  1  0.80973642  0.06171524  0.06244152  1
  Zn  Zn151  1  0.81548240  0.06414839  0.56162071  1
  Zn  Zn152  1  0.81031298  0.56110515  0.06446101  1
  Zn  Zn153  1  0.81213595  0.56194049  0.56311985  1
  Zn  Zn154  1  0.43593260  0.43515123  0.18656863  1
  Zn  Zn155  1  0.43649768  0.43998157  0.68799429  1
  Zn  Zn156  1  0.43854725  0.93367637  0.18755095  1
  Zn  Zn157  1  0.43793037  0.93950020  0.68626050  1
  Zn  Zn158  1  0.93442323  0.43370468  0.19054187  1
  Zn  Zn159  1  0.93748380  0.43916510  0.69008488  1
  Zn  Zn160  1  0.93733530  0.93535423  0.18302642  1
  Zn  Zn161  1  0.93818655  0.94071326  0.68593455  1
  Zn  Zn162  1  0.06556691  0.06505523  0.31440053  1
  Zn  Zn163  1  0.06177350  0.06317179  0.81370747  1
  Zn  Zn164  1  0.06303464  0.56387369  0.31187162  1
  Zn  Zn165  1  0.06192331  0.56115364  0.81252256  1
  Zn  Zn166  1  0.56586587  0.06477544  0.31147903  1
  Zn  Zn167  1  0.56130407  0.06191574  0.81315810  1
  Zn  Zn168  1  0.56157643  0.56547284  0.31289083  1
  Zn  Zn169  1  0.56219834  0.56126918  0.81217261  1
  Zn  Zn170  1  0.43854790  0.18627465  0.43394877  1
  Zn  Zn171  1  0.43744951  0.18658325  0.93624355  1
  Zn  Zn172  1  0.43593442  0.68704062  0.43871519  1
  Zn  Zn173  1  0.43533898  0.68711799  0.93704403  1
  Zn  Zn174  1  0.93775508  0.18563625  0.43578050  1
  Zn  Zn175  1  0.93647910  0.18821215  0.94083978  1
  Zn  Zn176  1  0.93850887  0.68743748  0.43722378  1
  Zn  Zn177  1  0.93818692  0.69000527  0.93600806  1
  Zn  Zn178  1  0.06086085  0.30984537  0.06435022  1
  Zn  Zn179  1  0.06308401  0.31309826  0.56250383  1
  Zn  Zn180  1  0.06100310  0.81162137  0.06373966  1
  Zn  Zn181  1  0.06298851  0.81056549  0.56505406  1
  Zn  Zn182  1  0.56222667  0.31193433  0.06208508  1
  Zn  Zn183  1  0.56493235  0.31272741  0.56005376  1
  Zn  Zn184  1  0.56030839  0.81441233  0.06103352  1
  Zn  Zn185  1  0.56440549  0.81255360  0.56084246  1
  O  O186  1  0.11452566  0.12368463  0.11751607  1
  O  O187  1  0.12008429  0.12495922  0.61850431  1
  O  O188  1  0.12279170  0.61540751  0.11741505  1
  O  O189  1  0.12061666  0.61517004  0.61984324  1
  O  O190  1  0.62875588  0.11233529  0.11604639  1
  O  O191  1  0.61971628  0.12539648  0.61791947  1
  O  O192  1  0.61326911  0.62530942  0.11982019  1
  O  O193  1  0.61967776  0.62099627  0.62054622  1
  O  O194  1  0.38638323  0.37498869  0.38049724  1
  O  O195  1  0.38193279  0.37506448  0.88200766  1
  O  O196  1  0.38066070  0.88005608  0.38011187  1
  O  O197  1  0.37900431  0.87955760  0.87960167  1
  O  O198  1  0.86955250  0.38734184  0.38741243  1
  O  O199  1  0.87912952  0.38177705  0.88384075  1
  O  O200  1  0.87661094  0.88324286  0.38522222  1
  O  O201  1  0.87428736  0.88139323  0.88086864  1
  O  O202  1  0.25768301  -0.00033447  0.36324103  1
  O  O203  1  0.25850243  0.00333996  0.87232565  1
  O  O204  1  0.24930297  0.50326516  0.36628066  1
  O  O205  1  0.24695850  0.50223835  0.86536285  1
  O  O206  1  0.74587094  -0.00078605  0.35670788  1
  O  O207  1  0.75617558  0.00826312  0.87437655  1
  O  O208  1  0.75842682  0.50384219  0.36926348  1
  O  O209  1  0.75988529  0.50565624  0.87455812  1
  O  O210  1  0.23963765  0.49440320  0.13398895  1
  O  O211  1  0.24345516  0.49648934  0.63078164  1
  O  O212  1  0.24866792  0.99747981  0.13719022  1
  O  O213  1  0.24892155  0.98770641  0.62553323  1
  O  O214  1  0.74835994  0.49280001  0.13449976  1
  O  O215  1  0.74343639  0.49362402  0.62668342  1
  O  O216  1  0.74075974  0.99515905  0.13161040  1
  O  O217  1  0.74941844  0.98903333  0.62660727  1
  O  O218  1  0.01365273  0.36456773  0.24375424  1
  O  O219  1  -0.00804977  0.36502246  0.76365964  1
  O  O220  1  0.00669182  0.86784417  0.24966713  1
  O  O221  1  0.01143397  0.87428307  0.74892901  1
  O  O222  1  0.49400305  0.36563777  0.26096627  1
  O  O223  1  0.50595747  0.37043041  0.75458582  1
  O  O224  1  0.50295716  0.87070067  0.25887359  1
  O  O225  1  0.50934736  0.87444274  0.75419332  1
  O  O226  1  0.48955084  0.13611616  0.25551055  1
  O  O227  1  0.49646676  0.13193824  0.74391342  1
  O  O228  1  0.49604242  0.62584839  0.23830522  1
  O  O229  1  0.50056124  0.62567466  0.73867119  1
  O  O230  1  1.00855732  0.13314070  0.24013915  1
  O  O231  1  0.99611716  0.13467932  0.74621803  1
  O  O232  1  0.99415474  0.63396882  0.24811995  1
  O  O233  1  0.99044486  0.62405889  0.74564238  1
  O  O234  1  0.37041666  0.25394547  0.00516321  1
  O  O235  1  0.37189304  0.25379055  0.50462017  1
  O  O236  1  0.36849320  0.75446807  0.00735382  1
  O  O237  1  0.36816767  0.75812309  0.50249854  1
  O  O238  1  0.86670877  0.26063720  0.00102709  1
  O  O239  1  0.87246927  0.26130274  0.49979539  1
  O  O240  1  0.86794637  0.75322123  0.00508405  1
  O  O241  1  0.87604195  0.76334322  0.50021319  1
  O  O242  1  0.13008964  0.24758123  0.49295990  1
  O  O243  1  0.12901525  0.24518136  0.99311056  1
  O  O244  1  0.13102345  0.74302981  0.49826160  1
  O  O245  1  0.12885474  0.74177419  0.99681998  1
  O  O246  1  0.63106373  0.24603833  0.49042475  1
  O  O247  1  0.62916290  0.24477711  0.99493227  1
  O  O248  1  0.62844440  0.74489188  0.48864963  1
  O  O249  1  0.62916073  0.74467691  0.99493279  1
  O  O250  1  0.49369183  0.25918361  0.13812523  1
  O  O251  1  0.49607412  0.24634151  0.62920849  1
  O  O252  1  0.49006446  0.74142070  0.12266081  1
  O  O253  1  0.50160391  0.73849262  0.62441811  1
  O  O254  1  0.99835716  0.24124535  0.13412997  1
  O  O255  1  1.00196045  0.24733681  0.63593381  1
  O  O256  1  0.99169055  0.74837076  0.13584764  1
  O  O257  1  0.99752580  0.74023822  0.62940806  1
  O  O258  1  0.01547425  0.24256716  0.36697399  1
  O  O259  1  0.00572441  0.25658279  0.87020211  1
  O  O260  1  0.00044713  0.75187098  0.36108600  1
  O  O261  1  0.00789820  0.75405283  0.87141666  1
  O  O262  1  0.50725711  0.25720792  0.36757264  1
  O  O263  1  0.50616548  0.25616830  0.86903158  1
  O  O264  1  0.50886776  0.75364684  0.37524676  1
  O  O265  1  0.50599177  0.75676736  0.87541454  1
  O  O266  1  0.24630839  0.13232163  0.49961921  1
  O  O267  1  0.24283435  0.13214904  0.99850657  1
  O  O268  1  0.24530970  0.62911945  0.49636197  1
  O  O269  1  0.23845082  0.62851783  0.99526868  1
  O  O270  1  0.74463226  0.13278103  0.49991546  1
  O  O271  1  0.74263200  0.13111573  0.99489699  1
  O  O272  1  0.74513047  0.62660744  0.49366618  1
  O  O273  1  0.74358516  0.62975888  0.99585377  1
  O  O274  1  0.25433702  0.36815140  0.00569564  1
  O  O275  1  0.25719289  0.36981047  0.50568865  1
  O  O276  1  0.25481301  0.86723854  0.00179410  1
  O  O277  1  0.25370542  0.87126882  0.50643101  1
  O  O278  1  0.75720291  0.37059355  0.00790735  1
  O  O279  1  0.75956713  0.37081061  0.50559004  1
  O  O280  1  0.75406132  0.86845336  0.00438635  1
  O  O281  1  0.75982933  0.87753909  0.50698256  1
  O  O282  1  0.13135349  0.49178670  0.24521686  1
  O  O283  1  0.13373563  0.50426436  0.73853450  1
  O  O284  1  0.13384889  0.99260913  0.25053153  1
  O  O285  1  0.12685586  0.99017225  0.74920759  1
  O  O286  1  0.63999380  0.50488607  0.25141166  1
  O  O287  1  0.62772511  0.49250359  0.74464226  1
  O  O288  1  0.63122020  0.99926917  0.23968318  1
  O  O289  1  0.62719520  0.98826614  0.74878990  1
  O  O290  1  0.37033159  0.00581802  0.25210916  1
  O  O291  1  0.37573076  0.00707480  0.75625174  1
  O  O292  1  0.35956409  0.49875298  0.24942760  1
  O  O293  1  0.36296497  0.50475125  0.75105199  1
  O  O294  1  0.85867875  -0.00709204  0.24604489  1
  O  O295  1  0.87541028  0.00858096  0.75717869  1
  O  O296  1  0.86911841  0.50347464  0.25877857  1
  O  O297  1  0.87312683  0.50959178  0.76130194  1
  O  O298  1  0.12987127  0.36534082  0.36549547  1
  O  O299  1  0.11268678  0.36441551  0.88502945  1
  O  O300  1  0.12317170  0.87121640  0.36128649  1
  O  O301  1  0.12467249  0.86907633  0.86562323  1
  O  O302  1  0.61552508  0.36419055  0.38104982  1
  O  O303  1  0.62051119  0.36958780  0.87096426  1
  O  O304  1  0.61997279  0.86494162  0.37595647  1
  O  O305  1  0.62038075  0.87105869  0.86799555  1
  O  O306  1  0.37080723  0.13115214  0.13685768  1
  O  O307  1  0.38259197  0.13144598  0.62905996  1
  O  O308  1  0.38171142  0.63242092  0.12311042  1
  O  O309  1  0.38861137  0.62528433  0.62345806  1
  O  O310  1  0.88794140  0.12757275  0.11850946  1
  O  O311  1  0.88380993  0.12904006  0.63152505  1
  O  O312  1  0.87557498  0.62975688  0.13124335  1
  O  O313  1  0.87954183  0.62358635  0.63479209  1
  O  O314  1  0.25487928  0.25434757  0.12015015  1
  O  O315  1  0.25601515  0.25630653  0.61981749  1
  O  O316  1  0.25851887  0.74784140  0.11935602  1
  O  O317  1  0.24987625  0.76070955  0.61865499  1
  O  O318  1  0.75185218  0.25756742  0.12255175  1
  O  O319  1  0.75344877  0.25796523  0.61738840  1
  O  O320  1  0.75291715  0.75353891  0.12035316  1
  O  O321  1  0.75352955  0.76342347  0.62139773  1
  O  O322  1  0.24107154  0.24995132  0.38090536  1
  O  O323  1  0.23946283  0.25212631  0.87985755  1
  O  O324  1  0.24802766  0.74279334  0.38126491  1
  O  O325  1  0.24234324  0.74305192  0.88094836  1
  O  O326  1  0.74104089  0.25294024  0.37846255  1
  O  O327  1  0.74403033  0.24613340  0.88141508  1
  O  O328  1  0.74231597  0.74443280  0.37460011  1
  O  O329  1  0.74341749  0.74408067  0.88188875  1
  O  O330  1  0.00462188  0.12049567  0.00772319  1
  O  O331  1  0.00760209  0.11894911  0.50580402  1
  O  O332  1  0.01303097  0.62844640  0.00146166  1
  O  O333  1  0.00462424  0.61844043  0.50636727  1
  O  O334  1  0.50774921  0.11624192  -0.00709398  1
  O  O335  1  0.50642763  0.12168393  0.50343137  1
  O  O336  1  0.50272056  0.61966117  0.00809226  1
  O  O337  1  0.50694137  0.61919797  0.50705293  1
  O  O338  1  0.49695099  0.37917961  0.49103727  1
  O  O339  1  0.49453460  0.37910548  0.99540757  1
  O  O340  1  0.49522438  0.88131976  0.49503515  1
  O  O341  1  0.49278290  0.88154236  0.99286272  1
  O  O342  1  0.98852684  0.38223076  0.50632812  1
  O  O343  1  0.98727036  0.36646902  0.99121614  1
  O  O344  1  0.99509805  0.88288169  0.50074440  1
  O  O345  1  0.99206630  0.88083656  1.00028777  1
  O  O346  1  0.50162337  0.49096298  0.37883013  1
  O  O347  1  0.49792407  0.49348378  0.88188736  1
  O  O348  1  0.49651557  0.99513310  0.37906495  1
  O  O349  1  0.49350068  0.99363734  0.88102848  1
  O  O350  1  0.98770074  0.50633957  0.38044996  1
  O  O351  1  0.98976789  0.48869846  0.87029344  1
  O  O352  1  1.00232367  0.99893640  0.38695102  1
  O  O353  1  0.99195581  0.99946512  0.88280482  1
  O  O354  1  0.00122860  0.00801429  0.11935328  1
  O  O355  1  0.00402894  0.00711581  0.61447516  1
  O  O356  1  0.01340293  0.49908098  0.13379838  1
  O  O357  1  0.00842461  0.50404036  0.62185126  1
  O  O358  1  0.51054013  -0.00739651  0.11805870  1
  O  O359  1  0.50210143  0.00785126  0.61636216  1
  O  O360  1  0.49983109  0.50758959  0.12118437  1
  O  O361  1  0.50715359  0.50708390  0.61976511  1
  O  O362  1  0.24035105  0.38055486  0.24545345  1
  O  O363  1  0.25544937  0.38670973  0.74183253  1
  O  O364  1  0.24315148  0.88244611  0.24837168  1
  O  O365  1  0.24131055  0.87577913  0.74146546  1
  O  O366  1  0.75851385  0.38464360  0.24057676  1
  O  O367  1  0.74489646  0.37481995  0.74418096  1
  O  O368  1  0.74443319  0.88432889  0.24195079  1
  O  O369  1  0.74247883  0.87678203  0.74220762  1
  O  O370  1  0.25833742  0.11610128  0.25109517  1
  O  O371  1  0.25900697  0.12438876  0.75106068  1
  O  O372  1  0.24756014  0.61400898  0.25548710  1
  O  O373  1  0.24882170  0.61453159  0.75579611  1
  O  O374  1  0.74683473  0.10971082  0.24744866  1
  O  O375  1  0.75707078  0.12645649  0.75649628  1
  O  O376  1  0.75678022  0.61580752  0.25501861  1
  O  O377  1  0.75831548  0.62421809  0.75682243  1
  O  O378  1  0.37335064  0.11915892  0.36345647  1
  O  O379  1  0.37389163  0.11976400  0.86770222  1
  O  O380  1  0.36764005  0.61999526  0.37282229  1
  O  O381  1  0.36415646  0.62091594  0.87621938  1
  O  O382  1  0.87046937  0.11923398  0.37935549  1
  O  O383  1  0.86947697  0.12152082  0.87192717  1
  O  O384  1  0.86947568  0.61635571  0.37144184  1
  O  O385  1  0.87120057  0.61791046  0.87129294  1
  O  O386  1  0.12947805  0.37993192  0.13133595  1
  O  O387  1  0.13267419  0.38800922  0.61744851  1
  O  O388  1  0.12648414  0.87661696  0.13716601  1
  O  O389  1  0.13382594  0.87589286  0.63313352  1
  O  O390  1  0.63945982  0.37690057  0.11960515  1
  O  O391  1  0.63024859  0.37997240  0.62950122  1
  O  O392  1  0.62970768  0.88456922  0.12305356  1
  O  O393  1  0.63325113  0.87618461  0.63172513  1
  O  O394  1  0.12112115  0.25611537  0.25631611  1
  O  O395  1  0.11453043  0.24630109  0.76144616  1
  O  O396  1  0.11651073  0.75643272  0.24860064  1
  O  O397  1  0.12512366  0.75910482  0.75618778  1
  O  O398  1  0.61470798  0.24197496  0.25922219  1
  O  O399  1  0.61994770  0.25571622  0.75528651  1
  O  O400  1  0.62315261  0.74968879  0.26261057  1
  O  O401  1  0.62446362  0.76176590  0.75635972  1
  O  O402  1  0.38104019  0.24311743  0.24611493  1
  O  O403  1  0.38169706  0.24611071  0.74369147  1
  O  O404  1  0.37467532  0.74765428  0.23767443  1
  O  O405  1  0.37821669  0.74522362  0.74466383  1
  O  O406  1  0.89233105  0.25926698  0.25248944  1
  O  O407  1  0.88698897  0.24471793  0.75122596  1
  O  O408  1  0.88005415  0.74624130  0.24599903  1
  O  O409  1  0.87552587  0.73683587  0.75169095  1
  O  O410  1  0.38340765  0.49171620  0.49865618  1
  O  O411  1  0.37911884  0.49138453  1.00030603  1
  O  O412  1  0.38133866  0.99572185  0.49274234  1
  O  O413  1  0.37849900  0.99509956  0.99557132  1
  O  O414  1  0.87982208  0.49459115  0.49386141  1
  O  O415  1  0.86972555  0.49058689  0.99099273  1
  O  O416  1  0.88734250  0.99141573  0.50240481  1
  O  O417  1  0.87846922  0.99390767  0.99547892  1
  O  O418  1  0.11827312  0.00592016  0.00021605  1
  O  O419  1  0.11826312  0.00520002  0.50018995  1
  O  O420  1  0.13082604  0.50735537  0.01118803  1
  O  O421  1  0.12069791  0.50487348  0.50786273  1
  O  O422  1  0.61957142  0.00421837  0.00613435  1
  O  O423  1  0.61962086  0.00746767  0.49928314  1
  O  O424  1  0.61707043  0.50693215  0.00284382  1
  O  O425  1  0.62104675  0.50540541  0.50514143  1
  O  O426  1  0.36784283  0.36785248  0.11952562  1
  O  O427  1  0.37168936  0.36895530  0.61888137  1
  O  O428  1  0.37423606  0.86385301  0.11804089  1
  O  O429  1  0.36621084  0.87534372  0.61886310  1
  O  O430  1  0.86617912  0.37492181  0.11638423  1
  O  O431  1  0.87005500  0.37673349  0.61623496  1
  O  O432  1  0.86705163  0.86763889  0.11772751  1
  O  O433  1  0.86839549  0.87489654  0.61766854  1
  O  O434  1  0.13149074  0.13514997  0.38167855  1
  O  O435  1  0.12386055  0.13736108  0.88197123  1
  O  O436  1  0.13153278  0.62491272  0.38275569  1
  O  O437  1  0.12823935  0.62751506  0.88282716  1
  O  O438  1  0.62810227  0.13733285  0.38063183  1
  O  O439  1  0.63028178  0.13099375  0.87945693  1
  O  O440  1  0.62977350  0.63207865  0.38035561  1
  O  O441  1  0.62879162  0.63022717  0.88048584  1
