# generated using pymatgen
data_V93Zn93O256
_symmetry_space_group_name_H-M   'P 1'
_cell_length_a   17.05483905
_cell_length_b   17.05508541
_cell_length_c   17.05511024
_cell_angle_alpha   90.00527993
_cell_angle_beta   89.96147734
_cell_angle_gamma   90.00784799
_symmetry_Int_Tables_number   1
_chemical_formula_structural   V93Zn93O256
_chemical_formula_sum   'V93 Zn93 O256'
_cell_volume   4960.84834288
_cell_formula_units_Z   1
loop_
 _symmetry_equiv_pos_site_id
 _symmetry_equiv_pos_as_xyz
  1  'x, y, z'
loop_
 _atom_site_type_symbol
 _atom_site_label
 _atom_site_symmetry_multiplicity
 _atom_site_fract_x
 _atom_site_fract_y
 _atom_site_fract_z
 _atom_site_occupancy
  V  V0  1  0.87677565  0.37509823  -0.00016375  1
  V  V1  1  0.50041020  0.24925774  0.24821077  1
  V  V2  1  0.00025436  0.37581589  0.37518134  1
  V  V3  1  -0.00007473  0.24960833  0.25017583  1
  V  V4  1  0.87631976  0.24949807  0.12638374  1
  V  V5  1  0.74946168  0.00565747  0.75525924  1
  V  V6  1  0.49971956  0.87470859  0.37391423  1
  V  V7  1  0.37433935  0.87521117  0.50108546  1
  V  V8  1  0.87355476  0.12591592  0.75455445  1
  V  V9  1  0.37670097  0.49990716  0.87408801  1
  V  V10  1  0.12503768  -0.00118084  0.62775059  1
  V  V11  1  0.24573682  -0.00241411  0.75123763  1
  V  V12  1  0.62414129  0.12369755  0.49993601  1
  V  V13  1  0.62363425  0.62617438  0.49662202  1
  V  V14  1  -0.00980941  0.74858369  0.74934347  1
  V  V15  1  0.25008318  0.12415013  0.37432049  1
  V  V16  1  0.87471713  0.87160759  0.50796129  1
  V  V17  1  0.00052196  0.25047040  0.75088826  1
  V  V18  1  0.37284588  0.37263586  -0.00151398  1
  V  V19  1  -0.00021688  0.50223022  0.50202322  1
  V  V20  1  0.63020086  0.12530762  -0.00643890  1
  V  V21  1  0.86386719  0.50612514  0.86985522  1
  V  V22  1  0.25013556  0.50046559  0.74937759  1
  V  V23  1  0.25092037  0.75063439  -0.00137727  1
  V  V24  1  0.37339407  0.24832618  0.12039340  1
  V  V25  1  0.50120908  0.75091350  0.24881323  1
  V  V26  1  0.25136571  0.87390276  0.12286744  1
  V  V27  1  0.62518206  -0.00042474  0.62550783  1
  V  V28  1  0.24990436  0.49961762  0.24888772  1
  V  V29  1  0.62565072  0.37508896  0.24961322  1
  V  V30  1  0.87624828  0.87535282  -0.00011440  1
  V  V31  1  0.12498095  0.24992726  0.37610474  1
  V  V32  1  0.37459460  0.00094359  0.37512250  1
  V  V33  1  0.49821282  0.62436020  0.62250859  1
  V  V34  1  0.50054228  0.12453135  0.12480506  1
  V  V35  1  0.37481878  0.62464818  0.24849502  1
  V  V36  1  0.50031192  0.87550616  0.87494251  1
  V  V37  1  0.00427668  0.87574166  0.86926868  1
  V  V38  1  0.12310426  0.50153924  0.62589554  1
  V  V39  1  0.87227472  0.37416954  0.50189061  1
  V  V40  1  0.37432265  0.37597871  0.49732222  1
  V  V41  1  0.87429737  0.25058144  0.62581563  1
  V  V42  1  0.87375158  0.00371274  0.87511134  1
  V  V43  1  0.62847329  0.74409022  0.87355821  1
  V  V44  1  0.25030499  0.62602955  0.87416067  1
  V  V45  1  0.50086457  -0.00048024  -0.00071432  1
  V  V46  1  0.74953666  0.74327208  -0.00386871  1
  V  V47  1  0.75122038  0.24517858  -0.00590134  1
  V  V48  1  0.75371415  0.75105970  0.50539568  1
  V  V49  1  0.00102635  0.37723376  0.87597227  1
  V  V50  1  0.87529515  -0.00110067  0.37558911  1
  V  V51  1  0.37545133  0.24856927  0.62571568  1
  V  V52  1  0.12447971  0.87495493  0.25094579  1
  V  V53  1  0.37465361  0.62459852  0.74774801  1
  V  V54  1  0.00124756  0.12512462  0.12619484  1
  V  V55  1  0.12430627  0.75043924  0.37612988  1
  V  V56  1  0.24897874  0.62490356  0.37542598  1
  V  V57  1  0.12551515  0.62465566  -0.00008634  1
  V  V58  1  0.50098636  -0.00061283  0.50073136  1
  V  V59  1  0.50096268  0.62448144  0.12373480  1
  V  V60  1  0.63116638  0.49706879  0.62897959  1
  V  V61  1  0.87523909  0.62527577  0.24982449  1
  V  V62  1  0.37348037  0.75012570  0.62469593  1
  V  V63  1  -0.00068745  -0.00072506  0.50204539  1
  V  V64  1  0.87541171  0.74931476  0.12494865  1
  V  V65  1  0.12817985  0.25061770  0.87798937  1
  V  V66  1  0.12478425  0.75333566  0.86809919  1
  V  V67  1  0.50379853  0.25157250  0.75115366  1
  V  V68  1  0.75085532  0.12482797  0.37536686  1
  V  V69  1  0.24946732  0.37114775  0.12222800  1
  V  V70  1  0.62513078  0.49903073  0.12406936  1
  V  V71  1  0.12523330  0.37535734  0.75091131  1
  V  V72  1  0.62620947  -0.00046959  0.12533185  1
  V  V73  1  0.12764249  0.12862014  0.00010920  1
  V  V74  1  0.75045812  0.37396819  0.12620720  1
  V  V75  1  0.12527944  0.00004769  0.12503251  1
  V  V76  1  0.12407314  0.12565125  0.50100488  1
  V  V77  1  0.12560546  0.37525780  0.24956057  1
  V  V78  1  0.24952703  0.37536180  0.62479278  1
  V  V79  1  0.74991366  0.87580072  0.12732181  1
  V  V80  1  0.00038125  0.00027067  -0.00024003  1
  V  V81  1  0.75066563  0.62565822  0.37413484  1
  V  V82  1  0.00008994  0.12504596  0.62678226  1
  V  V83  1  0.62508741  0.24952556  0.37527940  1
  V  V84  1  0.87485025  0.50103559  0.37463871  1
  V  V85  1  0.25065814  0.12939002  0.87893685  1
  V  V86  1  0.62438680  0.87672274  0.75039976  1
  V  V87  1  0.00190679  0.62456122  0.12424349  1
  V  V88  1  0.49878495  0.37482798  0.37369270  1
  V  V89  1  0.50002511  0.50048808  -0.00069815  1
  V  V90  1  0.37484794  -0.00054400  0.87497805  1
  V  V91  1  0.24467667  0.87471037  0.62857417  1
  V  V92  1  -0.00931147  0.62838158  0.62902997  1
  Zn  Zn93  1  0.37550404  0.12524655  0.75021522  1
  Zn  Zn94  1  0.37633719  0.74936374  0.12128219  1
  Zn  Zn95  1  0.00082338  0.50046533  -0.00190770  1
  Zn  Zn96  1  0.85334012  0.62551040  0.75150537  1
  Zn  Zn97  1  0.74729450  0.25136958  0.50249084  1
  Zn  Zn98  1  0.62577946  0.75232523  0.37360242  1
  Zn  Zn99  1  0.49996409  0.49998853  0.49581938  1
  Zn  Zn100  1  0.24838545  0.75012333  0.50181172  1
  Zn  Zn101  1  0.24859809  0.25031334  0.50104877  1
  Zn  Zn102  1  0.37540610  0.50008730  0.37397314  1
  Zn  Zn103  1  0.12330180  0.62707956  0.50265912  1
  Zn  Zn104  1  0.49992448  0.12419218  0.62585477  1
  Zn  Zn105  1  0.87635411  0.12348483  0.25067109  1
  Zn  Zn106  1  0.37681096  0.87377453  -0.00037538  1
  Zn  Zn107  1  0.62844884  0.62081383  -0.00462193  1
  Zn  Zn108  1  0.75028186  -0.00042441  0.25023317  1
  Zn  Zn109  1  0.62841280  0.24960226  0.87202922  1
  Zn  Zn110  1  -0.00123926  0.75059511  0.25133787  1
  Zn  Zn111  1  0.50220488  0.37419905  0.87455039  1
  Zn  Zn112  1  0.62509484  0.87660753  0.25137734  1
  Zn  Zn113  1  0.25248896  -0.00015406  0.24883077  1
  Zn  Zn114  1  0.50029225  0.75093370  0.75082938  1
  Zn  Zn115  1  0.63194728  0.38101017  0.76087285  1
  Zn  Zn116  1  0.74996068  0.50059982  0.24907106  1
  Zn  Zn117  1  0.75326139  0.37666039  0.63345645  1
  Zn  Zn118  1  -0.00015791  0.87373891  0.37699071  1
  Zn  Zn119  1  0.12471615  0.49855252  0.12234423  1
  Zn  Zn120  1  0.37478505  0.12408786  0.24927357  1
  Zn  Zn121  1  0.75224563  0.87256040  0.62860009  1
  Zn  Zn122  1  0.18757386  0.18829861  0.18876684  1
  Zn  Zn123  1  0.18894487  0.18663321  0.69079450  1
  Zn  Zn124  1  0.18703233  0.68900421  0.18795014  1
  Zn  Zn125  1  0.18322881  0.68725996  0.68782818  1
  Zn  Zn126  1  0.68832311  0.18647725  0.18631325  1
  Zn  Zn127  1  0.68902705  0.18823285  0.68585863  1
  Zn  Zn128  1  0.68677345  0.68625204  0.18562541  1
  Zn  Zn129  1  0.68689127  0.68805511  0.68785580  1
  Zn  Zn130  1  0.31233856  0.30953929  0.30967464  1
  Zn  Zn131  1  0.31411004  0.31259820  0.81108325  1
  Zn  Zn132  1  0.31339558  0.81140545  0.31112832  1
  Zn  Zn133  1  0.31488124  0.81314197  0.81053050  1
  Zn  Zn134  1  0.81237636  0.31163997  0.31263926  1
  Zn  Zn135  1  0.81293382  0.31826675  0.81183045  1
  Zn  Zn136  1  0.81301403  0.81047108  0.31569425  1
  Zn  Zn137  1  0.81153332  0.81612948  0.81324340  1
  Zn  Zn138  1  0.18683334  0.43923095  0.43855381  1
  Zn  Zn139  1  0.18841922  0.43931797  0.93809929  1
  Zn  Zn140  1  0.18833757  0.93826123  0.44045014  1
  Zn  Zn141  1  0.18668993  0.93926728  0.93835652  1
  Zn  Zn142  1  0.68727196  0.44003707  0.43814903  1
  Zn  Zn143  1  0.68718593  0.43258125  0.93916900  1
  Zn  Zn144  1  0.68756043  0.93577095  0.43738434  1
  Zn  Zn145  1  0.68738729  0.93480557  0.93768968  1
  Zn  Zn146  1  0.31323290  0.06023919  0.06046938  1
  Zn  Zn147  1  0.31184850  0.06219776  0.56101841  1
  Zn  Zn148  1  0.31326464  0.56126852  0.06265160  1
  Zn  Zn149  1  0.31034430  0.56155338  0.55995074  1
  Zn  Zn150  1  0.81461025  0.06295625  0.06290461  1
  Zn  Zn151  1  0.81099255  0.06150600  0.56539641  1
  Zn  Zn152  1  0.81483776  0.55909024  0.06051067  1
  Zn  Zn153  1  0.81145495  0.56435674  0.56265655  1
  Zn  Zn154  1  0.43712893  0.43807392  0.18733751  1
  Zn  Zn155  1  0.44199507  0.43647560  0.68605600  1
  Zn  Zn156  1  0.43654015  0.93875145  0.18817916  1
  Zn  Zn157  1  0.43563502  0.93817619  0.68855878  1
  Zn  Zn158  1  0.93735241  0.43897631  0.18722785  1
  Zn  Zn159  1  0.93657196  0.43979039  0.69025735  1
  Zn  Zn160  1  0.93844679  0.93722903  0.18902322  1
  Zn  Zn161  1  0.93717326  0.93811093  0.68965590  1
  Zn  Zn162  1  0.06297751  0.06119328  0.31309999  1
  Zn  Zn163  1  0.06337655  0.06371046  0.81291148  1
  Zn  Zn164  1  0.06281368  0.56161957  0.31037966  1
  Zn  Zn165  1  0.05855927  0.56342112  0.81290650  1
  Zn  Zn166  1  0.56293772  0.06119851  0.31073066  1
  Zn  Zn167  1  0.56048079  0.06541136  0.81090647  1
  Zn  Zn168  1  0.56155669  0.56067154  0.31113512  1
  Zn  Zn169  1  0.56291563  0.56349886  0.81017188  1
  Zn  Zn170  1  0.43795676  0.18757438  0.43821652  1
  Zn  Zn171  1  0.43915027  0.18552556  0.93669342  1
  Zn  Zn172  1  0.43487103  0.69058811  0.43621911  1
  Zn  Zn173  1  0.43912701  0.68859218  0.93716715  1
  Zn  Zn174  1  0.93792409  0.18771660  0.43886667  1
  Zn  Zn175  1  0.93977143  0.18840863  0.93792389  1
  Zn  Zn176  1  0.93832723  0.68787131  0.43900545  1
  Zn  Zn177  1  0.93699758  0.68686852  0.93793944  1
  Zn  Zn178  1  0.06297140  0.31073477  0.06083365  1
  Zn  Zn179  1  0.06087609  0.31319918  0.56297008  1
  Zn  Zn180  1  0.06357595  0.81074444  0.05951420  1
  Zn  Zn181  1  0.06092162  0.81143844  0.56413884  1
  Zn  Zn182  1  0.56258283  0.31212710  0.06096167  1
  Zn  Zn183  1  0.55948036  0.31149307  0.56051205  1
  Zn  Zn184  1  0.56468616  0.81189544  0.06081919  1
  Zn  Zn185  1  0.56336179  0.81255105  0.56290705  1
  O  O186  1  0.12181079  0.12035464  0.12070740  1
  O  O187  1  0.12010636  0.12023548  0.62087162  1
  O  O188  1  0.11714790  0.62621331  0.11992653  1
  O  O189  1  0.11504255  0.61844677  0.62474072  1
  O  O190  1  0.61993885  0.11908487  0.11734009  1
  O  O191  1  0.62435192  0.11746283  0.61668111  1
  O  O192  1  0.61836426  0.61702379  0.12257731  1
  O  O193  1  0.61577957  0.61777187  0.61501269  1
  O  O194  1  0.37819187  0.37254681  0.38241644  1
  O  O195  1  0.37372070  0.38031822  0.88427309  1
  O  O196  1  0.37843549  0.88043687  0.38063274  1
  O  O197  1  0.38152401  0.88166806  0.87582940  1
  O  O198  1  0.88076567  0.37956087  0.38247559  1
  O  O199  1  0.88263481  0.38230358  0.88097331  1
  O  O200  1  0.87604227  0.88459844  0.38395068  1
  O  O201  1  0.88551390  0.88221017  0.88129372  1
  O  O202  1  0.25475968  0.00932421  0.37567416  1
  O  O203  1  0.25258307  0.00528695  0.86783192  1
  O  O204  1  0.24890857  0.51006136  0.36849225  1
  O  O205  1  0.25633683  0.50646408  0.86864510  1
  O  O206  1  0.75878250  0.00711232  0.37515991  1
  O  O207  1  0.75786404  -0.00825417  0.86412414  1
  O  O208  1  0.75740055  0.50769182  0.37397573  1
  O  O209  1  0.76573051  0.49424649  0.88316214  1
  O  O210  1  0.24984308  0.48782152  0.13043256  1
  O  O211  1  0.24401442  0.49543037  0.63042171  1
  O  O212  1  0.24344939  0.99078337  0.12508705  1
  O  O213  1  0.24640250  0.99445094  0.63221021  1
  O  O214  1  0.74429901  0.49180248  0.12501380  1
  O  O215  1  0.73353149  0.50064034  0.61817432  1
  O  O216  1  0.74762630  0.99015257  0.12529632  1
  O  O217  1  0.74376178  0.99773287  0.63634643  1
  O  O218  1  0.00552045  0.37041259  0.25546905  1
  O  O219  1  0.00694163  0.36936497  0.75516705  1
  O  O220  1  0.01293102  0.87299374  0.25223537  1
  O  O221  1  -0.00588968  0.86715815  0.76209811  1
  O  O222  1  0.50542405  0.36868518  0.25360494  1
  O  O223  1  0.50501467  0.36459041  0.74996225  1
  O  O224  1  0.49924621  0.86573268  0.25384975  1
  O  O225  1  0.50600855  0.87532009  0.75687908  1
  O  O226  1  0.49905565  0.13162066  0.24256378  1
  O  O227  1  0.49455258  0.13462221  0.74590425  1
  O  O228  1  0.49502032  0.63216823  0.24499975  1
  O  O229  1  0.49299682  0.62624800  0.73722513  1
  O  O230  1  1.00122765  0.13146688  0.24412821  1
  O  O231  1  0.99572273  0.13057542  0.74482578  1
  O  O232  1  0.99529669  0.62693875  0.24006062  1
  O  O233  1  0.99822773  0.63334038  0.74371169  1
  O  O234  1  0.38161106  0.25907352  0.01088128  1
  O  O235  1  0.37408538  0.25954865  0.50824931  1
  O  O236  1  0.36666716  0.75360515  0.00102678  1
  O  O237  1  0.37088995  0.75710343  0.50691014  1
  O  O238  1  0.86996345  0.25301909  0.00662748  1
  O  O239  1  0.87718380  0.26022923  0.50590387  1
  O  O240  1  0.86823775  0.75585276  0.00398772  1
  O  O241  1  0.86621482  0.76063815  0.49282867  1
  O  O242  1  0.12496511  0.24417817  0.49432904  1
  O  O243  1  0.12097943  0.24101029  0.99092737  1
  O  O244  1  0.12730529  0.74966502  0.48841545  1
  O  O245  1  0.13075061  0.74432215  0.98886149  1
  O  O246  1  0.62498127  0.24314780  0.49270500  1
  O  O247  1  0.63420763  0.24101128  1.00294119  1
  O  O248  1  0.63088570  0.73958649  0.49753918  1
  O  O249  1  0.63363530  0.74895437  0.99134875  1
  O  O250  1  0.49242492  0.24491084  0.12866685  1
  O  O251  1  0.49079157  0.24915093  0.63147077  1
  O  O252  1  0.49948316  0.74510643  0.13225594  1
  O  O253  1  0.49418044  0.73902656  0.62479736  1
  O  O254  1  0.99595714  0.24464431  0.13087729  1
  O  O255  1  0.99514189  0.24469683  0.63172795  1
  O  O256  1  0.99466928  0.74105899  0.12478417  1
  O  O257  1  1.00681501  0.74176174  0.63809457  1
  O  O258  1  0.00533323  0.25556657  0.37040122  1
  O  O259  1  0.00680267  0.25661903  0.86898238  1
  O  O260  1  0.01181001  0.75141261  0.37313797  1
  O  O261  1  0.00650077  0.75674467  0.87055932  1
  O  O262  1  0.50538044  0.25448729  0.36835055  1
  O  O263  1  0.49783649  0.25103398  0.86288777  1
  O  O264  1  0.49958875  0.75557477  0.36470753  1
  O  O265  1  0.50929092  0.75740688  0.87396794  1
  O  O266  1  0.24304122  0.12646653  0.49042568  1
  O  O267  1  0.24325575  0.11644219  0.98655480  1
  O  O268  1  0.24617121  0.62654111  0.48828185  1
  O  O269  1  0.24620903  0.63019091  0.99353467  1
  O  O270  1  0.74478938  0.12408231  0.48903868  1
  O  O271  1  0.74138534  0.13344924  1.00882591  1
  O  O272  1  0.74398952  0.63248441  0.49473147  1
  O  O273  1  0.74958134  0.63997551  1.00731007  1
  O  O274  1  0.26190891  0.38067227  0.00969819  1
  O  O275  1  0.25749127  0.37322116  0.50535649  1
  O  O276  1  0.24817813  0.87021870  0.00896019  1
  O  O277  1  0.25673407  0.87594130  0.51158550  1
  O  O278  1  0.75681820  0.36397684  0.00866627  1
  O  O279  1  0.76361972  0.37538944  0.50140136  1
  O  O280  1  0.75616170  0.86828024  0.01023402  1
  O  O281  1  0.75750242  0.86781418  0.50058563  1
  O  O282  1  0.13122755  0.49218709  0.24638727  1
  O  O283  1  0.13063140  0.49479789  0.74612767  1
  O  O284  1  0.12714750  0.99006114  0.24486731  1
  O  O285  1  0.13720287  1.00524749  0.74424651  1
  O  O286  1  0.62668834  0.49234232  0.24264800  1
  O  O287  1  0.61598310  0.49931838  0.73136811  1
  O  O288  1  0.62903193  0.99731162  0.24097241  1
  O  O289  1  0.63205027  0.99753228  0.74742467  1
  O  O290  1  0.37211096  0.00390263  0.25842830  1
  O  O291  1  0.36370627  0.00284907  0.75559190  1
  O  O292  1  0.36779112  0.50598123  0.25160480  1
  O  O293  1  0.36992167  0.50424705  0.75313624  1
  O  O294  1  0.87479042  0.00077761  0.26318162  1
  O  O295  1  0.86802373  0.00530681  0.75487069  1
  O  O296  1  0.87360251  0.50670950  0.25706299  1
  O  O297  1  0.87798843  0.50041329  0.76639955  1
  O  O298  1  0.11986023  0.37033623  0.37021793  1
  O  O299  1  0.12308192  0.37047967  0.87010093  1
  O  O300  1  0.12732644  0.86835765  0.36771378  1
  O  O301  1  0.11402569  0.86627052  0.88208730  1
  O  O302  1  0.62008147  0.36966115  0.37068321  1
  O  O303  1  0.61879452  0.36751906  0.87695436  1
  O  O304  1  0.61621755  0.87315519  0.37191407  1
  O  O305  1  0.61887279  0.86853791  0.86982199  1
  O  O306  1  0.37926441  0.13339936  0.12310367  1
  O  O307  1  0.37376897  0.13829189  0.62353659  1
  O  O308  1  0.38162841  0.62610003  0.13106803  1
  O  O309  1  0.37995234  0.62873004  0.62671276  1
  O  O310  1  0.88357650  0.13031542  0.12791638  1
  O  O311  1  0.88147783  0.12969447  0.63191479  1
  O  O312  1  0.88303012  0.62956253  0.12879696  1
  O  O313  1  0.88767322  0.61873956  0.62961552  1
  O  O314  1  0.26034860  0.26031775  0.13121928  1
  O  O315  1  0.25829303  0.25674315  0.62586545  1
  O  O316  1  0.24917778  0.75917407  0.11839360  1
  O  O317  1  0.25266514  0.75876781  0.62648889  1
  O  O318  1  0.75731330  0.25443676  0.11934163  1
  O  O319  1  0.75980525  0.25111391  0.61946811  1
  O  O320  1  0.75447547  0.75812427  0.11737683  1
  O  O321  1  0.74367060  0.75223250  0.60839019  1
  O  O322  1  0.24370333  0.24075554  0.37586460  1
  O  O323  1  0.24512567  0.23704318  0.86622321  1
  O  O324  1  0.24164229  0.74163790  0.37424164  1
  O  O325  1  0.24271184  0.74683805  0.87673702  1
  O  O326  1  0.74490931  0.24086218  0.37802007  1
  O  O327  1  0.75275053  0.25291733  0.89214668  1
  O  O328  1  0.74645517  0.74374089  0.38484407  1
  O  O329  1  0.74051032  0.76147205  0.88689064  1
  O  O330  1  0.00685206  0.11918220  0.00664911  1
  O  O331  1  0.00424935  0.11943396  0.50754528  1
  O  O332  1  0.00683804  0.62681629  0.01002847  1
  O  O333  1  0.00044428  0.62058842  0.51059699  1
  O  O334  1  0.50901676  0.11965926  0.00625554  1
  O  O335  1  0.50669326  0.11730284  0.50001768  1
  O  O336  1  0.50043636  0.61766056  0.00633910  1
  O  O337  1  0.50615411  0.62630787  0.50488372  1
  O  O338  1  0.48886379  0.37493961  0.49242601  1
  O  O339  1  0.48732747  0.38118968  1.00152277  1
  O  O340  1  0.49403375  0.87925810  0.49452504  1
  O  O341  1  0.50056320  0.88244934  0.99382074  1
  O  O342  1  0.99149533  0.38105976  0.49510352  1
  O  O343  1  0.99421628  0.37459211  0.99419018  1
  O  O344  1  0.99165384  0.88029989  0.49969156  1
  O  O345  1  0.99555630  0.88011382  0.99227363  1
  O  O346  1  0.49555939  0.49132990  0.37602217  1
  O  O347  1  0.49293262  0.49968128  0.87994901  1
  O  O348  1  0.49453004  0.99473581  0.38038027  1
  O  O349  1  0.49498091  0.99584432  0.87963444  1
  O  O350  1  0.99522283  0.49554023  0.38077505  1
  O  O351  1  0.99502599  0.49187685  0.87768258  1
  O  O352  1  0.99135180  0.99987477  0.38316560  1
  O  O353  1  0.99748467  0.99224167  0.87900082  1
  O  O354  1  0.00563825  0.00448596  0.11976701  1
  O  O355  1  0.00523865  0.00532314  0.62242779  1
  O  O356  1  0.00168930  0.51257046  0.12253974  1
  O  O357  1  0.00457163  0.50797103  0.62233888  1
  O  O358  1  0.50524083  0.00442253  0.11926408  1
  O  O359  1  0.50551242  0.00115522  0.61856618  1
  O  O360  1  0.50502744  0.50429235  0.11962885  1
  O  O361  1  0.50504008  0.51147481  0.61825991  1
  O  O362  1  0.24556689  0.37887630  0.24199046  1
  O  O363  1  0.24505709  0.38135583  0.74469944  1
  O  O364  1  0.24053736  0.87436983  0.24076050  1
  O  O365  1  0.25490695  0.88539692  0.73964873  1
  O  O366  1  0.74362077  0.37521085  0.24423266  1
  O  O367  1  0.74226367  0.36849944  0.74426092  1
  O  O368  1  0.75020520  0.87335072  0.23752028  1
  O  O369  1  0.74456569  0.88499846  0.74754510  1
  O  O370  1  0.24998783  0.12305543  0.26254477  1
  O  O371  1  0.25223569  0.11525872  0.75987081  1
  O  O372  1  0.25394705  0.62095392  0.25627176  1
  O  O373  1  0.25477689  0.61977450  0.75417950  1
  O  O374  1  0.75279139  0.12365746  0.26346556  1
  O  O375  1  0.75657064  0.11337495  0.74727247  1
  O  O376  1  0.75686337  0.62480102  0.25562027  1
  O  O377  1  0.74411715  0.62330796  0.75151094  1
  O  O378  1  0.36530614  0.12119144  0.37576137  1
  O  O379  1  0.36533029  0.11861562  0.87585238  1
  O  O380  1  0.36352244  0.62533833  0.36905856  1
  O  O381  1  0.36976802  0.62043409  0.86798512  1
  O  O382  1  0.86818510  0.11605647  0.37766592  1
  O  O383  1  0.88501851  0.11592377  0.86748985  1
  O  O384  1  0.87118830  0.62051749  0.37032812  1
  O  O385  1  0.88049496  0.60892380  0.87742811  1
  O  O386  1  0.13478694  0.37243259  0.12939013  1
  O  O387  1  0.12902388  0.38042044  0.63114875  1
  O  O388  1  0.13147730  0.87831099  0.13107572  1
  O  O389  1  0.13713275  0.88198092  0.61871737  1
  O  O390  1  0.62972432  0.37899889  0.12998486  1
  O  O391  1  0.62129817  0.39327279  0.61498775  1
  O  O392  1  0.63549240  0.88060542  0.12423005  1
  O  O393  1  0.62543042  0.88213999  0.63209525  1
  O  O394  1  0.11938808  0.25627543  0.25624018  1
  O  O395  1  0.11990426  0.25596705  0.75604326  1
  O  O396  1  0.12443062  0.75912618  0.25875890  1
  O  O397  1  0.11552719  0.74625489  0.76398510  1
  O  O398  1  0.61989193  0.25514517  0.25478754  1
  O  O399  1  0.61354213  0.24652560  0.75041649  1
  O  O400  1  0.61226621  0.75069923  0.25080509  1
  O  O401  1  0.62280870  0.75922639  0.75771975  1
  O  O402  1  0.38187738  0.24883357  0.23732549  1
  O  O403  1  0.38264211  0.25150464  0.73926399  1
  O  O404  1  0.38533911  0.74426416  0.24684355  1
  O  O405  1  0.37689616  0.74229353  0.74254832  1
  O  O406  1  0.88303229  0.24830045  0.24519767  1
  O  O407  1  0.88202262  0.24523796  0.74607845  1
  O  O408  1  0.87729120  0.74407498  0.24377179  1
  O  O409  1  0.88702745  0.74491751  0.76122851  1
  O  O410  1  0.37495318  0.48684885  0.49761178  1
  O  O411  1  0.37970004  0.49212113  0.99424395  1
  O  O412  1  0.38102877  0.99460434  0.49533092  1
  O  O413  1  0.38308373  0.99727877  0.99303260  1
  O  O414  1  0.88034569  0.49276345  0.49541332  1
  O  O415  1  0.87934045  0.49220790  0.99172919  1
  O  O416  1  0.87888154  0.99320414  0.49344189  1
  O  O417  1  0.88163678  0.99550251  0.99518863  1
  O  O418  1  0.11857472  0.00671193  0.00563094  1
  O  O419  1  0.11876551  0.00612551  0.50679284  1
  O  O420  1  0.12340572  0.50909945  0.00247659  1
  O  O421  1  0.11679757  0.50090109  0.50730946  1
  O  O422  1  0.62215742  0.00703010  0.00497439  1
  O  O423  1  0.62004158  0.00361846  0.50505372  1
  O  O424  1  0.61833405  0.50050719  0.00583049  1
  O  O425  1  0.62237763  0.51262825  0.50561805  1
  O  O426  1  0.36875060  0.36802245  0.11847097  1
  O  O427  1  0.37065056  0.36838127  0.61686493  1
  O  O428  1  0.36157295  0.87437045  0.12398708  1
  O  O429  1  0.36633264  0.87018241  0.62088025  1
  O  O430  1  0.87163627  0.36914202  0.12050608  1
  O  O431  1  0.87784651  0.37099837  0.61597224  1
  O  O432  1  0.86969304  0.87037578  0.12011803  1
  O  O433  1  0.87326049  0.88133543  0.61149361  1
  O  O434  1  0.13121283  0.12903213  0.38089775  1
  O  O435  1  0.13208376  0.12986955  0.87965812  1
  O  O436  1  0.13272000  0.63352692  0.37297219  1
  O  O437  1  0.13073815  0.63331566  0.87935054  1
  O  O438  1  0.63270212  0.12856818  0.37933772  1
  O  O439  1  0.62090062  0.12720980  0.89051778  1
  O  O440  1  0.62962415  0.62418004  0.38366208  1
  O  O441  1  0.61805702  0.64034730  0.87562519  1
