# generated using pymatgen
data_V93Zn93O256
_symmetry_space_group_name_H-M   'P 1'
_cell_length_a   17.04210388
_cell_length_b   17.04227554
_cell_length_c   17.04391246
_cell_angle_alpha   89.97515564
_cell_angle_beta   89.99383962
_cell_angle_gamma   90.01965818
_symmetry_Int_Tables_number   1
_chemical_formula_structural   V93Zn93O256
_chemical_formula_sum   'V93 Zn93 O256'
_cell_volume   4950.16889534
_cell_formula_units_Z   1
loop_
 _symmetry_equiv_pos_site_id
 _symmetry_equiv_pos_as_xyz
  1  'x, y, z'
loop_
 _atom_site_type_symbol
 _atom_site_label
 _atom_site_symmetry_multiplicity
 _atom_site_fract_x
 _atom_site_fract_y
 _atom_site_fract_z
 _atom_site_occupancy
  V  V0  1  0.00422500  0.50784868  -0.00181700  1
  V  V1  1  0.74937151  0.12399312  0.87336698  1
  V  V2  1  0.25195398  0.87355054  0.62691428  1
  V  V3  1  -0.00081910  0.24849805  0.75098189  1
  V  V4  1  -0.00062462  0.50392661  0.50120466  1
  V  V5  1  0.37892722  0.13004273  0.75137970  1
  V  V6  1  0.50004119  0.12467954  0.12593725  1
  V  V7  1  0.37441773  0.50214460  0.37345174  1
  V  V8  1  0.62381700  0.12552186  -0.00082803  1
  V  V9  1  0.50006676  0.25063502  0.25011878  1
  V  V10  1  0.50588236  0.74905088  0.75351395  1
  V  V11  1  0.87408311  0.37531050  -0.00224972  1
  V  V12  1  0.24910886  0.37466138  0.62536002  1
  V  V13  1  0.49970900  0.62743201  0.12421124  1
  V  V14  1  0.12469129  0.00177943  0.12652175  1
  V  V15  1  0.75182860  0.00053957  0.24983732  1
  V  V16  1  0.50034384  0.12955522  0.62970938  1
  V  V17  1  0.37293227  0.62619977  0.74878522  1
  V  V18  1  0.37571433  0.87353209  0.50192218  1
  V  V19  1  0.74234058  0.62876362  0.87195276  1
  V  V20  1  0.88048980  0.74237528  0.62467905  1
  V  V21  1  0.37523572  0.12637328  0.25210995  1
  V  V22  1  0.87442328  0.12271740  0.75111290  1
  V  V23  1  0.75022529  -0.00152707  0.75000625  1
  V  V24  1  0.12685104  0.12452744  0.50327639  1
  V  V25  1  0.61780559  0.37145873  0.74744994  1
  V  V26  1  0.37420848  0.25049544  0.12526681  1
  V  V27  1  0.12763023  0.74568786  0.88965064  1
  V  V28  1  0.24912205  0.50109916  0.24994423  1
  V  V29  1  0.37557765  0.37451691  -0.00071862  1
  V  V30  1  0.74898334  0.37611972  0.12249303  1
  V  V31  1  0.62446916  0.50251708  0.11758349  1
  V  V32  1  0.12459946  0.37462616  0.74977530  1
  V  V33  1  0.24913335  0.12309100  0.87644126  1
  V  V34  1  -0.00268249  0.74872039  0.25005312  1
  V  V35  1  0.74985976  0.87457580  0.62596535  1
  V  V36  1  0.75106931  0.62560414  0.37088400  1
  V  V37  1  0.75017948  0.75251525  -0.00506417  1
  V  V38  1  -0.00141357  0.37472887  0.87424468  1
  V  V39  1  0.24934074  0.24877846  0.00147845  1
  V  V40  1  0.24966068  0.00167936  0.25175257  1
  V  V41  1  0.12701337  0.75022331  0.37731090  1
  V  V42  1  0.37635198  0.00013598  0.37669344  1
  V  V43  1  0.87539754  0.00193555  0.37594732  1
  V  V44  1  0.87705423  0.24936432  0.12674516  1
  V  V45  1  0.75011722  0.25023951  0.49908229  1
  V  V46  1  0.62521188  0.62484603  0.49833738  1
  V  V47  1  0.62540178  0.49943048  0.62222067  1
  V  V48  1  0.12339271  0.24947407  0.87687227  1
  V  V49  1  0.74962366  0.37449731  0.62404119  1
  V  V50  1  0.87225455  0.50208494  0.87201501  1
  V  V51  1  0.37402775  -0.00172502  0.87688692  1
  V  V52  1  0.62564309  -0.00155187  0.62556022  1
  V  V53  1  0.62495471  0.12466395  0.50019807  1
  V  V54  1  0.62543588  0.87521159  0.24914128  1
  V  V55  1  0.50000931  0.37611901  0.37440213  1
  V  V56  1  0.61701453  0.24980967  0.86900847  1
  V  V57  1  -0.00608417  -0.00426689  0.00103665  1
  V  V58  1  0.62619253  0.75178925  0.37309096  1
  V  V59  1  0.37496116  0.37541841  0.50117768  1
  V  V60  1  -0.00607693  0.87280527  0.87913427  1
  V  V61  1  0.62420606  0.37558531  0.24746097  1
  V  V62  1  0.50176390  0.87554659  0.37492031  1
  V  V63  1  0.12637722  0.87224741  0.75266524  1
  V  V64  1  0.37046743  0.86753168  0.00200310  1
  V  V65  1  0.75071825  0.50199755  0.24698770  1
  V  V66  1  0.62632084  0.25006583  0.37427586  1
  V  V67  1  0.49909155  -0.00153025  0.00108989  1
  V  V68  1  0.24620841  0.62857955  0.88788702  1
  V  V69  1  0.12378426  0.12418122  0.00223433  1
  V  V70  1  0.37383548  0.49962225  0.87451602  1
  V  V71  1  0.12663314  0.87596285  0.25263328  1
  V  V72  1  0.00141306  0.12386410  0.62696838  1
  V  V73  1  0.74876322  0.24982322  -0.00172124  1
  V  V74  1  0.87807200  0.87603773  0.50073021  1
  V  V75  1  0.62582731  -0.00015500  0.12513369  1
  V  V76  1  0.12432500  0.62619416  0.50402403  1
  V  V77  1  0.12462495  0.25128074  0.37588470  1
  V  V78  1  0.87550364  0.50136954  0.37210122  1
  V  V79  1  0.00119843  0.37515068  0.37282383  1
  V  V80  1  0.75144623  0.74959677  0.49897792  1
  V  V81  1  0.87453004  0.25006076  0.62459772  1
  V  V82  1  0.25010988  -0.00173660  0.75250012  1
  V  V83  1  0.25089430  0.86883540  0.12355953  1
  V  V84  1  0.50047005  0.50164600  0.49855055  1
  V  V85  1  0.75919122  0.87469619  0.11816751  1
  V  V86  1  0.12423289  0.50561040  0.12084280  1
  V  V87  1  0.00151855  0.74252859  0.74756215  1
  V  V88  1  0.25226581  0.25069290  0.50263002  1
  V  V89  1  0.25069579  0.12629204  0.37762297  1
  V  V90  1  0.12512348  -0.00055315  0.62752096  1
  V  V91  1  0.12054870  0.50358596  0.62656824  1
  V  V92  1  0.50564419  0.86946643  0.87639584  1
  Zn  Zn93  1  0.87169886  -0.00493420  0.87930609  1
  Zn  Zn94  1  0.37221633  0.74661189  0.12582766  1
  Zn  Zn95  1  0.00009594  0.62884897  0.11986077  1
  Zn  Zn96  1  -0.00116319  0.12466611  0.12723375  1
  Zn  Zn97  1  0.24739661  0.37502570  0.12555795  1
  Zn  Zn98  1  0.87544638  0.62649588  0.24393512  1
  Zn  Zn99  1  0.25105522  0.74792240  0.50312496  1
  Zn  Zn100  1  0.62803508  0.86942159  0.75429145  1
  Zn  Zn101  1  0.87635867  0.12755525  0.25241183  1
  Zn  Zn102  1  0.24782163  0.50130209  0.75016125  1
  Zn  Zn103  1  0.49968792  0.62738602  0.62411385  1
  Zn  Zn104  1  0.87486846  0.37560506  0.49996493  1
  Zn  Zn105  1  0.37493528  0.62884619  0.25048151  1
  Zn  Zn106  1  0.00212523  0.00070282  0.50064523  1
  Zn  Zn107  1  0.37498213  0.74863929  0.62536759  1
  Zn  Zn108  1  0.50146665  -0.00054539  0.50239738  1
  Zn  Zn109  1  0.25256489  0.62639800  0.37532554  1
  Zn  Zn110  1  0.49968606  0.50075417  -0.00292622  1
  Zn  Zn111  1  0.49838956  0.75062662  0.24828486  1
  Zn  Zn112  1  0.75007405  0.12652467  0.37350761  1
  Zn  Zn113  1  0.00239797  0.87760566  0.37612497  1
  Zn  Zn114  1  0.87582583  0.62100724  0.74389084  1
  Zn  Zn115  1  0.12557763  0.37454024  0.24766922  1
  Zn  Zn116  1  0.74825209  0.50162341  0.74744701  1
  Zn  Zn117  1  0.61985061  0.63364405  -0.01023808  1
  Zn  Zn118  1  0.87867548  0.75030533  0.11551213  1
  Zn  Zn119  1  0.37927525  0.25360081  0.63132812  1
  Zn  Zn120  1  0.00196183  0.24864516  0.24916018  1
  Zn  Zn121  1  0.49592841  0.37140620  0.86865579  1
  Zn  Zn122  1  0.18633217  0.18879249  0.18941857  1
  Zn  Zn123  1  0.18979456  0.18781254  0.68966503  1
  Zn  Zn124  1  0.18392284  0.68519874  0.18797781  1
  Zn  Zn125  1  0.18958477  0.68780390  0.69185813  1
  Zn  Zn126  1  0.69020537  0.18661616  0.18822840  1
  Zn  Zn127  1  0.68743721  0.18708720  0.68665577  1
  Zn  Zn128  1  0.68764154  0.69045838  0.18305351  1
  Zn  Zn129  1  0.68921934  0.68542310  0.68644324  1
  Zn  Zn130  1  0.31150984  0.31547465  0.31380076  1
  Zn  Zn131  1  0.30818084  0.31211448  0.81345977  1
  Zn  Zn132  1  0.31450797  0.81177673  0.31122446  1
  Zn  Zn133  1  0.31332223  0.80878823  0.81595054  1
  Zn  Zn134  1  0.81264176  0.31661631  0.31170358  1
  Zn  Zn135  1  0.80758935  0.31246710  0.80953445  1
  Zn  Zn136  1  0.81244115  0.81665893  0.31119774  1
  Zn  Zn137  1  0.81316910  0.80895111  0.81063673  1
  Zn  Zn138  1  0.18802709  0.43812017  0.43714006  1
  Zn  Zn139  1  0.18885092  0.43880351  0.93724688  1
  Zn  Zn140  1  0.18993826  0.93755829  0.44032523  1
  Zn  Zn141  1  0.18339894  0.93476009  0.93965499  1
  Zn  Zn142  1  0.68849909  0.43700604  0.43589744  1
  Zn  Zn143  1  0.68765652  0.43647929  0.93310056  1
  Zn  Zn144  1  0.68965694  0.93824111  0.43877059  1
  Zn  Zn145  1  0.68755756  0.93769650  0.93898366  1
  Zn  Zn146  1  0.31221844  0.05959412  0.06411705  1
  Zn  Zn147  1  0.31416461  0.06044751  0.56565401  1
  Zn  Zn148  1  0.31304359  0.56101722  0.06540781  1
  Zn  Zn149  1  0.30929180  0.56081946  0.56256903  1
  Zn  Zn150  1  0.81179157  0.06431452  0.06275175  1
  Zn  Zn151  1  0.81129117  0.06386753  0.56268351  1
  Zn  Zn152  1  0.81436492  0.56945341  0.05813977  1
  Zn  Zn153  1  0.81069073  0.56117843  0.55876080  1
  Zn  Zn154  1  0.43643042  0.43985525  0.18636053  1
  Zn  Zn155  1  0.43824924  0.44049141  0.68508827  1
  Zn  Zn156  1  0.43680870  0.93723570  0.18903616  1
  Zn  Zn157  1  0.43941711  0.93912258  0.68968465  1
  Zn  Zn158  1  0.93788363  0.43831947  0.18536244  1
  Zn  Zn159  1  0.93777009  0.43555362  0.68677450  1
  Zn  Zn160  1  0.93999289  0.93669320  0.19040820  1
  Zn  Zn161  1  0.93843386  0.93436880  0.69064189  1
  Zn  Zn162  1  0.05931464  0.06579877  0.31277345  1
  Zn  Zn163  1  0.06173081  0.06007280  0.81538050  1
  Zn  Zn164  1  0.06536127  0.56483010  0.31140811  1
  Zn  Zn165  1  0.06357457  0.56429645  0.81490458  1
  Zn  Zn166  1  0.56317974  0.06155147  0.31371568  1
  Zn  Zn167  1  0.56228953  0.05832501  0.81201977  1
  Zn  Zn168  1  0.56348413  0.56372439  0.30885573  1
  Zn  Zn169  1  0.55971671  0.55805501  0.80752520  1
  Zn  Zn170  1  0.43979074  0.18814055  0.44142565  1
  Zn  Zn171  1  0.43645644  0.18582815  0.93820647  1
  Zn  Zn172  1  0.43918107  0.68844560  0.43461037  1
  Zn  Zn173  1  0.43616681  0.68626262  0.93791879  1
  Zn  Zn174  1  0.93873060  0.18715656  0.44032829  1
  Zn  Zn175  1  0.93671301  0.18382378  0.93965512  1
  Zn  Zn176  1  0.93893913  0.68674728  0.43445198  1
  Zn  Zn177  1  0.93231574  0.68935830  0.93289797  1
  Zn  Zn178  1  0.06196138  0.31873659  0.06210433  1
  Zn  Zn179  1  0.06233329  0.31372158  0.56141013  1
  Zn  Zn180  1  0.06272079  0.81596088  0.06619637  1
  Zn  Zn181  1  0.06294379  0.81319114  0.56537706  1
  Zn  Zn182  1  0.56053790  0.31240301  0.05942435  1
  Zn  Zn183  1  0.56212399  0.31129995  0.56158034  1
  Zn  Zn184  1  0.56701519  0.81125477  0.06050515  1
  Zn  Zn185  1  0.56114933  0.81016159  0.56508533  1
  O  O186  1  0.12460634  0.11899889  0.11977924  1
  O  O187  1  0.12144464  0.11941811  0.62338246  1
  O  O188  1  0.12048047  0.61057405  0.12697997  1
  O  O189  1  0.13030898  0.61440711  0.61749468  1
  O  O190  1  0.61984108  0.12072766  0.11944714  1
  O  O191  1  0.61822074  0.11975239  0.62148502  1
  O  O192  1  0.61898262  0.61485408  0.12197399  1
  O  O193  1  0.62565572  0.61787862  0.61557415  1
  O  O194  1  0.38139701  0.38140783  0.38117377  1
  O  O195  1  0.37381469  0.38115916  0.87996288  1
  O  O196  1  0.37989348  0.88045905  0.38296355  1
  O  O197  1  0.38009682  0.87960408  0.88428824  1
  O  O198  1  0.88415711  0.38236950  0.37765198  1
  O  O199  1  0.87754566  0.38214384  0.87694502  1
  O  O200  1  0.87532499  0.88338141  0.38579323  1
  O  O201  1  0.89046628  0.87453112  0.86966893  1
  O  O202  1  0.25585287  0.00680787  0.37094761  1
  O  O203  1  0.25346505  0.00402386  0.87223585  1
  O  O204  1  0.25508338  0.50083649  0.36672870  1
  O  O205  1  0.25838984  0.50699417  0.87179622  1
  O  O206  1  0.75999301  0.00014554  0.36934491  1
  O  O207  1  0.75092007  0.00545794  0.86961045  1
  O  O208  1  0.75483368  0.50465566  0.36759940  1
  O  O209  1  0.75990820  0.50540260  0.87333197  1
  O  O210  1  0.24214918  0.49862567  0.13172027  1
  O  O211  1  0.23703658  0.49272535  0.62623705  1
  O  O212  1  0.24481675  0.99402456  0.13366252  1
  O  O213  1  0.24442262  0.99398619  0.63331988  1
  O  O214  1  0.74255756  0.49580332  0.12589411  1
  O  O215  1  0.74381974  0.49277871  0.62310373  1
  O  O216  1  0.74543791  0.99385770  0.12773461  1
  O  O217  1  0.74608736  0.99421618  0.63062178  1
  O  O218  1  0.00083583  0.37525423  0.26352273  1
  O  O219  1  0.00505178  0.36745813  0.75517090  1
  O  O220  1  0.00940781  0.86681302  0.25312628  1
  O  O221  1  0.00701441  0.86658991  0.75944369  1
  O  O222  1  0.50432954  0.37001581  0.25405923  1
  O  O223  1  0.51299951  0.37663143  0.74793529  1
  O  O224  1  0.50804508  0.87621880  0.25652218  1
  O  O225  1  0.49839528  0.86676515  0.75992889  1
  O  O226  1  0.49492153  0.13079516  0.24556992  1
  O  O227  1  0.48946522  0.11694112  0.74306534  1
  O  O228  1  0.49957925  0.62601585  0.23731413  1
  O  O229  1  0.48994832  0.63179936  0.75106854  1
  O  O230  1  0.99410206  0.13047053  0.24546953  1
  O  O231  1  0.99555178  0.12963404  0.74690258  1
  O  O232  1  1.00021085  0.63794632  0.25013032  1
  O  O233  1  0.99639833  0.63889147  0.75674409  1
  O  O234  1  0.36976714  0.25524556  0.00427102  1
  O  O235  1  0.36953775  0.25798555  0.50237580  1
  O  O236  1  0.37703080  0.76463905  0.00322983  1
  O  O237  1  0.37388152  0.76186142  0.50034898  1
  O  O238  1  0.86879984  0.25519186  0.00564030  1
  O  O239  1  0.86895288  0.25130812  0.50738692  1
  O  O240  1  0.85870053  0.74720790  -0.00147112  1
  O  O241  1  0.87325176  0.75702726  0.50481137  1
  O  O242  1  0.13210619  0.24435437  0.49670680  1
  O  O243  1  0.12906709  0.24550338  0.99593326  1
  O  O244  1  0.12287755  0.74254596  0.49504573  1
  O  O245  1  0.11873274  0.75227263  0.98821407  1
  O  O246  1  0.62997905  0.24510873  0.49336310  1
  O  O247  1  0.62947053  0.24528361  0.99187180  1
  O  O248  1  0.63203699  0.74559102  0.49412420  1
  O  O249  1  0.64162143  0.74859553  1.00102513  1
  O  O250  1  0.49470214  0.24433061  0.13035423  1
  O  O251  1  0.49890180  0.23468210  0.62224879  1
  O  O252  1  0.50270136  0.73853963  0.12473746  1
  O  O253  1  0.49404048  0.74729406  0.63596841  1
  O  O254  1  0.98763569  0.25313409  0.12348573  1
  O  O255  1  0.99605428  0.24469721  0.63137868  1
  O  O256  1  1.00016927  0.75063939  0.13548157  1
  O  O257  1  0.99174001  0.75622489  0.63543021  1
  O  O258  1  0.00508626  0.26041134  0.37825386  1
  O  O259  1  0.00377228  0.25449717  0.87117424  1
  O  O260  1  0.01151711  0.75307243  0.36964603  1
  O  O261  1  0.00648830  0.75546876  0.86886578  1
  O  O262  1  0.50557338  0.25623849  0.36944074  1
  O  O263  1  0.51328997  0.24931057  0.87960943  1
  O  O264  1  0.50946817  0.75811706  0.37331572  1
  O  O265  1  0.49276887  0.75958181  0.86736931  1
  O  O266  1  0.24672051  0.12983122  0.49714151  1
  O  O267  1  0.24506200  0.12849054  0.99567655  1
  O  O268  1  0.23744014  0.62654938  0.49768569  1
  O  O269  1  0.25584570  0.62106365  0.98665139  1
  O  O270  1  0.74248661  0.13278099  0.49901650  1
  O  O271  1  0.74232467  0.12946910  0.99365295  1
  O  O272  1  0.74488891  0.63042240  0.49081702  1
  O  O273  1  0.74589175  0.63151222  0.98836179  1
  O  O274  1  0.26068380  0.36772704  -0.00113935  1
  O  O275  1  0.25541424  0.37087941  0.50557367  1
  O  O276  1  0.25916354  0.88518263  0.01196430  1
  O  O277  1  0.26014189  0.87368982  0.50731224  1
  O  O278  1  0.75459241  0.36938197  0.00302641  1
  O  O279  1  0.75075811  0.36826710  0.50585767  1
  O  O280  1  0.74568141  0.86947453  0.00873377  1
  O  O281  1  0.76058044  0.86901977  0.50500276  1
  O  O282  1  0.13251092  0.49827615  0.24277871  1
  O  O283  1  0.12165543  0.49448457  0.74130329  1
  O  O284  1  0.13004639  0.99607581  0.24768426  1
  O  O285  1  0.13090263  0.99315131  0.74782935  1
  O  O286  1  0.63034719  0.49437607  0.23847724  1
  O  O287  1  0.62602001  0.48941186  0.74056641  1
  O  O288  1  0.63136208  0.99611060  0.24422865  1
  O  O289  1  0.63281282  0.99636408  0.74328208  1
  O  O290  1  0.37004404  0.00712275  0.25659272  1
  O  O291  1  0.36882889  0.00722750  0.75767672  1
  O  O292  1  0.36623201  0.50114284  0.25507116  1
  O  O293  1  0.37429997  0.50758339  0.75848828  1
  O  O294  1  0.87045156  -0.00180652  0.26125015  1
  O  O295  1  0.86855129  0.00530456  0.75197251  1
  O  O296  1  0.86768115  0.50041445  0.25440878  1
  O  O297  1  0.87542881  0.50010628  0.75950489  1
  O  O298  1  0.11598688  0.37000764  0.37655431  1
  O  O299  1  0.11929446  0.36926767  0.87014370  1
  O  O300  1  0.12562528  0.86751003  0.37237148  1
  O  O301  1  0.11866029  0.86542423  0.87062540  1
  O  O302  1  0.61935661  0.37060559  0.36722163  1
  O  O303  1  0.62292872  0.36732193  0.86565781  1
  O  O304  1  0.62230776  0.87156816  0.37017704  1
  O  O305  1  0.60901651  0.88031014  0.87514106  1
  O  O306  1  0.38033048  0.12993201  0.13166022  1
  O  O307  1  0.38226407  0.12408696  0.63489383  1
  O  O308  1  0.38609292  0.62605407  0.12460305  1
  O  O309  1  0.37435218  0.62276367  0.63683762  1
  O  O310  1  0.87441298  0.13897536  0.12459674  1
  O  O311  1  0.88104782  0.13018380  0.63116877  1
  O  O312  1  0.88079765  0.63049894  0.12742596  1
  O  O313  1  0.87085204  0.63883628  0.62172941  1
  O  O314  1  0.25678583  0.25088630  0.11920450  1
  O  O315  1  0.25172248  0.25676875  0.61983518  1
  O  O316  1  0.24733287  0.76614372  0.13238373  1
  O  O317  1  0.25385074  0.75845464  0.62478408  1
  O  O318  1  0.75536979  0.25626425  0.11820446  1
  O  O319  1  0.75487746  0.25474358  0.61914428  1
  O  O320  1  0.75224704  0.75978769  0.11675840  1
  O  O321  1  0.75935662  0.75507084  0.61865705  1
  O  O322  1  0.24569054  0.24545586  0.38241187  1
  O  O323  1  0.24264639  0.24274402  0.88201872  1
  O  O324  1  0.23697446  0.74972908  0.37669694  1
  O  O325  1  0.23925188  0.74138777  0.87088469  1
  O  O326  1  0.74382396  0.25108319  0.37974951  1
  O  O327  1  0.73995712  0.24426480  0.87962121  1
  O  O328  1  0.74624534  0.74646475  0.37954708  1
  O  O329  1  0.75438186  0.73889862  0.87844615  1
  O  O330  1  0.00728993  0.11530612  0.00182656  1
  O  O331  1  0.00870643  0.12386529  0.50958845  1
  O  O332  1  -0.00645511  0.61024024  -0.00421384  1
  O  O333  1  0.01066039  0.61382882  0.49437488  1
  O  O334  1  0.50396782  0.11895786  0.00647248  1
  O  O335  1  0.50584730  0.12143588  0.50993149  1
  O  O336  1  0.50295935  0.62174405  0.00731247  1
  O  O337  1  0.50755466  0.61935747  0.49972477  1
  O  O338  1  0.49552002  0.38083723  0.49388848  1
  O  O339  1  0.48564287  0.37513849  0.99581395  1
  O  O340  1  0.49156923  0.87640628  0.49526331  1
  O  O341  1  0.49246406  0.87899808  0.99527257  1
  O  O342  1  1.00031461  0.38616733  0.49036462  1
  O  O343  1  0.99263489  0.38369676  0.99140128  1
  O  O344  1  0.98871112  0.87718042  0.50070058  1
  O  O345  1  1.00725183  0.88478083  0.99092390  1
  O  O346  1  0.49614519  0.49474559  0.37835227  1
  O  O347  1  0.48515607  0.49770689  0.87640846  1
  O  O348  1  0.49399301  0.99382464  0.37783599  1
  O  O349  1  0.49322629  0.99129486  0.88116017  1
  O  O350  1  0.99745976  0.49421714  0.38155246  1
  O  O351  1  0.99267955  0.49480396  0.87913367  1
  O  O352  1  0.98952395  0.99787034  0.37935116  1
  O  O353  1  1.00029069  0.98995573  0.88322825  1
  O  O354  1  0.00656057  -0.00176540  0.11747924  1
  O  O355  1  0.00721074  0.00546936  0.62668460  1
  O  O356  1  0.00624286  0.49911077  0.11450946  1
  O  O357  1  0.00977117  0.49253309  0.61392783  1
  O  O358  1  0.50527489  0.00570662  0.12125514  1
  O  O359  1  0.50689176  0.00954027  0.62473264  1
  O  O360  1  0.50835173  0.50738040  0.12242055  1
  O  O361  1  0.50736514  0.50302151  0.61548102  1
  O  O362  1  0.24911463  0.38762207  0.24835719  1
  O  O363  1  0.24140574  0.37658015  0.74449538  1
  O  O364  1  0.24633576  0.88316078  0.24433751  1
  O  O365  1  0.24688192  0.87946061  0.74753546  1
  O  O366  1  0.74321666  0.38163549  0.24207231  1
  O  O367  1  0.73851383  0.37721834  0.74177742  1
  O  O368  1  0.74411572  0.88131987  0.24089591  1
  O  O369  1  0.74872514  0.87905228  0.74448375  1
  O  O370  1  0.25622336  0.12174276  0.25788854  1
  O  O371  1  0.25679026  0.11791060  0.75712750  1
  O  O372  1  0.25092449  0.61276187  0.25134171  1
  O  O373  1  0.26045536  0.62253188  0.75854081  1
  O  O374  1  0.75483861  0.11654133  0.25225328  1
  O  O375  1  0.75492587  0.11859954  0.75384373  1
  O  O376  1  0.74976701  0.61963918  0.25410468  1
  O  O377  1  0.75473710  0.62214286  0.75702971  1
  O  O378  1  0.37089554  0.12135569  0.37180984  1
  O  O379  1  0.36993049  0.11847550  0.87050540  1
  O  O380  1  0.37280838  0.61736473  0.37330707  1
  O  O381  1  0.36775274  0.61797552  0.86902704  1
  O  O382  1  0.87280478  0.11370525  0.37771201  1
  O  O383  1  0.86688195  0.12423688  0.86825994  1
  O  O384  1  0.86845646  0.61900777  0.37138019  1
  O  O385  1  0.86535729  0.61381598  0.87162263  1
  O  O386  1  0.12720992  0.38723030  0.12730067  1
  O  O387  1  0.12865327  0.38287851  0.62967609  1
  O  O388  1  0.13379388  0.88253139  0.13187559  1
  O  O389  1  0.13146299  0.87972517  0.63232738  1
  O  O390  1  0.62814827  0.38184391  0.12742746  1
  O  O391  1  0.62927911  0.37790038  0.62941527  1
  O  O392  1  0.63267141  0.88277615  0.12949591  1
  O  O393  1  0.63299325  0.88009132  0.62514739  1
  O  O394  1  0.12341078  0.25423680  0.25962007  1
  O  O395  1  0.11901081  0.25395417  0.75699995  1
  O  O396  1  0.11872051  0.75472773  0.25913914  1
  O  O397  1  0.11651029  0.75447523  0.75436054  1
  O  O398  1  0.61968530  0.25566811  0.25294649  1
  O  O399  1  0.63110099  0.25783393  0.75901700  1
  O  O400  1  0.62533368  0.75822352  0.25611506  1
  O  O401  1  0.61048696  0.74935674  0.74481803  1
  O  O402  1  0.38035123  0.24593188  0.24632242  1
  O  O403  1  0.36859792  0.23406698  0.75205177  1
  O  O404  1  0.37980455  0.74743277  0.24493527  1
  O  O405  1  0.38306997  0.73969830  0.75109505  1
  O  O406  1  0.87445841  0.25288763  0.23766555  1
  O  O407  1  0.87966108  0.24383124  0.74497133  1
  O  O408  1  0.88898194  0.75288812  0.25337225  1
  O  O409  1  0.88411975  0.74965346  0.73972056  1
  O  O410  1  0.37985555  0.49486884  0.49439440  1
  O  O411  1  0.37286098  0.48978362  0.99109173  1
  O  O412  1  0.37546847  0.98974128  0.49482729  1
  O  O413  1  0.38105788  0.99249939  0.99638269  1
  O  O414  1  0.88513094  0.50032085  0.49337842  1
  O  O415  1  0.88108439  0.49421018  0.98963495  1
  O  O416  1  0.87404096  0.99140527  0.49454957  1
  O  O417  1  0.88938243  1.00675858  0.99892031  1
  O  O418  1  0.11698798  0.00504699  0.00639715  1
  O  O419  1  0.12589358  0.00623447  0.50911550  1
  O  O420  1  0.11447411  0.49282842  0.00637438  1
  O  O421  1  0.11873471  0.50677439  0.50625693  1
  O  O422  1  0.61847664  0.00670317  0.00563088  1
  O  O423  1  0.62598191  0.00655760  0.50740199  1
  O  O424  1  0.62350970  0.49701611  0.00997532  1
  O  O425  1  0.62001418  0.50481998  0.50184734  1
  O  O426  1  0.37384733  0.36934004  0.11524455  1
  O  O427  1  0.36882961  0.37454529  0.62023100  1
  O  O428  1  0.36728421  0.87700314  0.11842262  1
  O  O429  1  0.37095396  0.87764585  0.61680298  1
  O  O430  1  0.86842306  0.36906285  0.11799356  1
  O  O431  1  0.86888586  0.36771505  0.62344878  1
  O  O432  1  0.86199712  0.87472898  0.12997921  1
  O  O433  1  0.87068066  0.86726915  0.61752482  1
  O  O434  1  0.13131599  0.13031258  0.38288393  1
  O  O435  1  0.12982121  0.12977511  0.88122088  1
  O  O436  1  0.12695544  0.63383946  0.38527231  1
  O  O437  1  0.13513307  0.63334678  0.86946909  1
  O  O438  1  0.62556445  0.13243082  0.38083983  1
  O  O439  1  0.62854088  0.13073000  0.87856826  1
  O  O440  1  0.63125430  0.63076826  0.37840543  1
  O  O441  1  0.63809095  0.61172507  0.87293110  1
