# generated using pymatgen
data_V93Zn93O256
_symmetry_space_group_name_H-M   'P 1'
_cell_length_a   17.05459826
_cell_length_b   17.04565478
_cell_length_c   17.05023260
_cell_angle_alpha   89.90299547
_cell_angle_beta   90.03089196
_cell_angle_gamma   90.07314817
_symmetry_Int_Tables_number   1
_chemical_formula_structural   V93Zn93O256
_chemical_formula_sum   'V93 Zn93 O256'
_cell_volume   4956.60660335
_cell_formula_units_Z   1
loop_
 _symmetry_equiv_pos_site_id
 _symmetry_equiv_pos_as_xyz
  1  'x, y, z'
loop_
 _atom_site_type_symbol
 _atom_site_label
 _atom_site_symmetry_multiplicity
 _atom_site_fract_x
 _atom_site_fract_y
 _atom_site_fract_z
 _atom_site_occupancy
  V  V0  1  0.50147635  0.12417874  0.12473985  1
  V  V1  1  0.37477150  0.24374476  0.63104265  1
  V  V2  1  0.75331323  0.12563730  0.87258991  1
  V  V3  1  -0.00141280  0.62635204  0.12534262  1
  V  V4  1  0.75028386  0.37378000  0.62616564  1
  V  V5  1  0.37302390  0.49975198  0.37612167  1
  V  V6  1  0.00210849  0.74887456  0.74955567  1
  V  V7  1  0.74975245  0.87800149  0.12386794  1
  V  V8  1  0.00253461  0.12590300  0.11795985  1
  V  V9  1  0.87294328  0.00103405  0.37210788  1
  V  V10  1  0.24883466  0.12587223  0.37557614  1
  V  V11  1  -0.00126361  0.37514452  0.37533765  1
  V  V12  1  0.62540305  0.74979006  0.87506640  1
  V  V13  1  0.37510063  0.00042998  0.37466547  1
  V  V14  1  0.74916310  0.62528273  0.37545114  1
  V  V15  1  0.25216560  0.87592266  0.62521228  1
  V  V16  1  0.37339912  0.62639407  0.24996411  1
  V  V17  1  0.49990251  0.62296203  0.62635558  1
  V  V18  1  -0.00253100  0.37438054  0.87588396  1
  V  V19  1  0.00079326  0.62333056  0.62510319  1
  V  V20  1  0.49686729  0.24314509  0.75263040  1
  V  V21  1  0.49989242  0.87613561  0.37449499  1
  V  V22  1  0.87443795  0.37327231  0.50162050  1
  V  V23  1  0.62297080  0.62324015  0.00220445  1
  V  V24  1  0.24912578  0.00154862  0.24887028  1
  V  V25  1  0.49832142  0.88282423  0.87354264  1
  V  V26  1  0.12356666  0.23764288  0.88127701  1
  V  V27  1  0.26385637  0.00497427  0.75218587  1
  V  V28  1  0.37559918  0.87512510  0.49872365  1
  V  V29  1  0.12305750  0.37549727  0.25115799  1
  V  V30  1  0.75003208  0.49919649  0.75102819  1
  V  V31  1  0.49900373  0.74977963  0.24943016  1
  V  V32  1  0.26766104  0.12318303  0.87572569  1
  V  V33  1  0.75092549  0.75021971  0.00000448  1
  V  V34  1  0.37797807  0.88172875  -0.00530719  1
  V  V35  1  0.12490807  0.62505880  0.00000388  1
  V  V36  1  0.12499518  0.00502825  0.11614345  1
  V  V37  1  0.87438862  0.24154608  0.62785724  1
  V  V38  1  0.75422055  0.00303924  0.74777021  1
  V  V39  1  0.25132476  0.75109753  -0.00102092  1
  V  V40  1  0.50023399  0.74899912  0.74936342  1
  V  V41  1  0.62566784  0.87547539  0.24736322  1
  V  V42  1  0.62423713  0.62490228  0.50076850  1
  V  V43  1  0.87446323  0.12608428  0.24421548  1
  V  V44  1  0.87596007  0.87524938  -0.00212465  1
  V  V45  1  0.24854941  0.37431348  0.12475119  1
  V  V46  1  0.25136222  0.87713041  0.12298024  1
  V  V47  1  0.50482917  0.25613488  0.25216367  1
  V  V48  1  0.50274025  0.12366690  0.62333341  1
  V  V49  1  0.12587421  0.00141850  0.62500725  1
  V  V50  1  0.62585376  0.75004118  0.37477663  1
  V  V51  1  0.49929492  0.37472509  0.87835920  1
  V  V52  1  0.24760623  0.50061955  0.25074661  1
  V  V53  1  0.37495409  0.49896268  0.87658904  1
  V  V54  1  0.12352808  0.49998387  0.12583134  1
  V  V55  1  0.12609450  0.75019407  0.87478027  1
  V  V56  1  0.00064889  0.87568585  0.37320988  1
  V  V57  1  0.12414881  0.24941108  0.37573194  1
  V  V58  1  0.12447664  0.75091993  0.37439163  1
  V  V59  1  0.12448862  0.62438437  0.50145921  1
  V  V60  1  0.37364525  0.12659390  0.25049320  1
  V  V61  1  0.37261619  0.25288632  0.12374354  1
  V  V62  1  0.25084106  0.62357812  0.87509436  1
  V  V63  1  0.12405269  0.12488402  0.50029768  1
  V  V64  1  0.00110833  -0.00003360  0.49854540  1
  V  V65  1  0.62683829  0.87416401  0.74929563  1
  V  V66  1  0.00007428  0.49976902  0.50062082  1
  V  V67  1  0.87611517  0.75004539  0.62408509  1
  V  V68  1  0.12802708  0.87605270  0.74994768  1
  V  V69  1  0.62517313  0.49874749  0.62597532  1
  V  V70  1  0.37561251  0.75022975  0.12475384  1
  V  V71  1  0.25039440  0.75064315  0.50079869  1
  V  V72  1  0.12569905  0.87620190  0.24802483  1
  V  V73  1  0.62279051  0.49511842  0.12969305  1
  V  V74  1  -0.00589224  0.25068544  0.24401252  1
  V  V75  1  0.75158818  0.87365358  0.62288312  1
  V  V76  1  -0.00372429  0.24084999  0.74985527  1
  V  V77  1  0.50453131  0.37526876  0.37261231  1
  V  V78  1  0.62781272  0.24833110  0.87796677  1
  V  V79  1  0.87557817  0.62314922  0.75117842  1
  V  V80  1  -0.00021979  0.74990397  0.24777326  1
  V  V81  1  -0.00125038  0.49875548  -0.00007969  1
  V  V82  1  0.37500910  0.62393835  0.75075262  1
  V  V83  1  0.87354854  0.50128121  0.37558880  1
  V  V84  1  0.74432811  0.49735166  0.25180447  1
  V  V85  1  0.75408892  0.37177977  0.12485506  1
  V  V86  1  0.24900445  0.62542143  0.37634872  1
  V  V87  1  0.37453882  0.37434555  0.50156838  1
  V  V88  1  0.12485295  0.37326059  0.75155558  1
  V  V89  1  0.75052467  0.62344809  0.87518790  1
  V  V90  1  0.24939910  0.37370562  0.62802656  1
  V  V91  1  0.87668392  0.00369558  0.87067551  1
  V  V92  1  0.00093427  0.87516499  0.87465442  1
  Zn  Zn93  1  0.74750140  0.24791286  0.49719474  1
  Zn  Zn94  1  0.50009728  0.00484458  -0.00540775  1
  Zn  Zn95  1  0.75191838  0.75010028  0.49811102  1
  Zn  Zn96  1  0.62752912  0.00194089  0.62080363  1
  Zn  Zn97  1  0.49884408  0.62370361  0.12621790  1
  Zn  Zn98  1  0.00485288  0.00568308  -0.00577333  1
  Zn  Zn99  1  0.49929634  0.49963858  0.50123414  1
  Zn  Zn100  1  0.24352761  0.24390159  0.00271652  1
  Zn  Zn101  1  0.87277656  0.49785057  0.87814400  1
  Zn  Zn102  1  0.75653873  0.24401250  0.01070004  1
  Zn  Zn103  1  0.87337510  0.62699972  0.24879362  1
  Zn  Zn104  1  0.62548905  0.37422748  0.75077157  1
  Zn  Zn105  1  0.12459555  0.49854556  0.62635329  1
  Zn  Zn106  1  0.74713547  0.00270346  0.24861434  1
  Zn  Zn107  1  0.49764311  0.49861473  0.00431248  1
  Zn  Zn108  1  0.24821033  0.24828309  0.50173814  1
  Zn  Zn109  1  0.62743920  0.12445873  0.49354119  1
  Zn  Zn110  1  0.50285775  0.00148091  0.49852112  1
  Zn  Zn111  1  0.87562524  0.87424028  0.49747163  1
  Zn  Zn112  1  0.87771717  0.36969671  0.00638137  1
  Zn  Zn113  1  0.37036113  0.37677464  0.00005467  1
  Zn  Zn114  1  0.62713619  0.12158032  0.00115118  1
  Zn  Zn115  1  0.87558862  0.74996495  0.12509948  1
  Zn  Zn116  1  0.74635508  0.13017131  0.37298156  1
  Zn  Zn117  1  0.24902011  0.49921258  0.75294430  1
  Zn  Zn118  1  0.62375771  0.00146105  0.12283986  1
  Zn  Zn119  1  0.37599172  0.74855079  0.62411373  1
  Zn  Zn120  1  0.62749361  0.25073574  0.37656677  1
  Zn  Zn121  1  -0.00368576  0.12118741  0.62674567  1
  Zn  Zn122  1  0.18405034  0.18820607  0.18910508  1
  Zn  Zn123  1  0.18659814  0.18501591  0.69249910  1
  Zn  Zn124  1  0.18695819  0.68883298  0.18617285  1
  Zn  Zn125  1  0.18938508  0.68723984  0.68747120  1
  Zn  Zn126  1  0.68485207  0.18845977  0.19371356  1
  Zn  Zn127  1  0.68572635  0.18916672  0.68828374  1
  Zn  Zn128  1  0.68813895  0.68751428  0.18755232  1
  Zn  Zn129  1  0.68773719  0.68679028  0.68732281  1
  Zn  Zn130  1  0.31240057  0.31226832  0.31184841  1
  Zn  Zn131  1  0.31169427  0.30922818  0.81454879  1
  Zn  Zn132  1  0.31193182  0.81327793  0.31224699  1
  Zn  Zn133  1  0.31455830  0.81275425  0.81104202  1
  Zn  Zn134  1  0.81095515  0.31465033  0.31127979  1
  Zn  Zn135  1  0.81358686  0.31053878  0.80955334  1
  Zn  Zn136  1  0.81318817  0.81265875  0.30954345  1
  Zn  Zn137  1  0.81386548  0.81188044  0.81160334  1
  Zn  Zn138  1  0.18666042  0.43659245  0.43960476  1
  Zn  Zn139  1  0.18654472  0.43432367  0.93979287  1
  Zn  Zn140  1  0.18792294  0.93841650  0.43732779  1
  Zn  Zn141  1  0.19203242  0.94071295  0.93407082  1
  Zn  Zn142  1  0.68759831  0.43710728  0.44176906  1
  Zn  Zn143  1  0.68549292  0.43739570  0.94049107  1
  Zn  Zn144  1  0.68539933  0.94099820  0.43784818  1
  Zn  Zn145  1  0.68476134  0.94026095  0.93956534  1
  Zn  Zn146  1  0.31297662  0.06483088  0.05982698  1
  Zn  Zn147  1  0.31310298  0.06157058  0.56166225  1
  Zn  Zn148  1  0.31230345  0.56132472  0.06225749  1
  Zn  Zn149  1  0.31194311  0.56066121  0.56532111  1
  Zn  Zn150  1  0.81666636  0.06226215  0.05831189  1
  Zn  Zn151  1  0.81138263  0.06285316  0.55608521  1
  Zn  Zn152  1  0.81400045  0.55903763  0.06317499  1
  Zn  Zn153  1  0.81169517  0.56204183  0.56282137  1
  Zn  Zn154  1  0.43609162  0.43937414  0.18918178  1
  Zn  Zn155  1  0.43885723  0.43610332  0.69242320  1
  Zn  Zn156  1  0.43641970  0.93805278  0.18773441  1
  Zn  Zn157  1  0.43954285  0.93576217  0.68499564  1
  Zn  Zn158  1  0.93401620  0.44138727  0.18976737  1
  Zn  Zn159  1  0.93561543  0.43540242  0.68810318  1
  Zn  Zn160  1  0.93809971  0.93928779  0.18533098  1
  Zn  Zn161  1  0.93869823  0.93607725  0.68715156  1
  Zn  Zn162  1  0.06167242  0.06316304  0.30921515  1
  Zn  Zn163  1  0.06770738  0.05988468  0.81018606  1
  Zn  Zn164  1  0.06060600  0.56424083  0.31315252  1
  Zn  Zn165  1  0.06303245  0.56028034  0.81315501  1
  Zn  Zn166  1  0.56341764  0.06267488  0.30948864  1
  Zn  Zn167  1  0.56817565  0.06354618  0.80677779  1
  Zn  Zn168  1  0.55987362  0.56262610  0.31431610  1
  Zn  Zn169  1  0.56283696  0.56054091  0.81263651  1
  Zn  Zn170  1  0.43737896  0.18917869  0.44015751  1
  Zn  Zn171  1  0.43792947  0.18985570  0.94185935  1
  Zn  Zn172  1  0.43852472  0.68797549  0.43838175  1
  Zn  Zn173  1  0.43801801  0.69043305  0.93612394  1
  Zn  Zn174  1  0.93563077  0.18695160  0.43717001  1
  Zn  Zn175  1  0.93258268  0.19157169  0.93878124  1
  Zn  Zn176  1  0.93613599  0.68825586  0.43770720  1
  Zn  Zn177  1  0.93701940  0.68724665  0.93787845  1
  Zn  Zn178  1  0.06327574  0.31143192  0.06144778  1
  Zn  Zn179  1  0.06023470  0.30986673  0.56302404  1
  Zn  Zn180  1  0.06257287  0.81501879  0.06099256  1
  Zn  Zn181  1  0.06359839  0.81411089  0.56182652  1
  Zn  Zn182  1  0.56544733  0.31111473  0.06260959  1
  Zn  Zn183  1  0.56460249  0.31101171  0.56101286  1
  Zn  Zn184  1  0.56211312  0.81174404  0.06174302  1
  Zn  Zn185  1  0.56349448  0.81169972  0.56140799  1
  O  O186  1  0.11588547  0.11490261  0.13178194  1
  O  O187  1  0.12422864  0.11901510  0.61843094  1
  O  O188  1  0.12023413  0.61957573  0.11916793  1
  O  O189  1  0.11918244  0.62276824  0.61967301  1
  O  O190  1  0.61286306  0.12820669  0.12506446  1
  O  O191  1  0.61299025  0.12496798  0.62569900  1
  O  O192  1  0.62549697  0.61711893  0.11660637  1
  O  O193  1  0.61989466  0.61934474  0.62085720  1
  O  O194  1  0.37677244  0.37938985  0.38485505  1
  O  O195  1  0.38272321  0.37810236  0.87668418  1
  O  O196  1  0.37932173  0.88045701  0.37828073  1
  O  O197  1  0.38628974  0.86768951  0.88372972  1
  O  O198  1  0.88078142  0.38183076  0.38049490  1
  O  O199  1  0.89099855  0.37537311  0.87059705  1
  O  O200  1  0.88230234  0.88420147  0.37287802  1
  O  O201  1  0.88087952  0.88234505  0.87757052  1
  O  O202  1  0.25458046  0.00571371  0.36810546  1
  O  O203  1  0.24750045  0.01424603  0.86675496  1
  O  O204  1  0.25267981  0.50526606  0.37041527  1
  O  O205  1  0.25532595  0.50564661  0.87601476  1
  O  O206  1  0.76449693  -0.00131861  0.37131857  1
  O  O207  1  0.75687551  0.00488670  0.86726660  1
  O  O208  1  0.75197680  0.50337859  0.36872995  1
  O  O209  1  0.74989860  0.50519972  0.86994210  1
  O  O210  1  0.24279764  0.49544348  0.13167235  1
  O  O211  1  0.24808064  0.48507404  0.62966292  1
  O  O212  1  0.24426280  0.99771488  0.12898590  1
  O  O213  1  0.24548924  0.99599346  0.63201844  1
  O  O214  1  0.74160345  0.49487771  0.13328444  1
  O  O215  1  0.74538932  0.49448548  0.63168906  1
  O  O216  1  0.75041161  0.98733763  0.12294732  1
  O  O217  1  0.75515744  0.99139413  0.63338656  1
  O  O218  1  0.00263566  0.36922460  0.25401536  1
  O  O219  1  0.00800766  0.36664437  0.75659005  1
  O  O220  1  0.00697486  0.87044345  0.25323425  1
  O  O221  1  0.00771892  0.86856056  0.75496865  1
  O  O222  1  0.48805309  0.36737217  0.26202906  1
  O  O223  1  0.50182739  0.36386251  0.76252965  1
  O  O224  1  0.50431852  0.86893320  0.25418550  1
  O  O225  1  0.50581507  0.86936364  0.75513274  1
  O  O226  1  0.49176481  0.13575189  0.24263482  1
  O  O227  1  0.50365950  0.13655577  0.74296288  1
  O  O228  1  0.49071703  0.63226857  0.25090074  1
  O  O229  1  0.49536794  0.62978695  0.74659625  1
  O  O230  1  0.99417695  0.13272107  0.24203355  1
  O  O231  1  1.00655734  0.13775987  0.74802968  1
  O  O232  1  1.00014315  0.63194399  0.24329188  1
  O  O233  1  0.99709920  0.62936054  0.74524387  1
  O  O234  1  0.37194787  0.25253835  0.01542719  1
  O  O235  1  0.37194332  0.26055148  0.51096382  1
  O  O236  1  0.37020633  0.75832107  0.00488976  1
  O  O237  1  0.36727871  0.75635930  0.49965652  1
  O  O238  1  0.86637226  0.25857836  -0.00405994  1
  O  O239  1  0.87693660  0.25724261  0.50979231  1
  O  O240  1  0.86832680  0.75735828  -0.00065799  1
  O  O241  1  0.87265593  0.75361046  0.50777132  1
  O  O242  1  0.12479107  0.24396735  0.49327046  1
  O  O243  1  0.12671739  0.25458354  0.98640682  1
  O  O244  1  0.13028415  0.74475703  0.49387087  1
  O  O245  1  0.13135168  0.74553722  0.99423756  1
  O  O246  1  0.62777637  0.24600312  0.49602765  1
  O  O247  1  0.63158626  0.24740023  0.98809357  1
  O  O248  1  0.62754459  0.74321985  0.49233167  1
  O  O249  1  0.63099909  0.74162956  0.99533985  1
  O  O250  1  0.49196929  0.24687310  0.13187982  1
  O  O251  1  0.49362284  0.24516180  0.63409741  1
  O  O252  1  0.49353781  0.74817203  0.13175167  1
  O  O253  1  0.49990820  0.74213222  0.63226243  1
  O  O254  1  1.00917216  0.24200126  0.13696580  1
  O  O255  1  0.99225754  0.24909004  0.63389579  1
  O  O256  1  1.00157718  0.74478090  0.12973679  1
  O  O257  1  0.99722684  0.74442957  0.63052456  1
  O  O258  1  0.00433952  0.25577837  0.36566573  1
  O  O259  1  0.00537038  0.25509744  0.86869781  1
  O  O260  1  0.00633450  0.75514711  0.36916487  1
  O  O261  1  0.00679837  0.75432422  0.86888335  1
  O  O262  1  0.49360219  0.25979435  0.36675576  1
  O  O263  1  0.50661998  0.25388083  0.87086624  1
  O  O264  1  0.50527161  0.75602809  0.36865943  1
  O  O265  1  0.50687388  0.75860981  0.86851079  1
  O  O266  1  0.24285416  0.12621152  0.49311191  1
  O  O267  1  0.25456252  0.12535927  0.98199485  1
  O  O268  1  0.24472645  0.62932908  0.49587844  1
  O  O269  1  0.24413780  0.63125061  0.99535635  1
  O  O270  1  0.74809439  0.12907812  0.49245792  1
  O  O271  1  0.74876988  0.12523157  0.98685363  1
  O  O272  1  0.74255266  0.62574119  0.49379842  1
  O  O273  1  0.74164427  0.62843384  0.99595473  1
  O  O274  1  0.25042756  0.36977700  0.00981704  1
  O  O275  1  0.25683815  0.37212147  0.51020355  1
  O  O276  1  0.25927455  0.87098348  0.00196916  1
  O  O277  1  0.25489707  0.87054534  0.50439485  1
  O  O278  1  0.74958308  0.37865434  0.01695262  1
  O  O279  1  0.75832309  0.37526626  0.50914493  1
  O  O280  1  0.75449135  0.87008737  0.00487567  1
  O  O281  1  0.75169403  0.87473637  0.51271462  1
  O  O282  1  0.12835844  0.49524630  0.24605689  1
  O  O283  1  0.12557559  0.48506033  0.74894389  1
  O  O284  1  0.13070070  0.99482962  0.24098473  1
  O  O285  1  0.13365733  0.99309010  0.74337163  1
  O  O286  1  0.63316105  0.50822825  0.24175930  1
  O  O287  1  0.63219270  0.49854054  0.74401677  1
  O  O288  1  0.62788789  0.99074055  0.24352999  1
  O  O289  1  0.63862875  0.99226423  0.74598440  1
  O  O290  1  0.36757358  0.00632655  0.25440964  1
  O  O291  1  0.36219359  -0.00477430  0.74571042  1
  O  O292  1  0.36612147  0.50651709  0.25558940  1
  O  O293  1  0.37297884  0.50567077  0.75884951  1
  O  O294  1  0.87642400  0.00801805  0.25726020  1
  O  O295  1  0.86624352  -0.00729210  0.76016590  1
  O  O296  1  0.86405035  0.50412628  0.25828256  1
  O  O297  1  0.86907102  0.50658004  0.75247144  1
  O  O298  1  0.11838371  0.37084076  0.37034450  1
  O  O299  1  0.11738311  0.36649049  0.86748914  1
  O  O300  1  0.12139541  0.87059872  0.36777823  1
  O  O301  1  0.12171317  0.87005327  0.86995638  1
  O  O302  1  0.60615862  0.37787082  0.38284542  1
  O  O303  1  0.61747791  0.36604294  0.87555195  1
  O  O304  1  0.62038698  0.87006712  0.36789517  1
  O  O305  1  0.61912237  0.86867514  0.86967906  1
  O  O306  1  0.37994995  0.13445991  0.13005991  1
  O  O307  1  0.38202491  0.13821367  0.61906150  1
  O  O308  1  0.37399545  0.63194897  0.13181066  1
  O  O309  1  0.38082323  0.62473154  0.63221925  1
  O  O310  1  0.88601486  0.11561810  0.13656002  1
  O  O311  1  0.87631636  0.13788827  0.62023661  1
  O  O312  1  0.88318853  0.62784820  0.12586330  1
  O  O313  1  0.88109829  0.62994057  0.63105198  1
  O  O314  1  0.25660171  0.25419230  0.12752612  1
  O  O315  1  0.25779459  0.25811694  0.62825778  1
  O  O316  1  0.25446414  0.75751969  0.11861859  1
  O  O317  1  0.25118668  0.75736685  0.61834794  1
  O  O318  1  0.73831872  0.26945878  0.13056411  1
  O  O319  1  0.75979916  0.25602020  0.62925921  1
  O  O320  1  0.75117199  0.76053639  0.11866806  1
  O  O321  1  0.75682483  0.75905380  0.62675764  1
  O  O322  1  0.24260155  0.24415604  0.37556020  1
  O  O323  1  0.24294655  0.23635865  0.87235550  1
  O  O324  1  0.24362624  0.74512214  0.37991467  1
  O  O325  1  0.24536718  0.74456369  0.87979064  1
  O  O326  1  0.74631273  0.25111937  0.37538769  1
  O  O327  1  0.74178415  0.24002990  0.86697566  1
  O  O328  1  0.74341485  0.74445587  0.37441942  1
  O  O329  1  0.74451078  0.74434133  0.87939578  1
  O  O330  1  -0.00745009  0.12501218  0.01433669  1
  O  O331  1  0.00711658  0.11727171  0.49992495  1
  O  O332  1  0.00649769  0.61998161  0.00418610  1
  O  O333  1  0.00539198  0.61990793  0.50527278  1
  O  O334  1  0.49968685  0.12491109  0.01175303  1
  O  O335  1  0.49966710  0.12487923  0.51205472  1
  O  O336  1  0.51288822  0.62636911  0.00095986  1
  O  O337  1  0.50541043  0.62271365  0.50702039  1
  O  O338  1  0.48659198  0.37582865  0.49398412  1
  O  O339  1  0.49782807  0.37289523  0.98787851  1
  O  O340  1  0.49348152  0.87481000  0.49222646  1
  O  O341  1  0.49378249  0.87364726  0.99020790  1
  O  O342  1  0.99532521  0.38021843  0.49466877  1
  O  O343  1  1.00183376  0.37982252  0.99097487  1
  O  O344  1  1.00087623  0.88199507  0.49143031  1
  O  O345  1  0.99467261  0.87738211  0.99095285  1
  O  O346  1  0.48991893  0.49225399  0.37595608  1
  O  O347  1  0.49561552  0.48900775  0.87602755  1
  O  O348  1  0.49125734  0.99279467  0.37183356  1
  O  O349  1  0.50759402  0.98572534  0.87067580  1
  O  O350  1  0.99447145  0.49504305  0.38024209  1
  O  O351  1  1.00170933  0.48940832  0.88092958  1
  O  O352  1  0.99410809  0.99482857  0.37698680  1
  O  O353  1  0.99332977  0.99551934  0.87239244  1
  O  O354  1  0.00987778  0.00747411  0.12297873  1
  O  O355  1  0.00651249  0.00037673  0.61930418  1
  O  O356  1  0.00557241  0.50468206  0.12102341  1
  O  O357  1  0.00081340  0.50498389  0.61900923  1
  O  O358  1  0.49703072  0.01572550  0.12780200  1
  O  O359  1  0.50043431  0.01294009  0.62665547  1
  O  O360  1  0.50811626  0.50292538  0.12571055  1
  O  O361  1  0.50620558  0.50479181  0.62622844  1
  O  O362  1  0.24290488  0.38124304  0.24604826  1
  O  O363  1  0.24097649  0.37267805  0.74496572  1
  O  O364  1  0.24603757  0.88137395  0.24259664  1
  O  O365  1  0.24631559  0.88222969  0.74623223  1
  O  O366  1  0.75166858  0.38935905  0.24088168  1
  O  O367  1  0.74911793  0.38177233  0.74443660  1
  O  O368  1  0.74478817  0.87482113  0.23836038  1
  O  O369  1  0.74714132  0.88150730  0.74241380  1
  O  O370  1  0.25410154  0.12085347  0.25559591  1
  O  O371  1  0.24749750  0.11711419  0.76180025  1
  O  O372  1  0.25290954  0.62089243  0.25655649  1
  O  O373  1  0.25516727  0.62267402  0.75730779  1
  O  O374  1  0.76248602  0.12360575  0.24809551  1
  O  O375  1  0.74427789  0.11251292  0.75926316  1
  O  O376  1  0.75069524  0.61590596  0.25646885  1
  O  O377  1  0.75555913  0.61975521  0.75573894  1
  O  O378  1  0.36919917  0.12128280  0.37030016  1
  O  O379  1  0.36628084  0.13223281  0.87231700  1
  O  O380  1  0.36782030  0.62017807  0.37090814  1
  O  O381  1  0.37047505  0.62018020  0.87092472  1
  O  O382  1  0.87909198  0.11550513  0.36218059  1
  O  O383  1  0.86628607  0.11362019  0.87699060  1
  O  O384  1  0.86736220  0.61821249  0.37542758  1
  O  O385  1  0.86873878  0.62327895  0.86889583  1
  O  O386  1  0.12820614  0.38075796  0.13239564  1
  O  O387  1  0.13295313  0.37042668  0.63411250  1
  O  O388  1  0.13187808  0.88332426  0.12879254  1
  O  O389  1  0.13254404  0.88067953  0.63018588  1
  O  O390  1  0.63172858  0.38932986  0.12091605  1
  O  O391  1  0.63127431  0.38075125  0.62746034  1
  O  O392  1  0.63386173  0.87388074  0.12872706  1
  O  O393  1  0.63591811  0.87428116  0.63114042  1
  O  O394  1  0.11535519  0.25626970  0.25668032  1
  O  O395  1  0.11718774  0.25774236  0.75778156  1
  O  O396  1  0.12121163  0.75650706  0.25496257  1
  O  O397  1  0.12163706  0.75555081  0.75561741  1
  O  O398  1  0.60679042  0.25138771  0.25206222  1
  O  O399  1  0.61508791  0.25203341  0.76165767  1
  O  O400  1  0.61895486  0.75472927  0.25503424  1
  O  O401  1  0.62061826  0.75410927  0.75606652  1
  O  O402  1  0.37988569  0.24607471  0.24066353  1
  O  O403  1  0.38520984  0.25609325  0.74091723  1
  O  O404  1  0.37825708  0.74581452  0.24479503  1
  O  O405  1  0.38219933  0.74211842  0.74855343  1
  O  O406  1  0.88685867  0.24183302  0.25421025  1
  O  O407  1  0.88656046  0.25411365  0.74078318  1
  O  O408  1  0.88473581  0.74763932  0.24667960  1
  O  O409  1  0.88276937  0.74347434  0.74527137  1
  O  O410  1  0.37356463  0.48906756  0.49601239  1
  O  O411  1  0.37891426  0.49794008  0.99366347  1
  O  O412  1  0.37663710  0.99296193  0.49175560  1
  O  O413  1  0.37924500  0.98522734  1.00531366  1
  O  O414  1  0.88095889  0.49442175  0.49541935  1
  O  O415  1  0.88348055  0.49309568  0.99746194  1
  O  O416  1  0.88317153  0.99836038  0.48817154  1
  O  O417  1  0.87787903  0.99303578  0.98540672  1
  O  O418  1  0.12554121  -0.00522339  0.01260654  1
  O  O419  1  0.12083727  0.00467045  0.50507212  1
  O  O420  1  0.11938523  0.50552394  0.00638050  1
  O  O421  1  0.11837662  0.50582220  0.50227018  1
  O  O422  1  0.61756039  0.00374322  0.00523180  1
  O  O423  1  0.61970185  0.00418028  0.50452621  1
  O  O424  1  0.62251936  0.50934077  0.00911946  1
  O  O425  1  0.62218972  0.50707429  0.50833975  1
  O  O426  1  0.36794364  0.36733898  0.12721737  1
  O  O427  1  0.36868670  0.36787133  0.62079591  1
  O  O428  1  0.37057131  0.86956614  0.11702631  1
  O  O429  1  0.36937088  0.87215288  0.61691956  1
  O  O430  1  0.85790481  0.38132474  0.12756832  1
  O  O431  1  0.87031884  0.36636486  0.62050173  1
  O  O432  1  0.86726523  0.87492072  0.11711215  1
  O  O433  1  0.86719702  0.86869452  0.62509265  1
  O  O434  1  0.12927731  0.12929180  0.37893615  1
  O  O435  1  0.12732636  0.13516981  0.87191077  1
  O  O436  1  0.12984737  0.63077114  0.38123135  1
  O  O437  1  0.12996168  0.63017902  0.88045893  1
  O  O438  1  0.62704107  0.12960743  0.37230959  1
  O  O439  1  0.63357156  0.13249669  0.87562998  1
  O  O440  1  0.62910561  0.62994364  0.38057636  1
  O  O441  1  0.63008710  0.62896009  0.88337453  1
