# generated using pymatgen
data_V93Zn93O256
_symmetry_space_group_name_H-M   'P 1'
_cell_length_a   17.05317527
_cell_length_b   17.04926781
_cell_length_c   17.05079046
_cell_angle_alpha   90.02592888
_cell_angle_beta   89.97840192
_cell_angle_gamma   90.07527664
_symmetry_Int_Tables_number   1
_chemical_formula_structural   V93Zn93O256
_chemical_formula_sum   'V93 Zn93 O256'
_cell_volume   4957.41247828
_cell_formula_units_Z   1
loop_
 _symmetry_equiv_pos_site_id
 _symmetry_equiv_pos_as_xyz
  1  'x, y, z'
loop_
 _atom_site_type_symbol
 _atom_site_label
 _atom_site_symmetry_multiplicity
 _atom_site_fract_x
 _atom_site_fract_y
 _atom_site_fract_z
 _atom_site_occupancy
  V  V0  1  0.86933720  0.74855720  0.12017017  1
  V  V1  1  0.49379453  0.24488727  0.24981343  1
  V  V2  1  -0.00023500  0.62453158  0.62467367  1
  V  V3  1  0.49968862  0.25109558  0.75041519  1
  V  V4  1  0.12522184  0.37287635  0.25050050  1
  V  V5  1  0.62412541  0.00082759  0.11708799  1
  V  V6  1  0.74942720  0.50242156  0.75203261  1
  V  V7  1  0.24844431  0.25037557  0.50130839  1
  V  V8  1  0.74886124  0.25086416  0.49830008  1
  V  V9  1  0.25016090  0.24974637  0.00105020  1
  V  V10  1  0.49998455  0.75234286  0.74988756  1
  V  V11  1  0.25108951  0.75216055  0.50185389  1
  V  V12  1  0.87496202  0.62492060  0.75112540  1
  V  V13  1  0.63186417  0.75078586  0.88183904  1
  V  V14  1  0.62174193  0.37247990  0.25169480  1
  V  V15  1  0.12385425  0.37169076  0.75172249  1
  V  V16  1  0.75035504  0.62413265  0.37464770  1
  V  V17  1  -0.00077401  0.24839371  0.25003950  1
  V  V18  1  0.37733248  0.62855240  0.25155454  1
  V  V19  1  0.49733926  0.12840742  0.62479007  1
  V  V20  1  0.25172024  0.62660150  0.87706820  1
  V  V21  1  0.00045047  0.12266894  0.12506174  1
  V  V22  1  0.87469627  0.49924930  0.87497157  1
  V  V23  1  0.00081385  0.62262143  0.12453618  1
  V  V24  1  0.87421595  0.00607648  0.86843096  1
  V  V25  1  0.62114640  0.87031912  0.24896343  1
  V  V26  1  0.37557376  0.75390403  0.12857242  1
  V  V27  1  0.87482674  0.24292257  0.63138109  1
  V  V28  1  0.87513321  0.75110964  0.62420355  1
  V  V29  1  0.74822443  0.12487373  0.37349217  1
  V  V30  1  0.49335505  0.12159393  0.12057624  1
  V  V31  1  0.62537279  0.25071437  0.87616346  1
  V  V32  1  0.49973888  0.87021395  0.37206210  1
  V  V33  1  0.62355892  0.12679921  0.49658320  1
  V  V34  1  -0.00068959  0.49895782  0.49982917  1
  V  V35  1  0.00036368  0.37377306  0.87507994  1
  V  V36  1  0.87391486  0.87425566  0.49837636  1
  V  V37  1  0.37766640  0.00194674  0.87770374  1
  V  V38  1  0.25067349  0.37357750  0.12591609  1
  V  V39  1  0.49625912  0.00076999  0.49643806  1
  V  V40  1  0.62509932  0.50196271  0.62724573  1
  V  V41  1  0.62446462  0.50009748  0.12457853  1
  V  V42  1  0.37353950  0.37615646  0.50184366  1
  V  V43  1  0.87594465  0.37416794  0.00013892  1
  V  V44  1  0.86899924  0.87009387  -0.00059998  1
  V  V45  1  0.12654455  -0.00063063  0.62335490  1
  V  V46  1  0.12449657  0.49901090  0.62672672  1
  V  V47  1  0.62434918  0.37803832  0.75075365  1
  V  V48  1  0.12536864  0.62437179  0.50006670  1
  V  V49  1  0.87410617  0.12291185  0.24905304  1
  V  V50  1  0.25069143  0.49974484  0.25114936  1
  V  V51  1  0.24956493  0.50056286  0.75201454  1
  V  V52  1  0.12383414  0.24820051  0.37565071  1
  V  V53  1  0.50105232  0.62941724  0.12909813  1
  V  V54  1  0.00073592  -0.00088104  0.49816373  1
  V  V55  1  0.74956106  -0.00175572  0.24673882  1
  V  V56  1  0.12805673  0.87484339  0.74897785  1
  V  V57  1  0.00161700  0.74886452  0.74999834  1
  V  V58  1  0.25045446  0.75327489  0.00455588  1
  V  V59  1  0.25672902  -0.00399262  0.24664234  1
  V  V60  1  0.87420819  0.24763184  0.12478417  1
  V  V61  1  0.00112351  0.74958354  0.24961845  1
  V  V62  1  0.37630304  0.62735562  0.75123800  1
  V  V63  1  0.25043218  0.00075623  0.74972193  1
  V  V64  1  0.74960886  0.37379868  0.12557641  1
  V  V65  1  0.25000527  0.62481656  0.37578970  1
  V  V66  1  0.62465157  0.62662453  0.50090092  1
  V  V67  1  0.37594260  0.50203551  0.87704467  1
  V  V68  1  0.62811176  0.87996385  0.74761880  1
  V  V69  1  0.25003416  0.12490423  0.87631977  1
  V  V70  1  0.12673713  0.12363517  0.00097986  1
  V  V71  1  0.12448782  0.49895545  0.12602557  1
  V  V72  1  0.12701532  -0.00952515  0.12646562  1
  V  V73  1  0.37437781  0.37518914  0.00234715  1
  V  V74  1  0.00106264  -0.00167720  -0.00050399  1
  V  V75  1  0.37616984  0.87721633  0.00236199  1
  V  V76  1  0.74955092  0.75032094  0.49912763  1
  V  V77  1  0.00010791  0.87266483  0.37207314  1
  V  V78  1  0.50146134  0.50195648  0.00162727  1
  V  V79  1  0.49924892  0.62786829  0.62600119  1
  V  V80  1  0.49879576  0.50052969  0.50033878  1
  V  V81  1  0.49981074  0.37641919  0.87665201  1
  V  V82  1  0.74790335  0.24512039  -0.00136474  1
  V  V83  1  0.12686057  0.74918727  0.87587732  1
  V  V84  1  0.50123468  0.88209307  0.87806166  1
  V  V85  1  0.12293562  0.12337591  0.50013878  1
  V  V86  1  0.00062913  0.87336741  0.87461043  1
  V  V87  1  0.62453640  0.00096698  0.62416458  1
  V  V88  1  0.25588302  0.12391483  0.36964830  1
  V  V89  1  -0.00068266  0.37430094  0.37565579  1
  V  V90  1  0.87398391  0.37474360  0.50032357  1
  V  V91  1  0.87482975  -0.00129975  0.37298638  1
  V  V92  1  0.74950181  0.49888581  0.25089604  1
  Zn  Zn93  1  0.62268296  0.24959563  0.37464547  1
  Zn  Zn94  1  0.12521900  0.74961739  0.37431695  1
  Zn  Zn95  1  0.75029500  0.12776684  0.86538810  1
  Zn  Zn96  1  0.37532476  0.75488029  0.62679401  1
  Zn  Zn97  1  0.63212893  0.63134420  0.00585969  1
  Zn  Zn98  1  0.76134435  0.00982047  0.73836756  1
  Zn  Zn99  1  0.00124436  0.49926212  0.00107940  1
  Zn  Zn100  1  0.24828023  0.37316412  0.62731273  1
  Zn  Zn101  1  0.49808441  0.37414053  0.37541594  1
  Zn  Zn102  1  0.37105409  0.25184943  0.62851565  1
  Zn  Zn103  1  0.37657007  0.50033402  0.37544867  1
  Zn  Zn104  1  0.74966062  0.37580008  0.62478656  1
  Zn  Zn105  1  0.62123905  0.74824686  0.37008534  1
  Zn  Zn106  1  0.87438699  0.62210646  0.24892351  1
  Zn  Zn107  1  0.37185870  0.24487100  0.12989872  1
  Zn  Zn108  1  0.12743303  0.62251796  0.00081346  1
  Zn  Zn109  1  -0.00462277  0.11920828  0.63215744  1
  Zn  Zn110  1  -0.00602262  0.24050925  0.75448317  1
  Zn  Zn111  1  0.12380079  0.24697951  0.87535186  1
  Zn  Zn112  1  0.74532250  0.87009257  0.12138605  1
  Zn  Zn113  1  0.25495686  0.87708949  0.62413511  1
  Zn  Zn114  1  0.37486492  0.87574807  0.49989166  1
  Zn  Zn115  1  0.74991969  0.87687758  0.62226479  1
  Zn  Zn116  1  0.75714551  0.63198126  0.88386624  1
  Zn  Zn117  1  0.62115097  0.11770117  -0.00471424  1
  Zn  Zn118  1  0.37732958  0.00245246  0.36897447  1
  Zn  Zn119  1  0.87479252  0.49878239  0.37464378  1
  Zn  Zn120  1  0.37409587  0.12779488  0.75109095  1
  Zn  Zn121  1  0.13015274  0.87087182  0.24848433  1
  Zn  Zn122  1  0.18756136  0.18332344  0.18756410  1
  Zn  Zn123  1  0.18545805  0.18517130  0.68720380  1
  Zn  Zn124  1  0.18908546  0.68637293  0.18712484  1
  Zn  Zn125  1  0.18898669  0.68704174  0.68673894  1
  Zn  Zn126  1  0.68310100  0.18493871  0.18605929  1
  Zn  Zn127  1  0.68797476  0.18770465  0.68776060  1
  Zn  Zn128  1  0.68824701  0.68651633  0.18894823  1
  Zn  Zn129  1  0.68907726  0.68934215  0.69011250  1
  Zn  Zn130  1  0.31290259  0.31216843  0.31566631  1
  Zn  Zn131  1  0.31240056  0.31182029  0.81455179  1
  Zn  Zn132  1  0.31374735  0.81440446  0.31633623  1
  Zn  Zn133  1  0.31288070  0.81388017  0.81411428  1
  Zn  Zn134  1  0.81185633  0.31160016  0.31352046  1
  Zn  Zn135  1  0.80966009  0.31538992  0.81181041  1
  Zn  Zn136  1  0.81136828  0.81077574  0.30839341  1
  Zn  Zn137  1  0.81296977  0.81742867  0.80957370  1
  Zn  Zn138  1  0.18807800  0.43742233  0.43744598  1
  Zn  Zn139  1  0.18712618  0.43833522  0.93940168  1
  Zn  Zn140  1  0.18599372  0.93541422  0.43289461  1
  Zn  Zn141  1  0.18991038  0.93660532  0.93717364  1
  Zn  Zn142  1  0.68596414  0.43803573  0.43879754  1
  Zn  Zn143  1  0.68912248  0.43878618  0.93893435  1
  Zn  Zn144  1  0.68539947  0.93799395  0.43557351  1
  Zn  Zn145  1  0.69261807  0.93612649  0.93505524  1
  Zn  Zn146  1  0.31143155  0.06037721  0.06292886  1
  Zn  Zn147  1  0.31110659  0.06498778  0.56068103  1
  Zn  Zn148  1  0.31261344  0.56361010  0.06458228  1
  Zn  Zn149  1  0.31224760  0.56295317  0.56554217  1
  Zn  Zn150  1  0.81225320  0.05872992  0.05941886  1
  Zn  Zn151  1  0.81025419  0.06267929  0.55837945  1
  Zn  Zn152  1  0.81136910  0.56227587  0.05982456  1
  Zn  Zn153  1  0.81213575  0.56220314  0.56348688  1
  Zn  Zn154  1  0.43691996  0.43873779  0.18729727  1
  Zn  Zn155  1  0.43719437  0.43927313  0.68723642  1
  Zn  Zn156  1  0.44031365  0.93933226  0.18702427  1
  Zn  Zn157  1  0.43674275  0.93881289  0.68756340  1
  Zn  Zn158  1  0.93540513  0.43666697  0.18943508  1
  Zn  Zn159  1  0.93582823  0.43443869  0.68703919  1
  Zn  Zn160  1  0.93787882  0.93435310  0.18537723  1
  Zn  Zn161  1  0.94253868  0.93456418  0.68526572  1
  Zn  Zn162  1  0.06556729  0.06053223  0.31122351  1
  Zn  Zn163  1  0.06299042  0.06235609  0.81081272  1
  Zn  Zn164  1  0.06349226  0.56200979  0.31315346  1
  Zn  Zn165  1  0.06274535  0.56178938  0.81391429  1
  Zn  Zn166  1  0.56292923  0.06094057  0.30704870  1
  Zn  Zn167  1  0.56515443  0.06641673  0.81075512  1
  Zn  Zn168  1  0.56160371  0.56081823  0.31403221  1
  Zn  Zn169  1  0.56208462  0.56590987  0.81350684  1
  Zn  Zn170  1  0.43563046  0.19202901  0.43644393  1
  Zn  Zn171  1  0.43741659  0.18925797  0.94040674  1
  Zn  Zn172  1  0.43623029  0.68885070  0.43894904  1
  Zn  Zn173  1  0.44247000  0.69057240  0.93972366  1
  Zn  Zn174  1  0.93569642  0.18649888  0.44024652  1
  Zn  Zn175  1  0.93964046  0.18698052  0.93873416  1
  Zn  Zn176  1  0.93577111  0.68606763  0.43693925  1
  Zn  Zn177  1  0.93959898  0.68601689  0.93899968  1
  Zn  Zn178  1  0.06335665  0.31058290  0.06229261  1
  Zn  Zn179  1  0.06007419  0.31118274  0.56395114  1
  Zn  Zn180  1  0.05915530  0.81027636  0.06040292  1
  Zn  Zn181  1  0.06438106  0.81344808  0.56153298  1
  Zn  Zn182  1  0.56080498  0.31025411  0.06448287  1
  Zn  Zn183  1  0.56252685  0.31441702  0.56318546  1
  Zn  Zn184  1  0.55859744  0.81552472  0.06291058  1
  Zn  Zn185  1  0.56226196  0.81301012  0.56055827  1
  O  O186  1  0.11895990  0.11451494  0.11989100  1
  O  O187  1  0.12441886  0.11673415  0.61538283  1
  O  O188  1  0.11637347  0.61824009  0.12597578  1
  O  O189  1  0.11862874  0.61871325  0.62106079  1
  O  O190  1  0.61807684  0.11610426  0.12043061  1
  O  O191  1  0.61420085  0.12144874  0.61713321  1
  O  O192  1  0.61529216  0.62067835  0.12837006  1
  O  O193  1  0.61931330  0.62159458  0.62147192  1
  O  O194  1  0.37520783  0.37811897  0.38903354  1
  O  O195  1  0.38040967  0.38264810  0.88189090  1
  O  O196  1  0.38647964  0.88070417  0.37734512  1
  O  O197  1  0.38301572  0.88215684  0.88102219  1
  O  O198  1  0.88159445  0.37491926  0.38166206  1
  O  O199  1  0.88344721  0.37853607  0.87887598  1
  O  O200  1  0.87963510  0.87952584  0.37795814  1
  O  O201  1  0.88132218  0.87949824  0.88209081  1
  O  O202  1  0.24938295  0.00712435  0.36413908  1
  O  O203  1  0.25832252  0.00501344  0.87032825  1
  O  O204  1  0.25193965  0.50677880  0.36876041  1
  O  O205  1  0.25619154  0.50662557  0.87237713  1
  O  O206  1  0.75555802  0.00537060  0.36820317  1
  O  O207  1  0.76755215  0.00019753  0.87551847  1
  O  O208  1  0.74831649  0.50970665  0.37057480  1
  O  O209  1  0.75815003  0.49938414  0.86820573  1
  O  O210  1  0.24468421  0.49432115  0.13146455  1
  O  O211  1  0.24178852  0.49961597  0.63454728  1
  O  O212  1  0.24127839  1.00645273  0.13826810  1
  O  O213  1  0.24465446  1.00029940  0.63104004  1
  O  O214  1  0.74429088  0.49275459  0.13117892  1
  O  O215  1  0.74247424  0.50121653  0.63349139  1
  O  O216  1  0.74208860  0.99776243  0.12951242  1
  O  O217  1  0.74049011  0.99714753  0.62136358  1
  O  O218  1  0.00507982  0.36769225  0.25494975  1
  O  O219  1  0.00747117  0.37375586  0.75947967  1
  O  O220  1  -0.00021505  0.86373024  0.25352795  1
  O  O221  1  0.00818046  0.86712575  0.75505885  1
  O  O222  1  0.50850351  0.36834736  0.24779574  1
  O  O223  1  0.50430444  0.37222824  0.75717488  1
  O  O224  1  0.50938594  0.88466678  0.26046406  1
  O  O225  1  0.50784716  0.87293074  0.75891375  1
  O  O226  1  0.50772876  0.13536638  0.23683869  1
  O  O227  1  0.49984706  0.13170890  0.73963667  1
  O  O228  1  0.48969053  0.61993731  0.24081438  1
  O  O229  1  0.49523960  0.63202950  0.74576366  1
  O  O230  1  0.99429021  0.12888127  0.24519932  1
  O  O231  1  1.00719204  0.12975648  0.74417572  1
  O  O232  1  0.99903109  0.63149041  0.24165519  1
  O  O233  1  0.99553977  0.62970525  0.74439940  1
  O  O234  1  0.36784399  0.25807722  0.00332231  1
  O  O235  1  0.36792615  0.26006434  0.50236828  1
  O  O236  1  0.36934002  0.75692857  0.00689396  1
  O  O237  1  0.36268910  0.75030214  0.50283945  1
  O  O238  1  0.86759268  0.25380530  0.00517727  1
  O  O239  1  0.86858673  0.25584474  0.50652261  1
  O  O240  1  0.88472577  0.75871665  0.00902246  1
  O  O241  1  0.87001771  0.75464946  0.50459321  1
  O  O242  1  0.12826120  0.24518583  0.49445518  1
  O  O243  1  0.13215123  0.24185973  0.99999518  1
  O  O244  1  0.13340267  0.74220361  0.49958403  1
  O  O245  1  0.13540093  0.74988608  0.99601466  1
  O  O246  1  0.63041034  0.24511355  0.49844545  1
  O  O247  1  0.63593277  0.25328129  0.99531129  1
  O  O248  1  0.63208675  0.74330287  0.49822521  1
  O  O249  1  0.62108767  0.75632129  0.98445308  1
  O  O250  1  0.49884030  0.23910118  0.13205982  1
  O  O251  1  0.49974060  0.24177894  0.63042411  1
  O  O252  1  0.48896052  0.73910178  0.11899096  1
  O  O253  1  0.49977898  0.74471790  0.63167586  1
  O  O254  1  0.99437014  0.24293604  0.13033278  1
  O  O255  1  0.98333667  0.24910043  0.62423321  1
  O  O256  1  0.99457083  0.74128633  0.13157209  1
  O  O257  1  0.99561026  0.74436549  0.63008430  1
  O  O258  1  0.00403397  0.25367857  0.36949763  1
  O  O259  1  0.00095249  0.26131428  0.87432094  1
  O  O260  1  -0.00154725  0.75190309  0.36391086  1
  O  O261  1  0.00708484  0.75335071  0.86961423  1
  O  O262  1  0.50294649  0.25216887  0.36480984  1
  O  O263  1  0.50476641  0.25745728  0.87137106  1
  O  O264  1  0.50263753  0.76537956  0.38256953  1
  O  O265  1  0.50881073  0.76272014  0.86955797  1
  O  O266  1  0.24235280  0.12975865  0.49097319  1
  O  O267  1  0.24605126  0.12940947  0.99642522  1
  O  O268  1  0.24519326  0.63095036  0.49613070  1
  O  O269  1  0.25171466  0.63606293  0.99538863  1
  O  O270  1  0.74272038  0.13031739  0.49210521  1
  O  O271  1  0.75054487  0.13739902  0.99627080  1
  O  O272  1  0.74493760  0.62906117  0.49276296  1
  O  O273  1  0.74395408  0.62238050  0.99551409  1
  O  O274  1  0.25429385  0.36991629  0.00611678  1
  O  O275  1  0.25622581  0.36972376  0.50210975  1
  O  O276  1  0.26285284  0.86316023  -0.00673859  1
  O  O277  1  0.25022507  0.86439963  0.49864117  1
  O  O278  1  0.75600783  0.36570587  0.00600545  1
  O  O279  1  0.75476893  0.36943788  0.50095907  1
  O  O280  1  0.76523899  0.87587308  0.00189786  1
  O  O281  1  0.75594000  0.86871030  0.49799573  1
  O  O282  1  0.13057662  0.49220836  0.24591754  1
  O  O283  1  0.12916499  0.49175112  0.74720409  1
  O  O284  1  0.13094019  0.99608531  0.24080197  1
  O  O285  1  0.13160121  0.99323384  0.74436957  1
  O  O286  1  0.62849881  0.49104664  0.24426865  1
  O  O287  1  0.62884591  0.49801120  0.74718019  1
  O  O288  1  0.63084044  0.99175464  0.23870317  1
  O  O289  1  0.62089164  0.99057972  0.74310884  1
  O  O290  1  0.35979337  -0.00102038  0.24698462  1
  O  O291  1  0.36991111  0.00179676  0.76255485  1
  O  O292  1  0.36888729  0.51122282  0.25019452  1
  O  O293  1  0.37036207  0.50630526  0.75796260  1
  O  O294  1  0.87056865  0.00367091  0.25299310  1
  O  O295  1  0.87863977  -0.01070807  0.76510564  1
  O  O296  1  0.86515150  0.50034909  0.25359905  1
  O  O297  1  0.87044846  0.50513789  0.75433597  1
  O  O298  1  0.11953379  0.36788656  0.36970287  1
  O  O299  1  0.11661314  0.37563715  0.86852690  1
  O  O300  1  0.11384778  0.86939043  0.37097008  1
  O  O301  1  0.12049710  0.86905992  0.87015551  1
  O  O302  1  0.62337794  0.37439914  0.36183429  1
  O  O303  1  0.61838206  0.37151609  0.87069518  1
  O  O304  1  0.61749550  0.87595656  0.36530768  1
  O  O305  1  0.61946155  0.87211917  0.86858184  1
  O  O306  1  0.38955938  0.12281186  0.12150482  1
  O  O307  1  0.38739589  0.12676990  0.62579017  1
  O  O308  1  0.38167091  0.63234897  0.13240166  1
  O  O309  1  0.38188989  0.62690464  0.63433637  1
  O  O310  1  0.88049414  0.12767243  0.12914759  1
  O  O311  1  0.87424261  0.13961723  0.61700723  1
  O  O312  1  0.88477857  0.63087667  0.12518114  1
  O  O313  1  0.88109978  0.63095271  0.63072796  1
  O  O314  1  0.25157403  0.25421166  0.12086762  1
  O  O315  1  0.25051326  0.25155543  0.61705636  1
  O  O316  1  0.26198522  0.74436608  0.11524537  1
  O  O317  1  0.25118062  0.75164744  0.61462061  1
  O  O318  1  0.75446137  0.25318854  0.11778848  1
  O  O319  1  0.75933898  0.25206073  0.61710919  1
  O  O320  1  0.76591861  0.74983447  0.13087775  1
  O  O321  1  0.75731776  0.75195238  0.61825914  1
  O  O322  1  0.24299051  0.24269048  0.37909470  1
  O  O323  1  0.24841338  0.24307964  0.88297114  1
  O  O324  1  0.24837404  0.74328611  0.38380922  1
  O  O325  1  0.24686175  0.74525915  0.88392550  1
  O  O326  1  0.74784324  0.24209319  0.38006701  1
  O  O327  1  0.74517329  0.25173281  0.88415406  1
  O  O328  1  0.74894230  0.73941282  0.37909191  1
  O  O329  1  0.73453344  0.75469202  0.86872007  1
  O  O330  1  0.00619016  0.11823958  0.00610853  1
  O  O331  1  0.00594011  0.11626785  0.49965527  1
  O  O332  1  0.00402007  0.62311932  0.01329922  1
  O  O333  1  0.00465413  0.61965975  0.50523458  1
  O  O334  1  0.50454567  0.13294505  0.01610167  1
  O  O335  1  0.50326029  0.12035021  0.50472388  1
  O  O336  1  0.50423976  0.62067916  0.01139826  1
  O  O337  1  0.50497336  0.62128564  0.50570605  1
  O  O338  1  0.49071562  0.38113534  0.50073759  1
  O  O339  1  0.49461242  0.38100157  0.99656760  1
  O  O340  1  0.50321236  0.88720360  0.49101418  1
  O  O341  1  0.48839888  0.87105514  0.98766366  1
  O  O342  1  0.99534015  0.37976808  0.49416733  1
  O  O343  1  0.99495280  0.37375370  0.99165410  1
  O  O344  1  0.99364967  0.87848168  0.49207511  1
  O  O345  1  0.99271287  0.87925738  0.99357713  1
  O  O346  1  0.49713661  0.49687170  0.38431093  1
  O  O347  1  0.49558930  0.49667382  0.88128287  1
  O  O348  1  0.49910759  0.99636941  0.38172879  1
  O  O349  1  0.49144441  0.99160866  0.86968600  1
  O  O350  1  0.99932267  0.49248483  0.38145921  1
  O  O351  1  0.99470729  0.48917335  0.87666776  1
  O  O352  1  0.99386514  0.99347854  0.37740198  1
  O  O353  1  0.99268160  0.99249872  0.87992057  1
  O  O354  1  0.00708511  0.00385763  0.11994053  1
  O  O355  1  0.00723989  -0.00122636  0.61533131  1
  O  O356  1  0.00461995  0.50744970  0.12757500  1
  O  O357  1  0.00459172  0.50519979  0.62046128  1
  O  O358  1  0.50868355  0.01407854  0.13054099  1
  O  O359  1  0.50434584  0.00913547  0.61664453  1
  O  O360  1  0.50414433  0.50988183  0.12116161  1
  O  O361  1  0.50577130  0.50833482  0.62117334  1
  O  O362  1  0.24439993  0.37884327  0.24620625  1
  O  O363  1  0.24043190  0.38193352  0.75271403  1
  O  O364  1  0.24700815  0.89088487  0.25751377  1
  O  O365  1  0.24459667  0.88198667  0.75078687  1
  O  O366  1  0.74141819  0.37713366  0.24521290  1
  O  O367  1  0.74123197  0.38410224  0.74841576  1
  O  O368  1  0.74138588  0.88168825  0.24695134  1
  O  O369  1  0.73812198  0.88222839  0.74657574  1
  O  O370  1  0.24144269  0.11237312  0.26043064  1
  O  O371  1  0.25149606  0.11899995  0.75810779  1
  O  O372  1  0.25777097  0.61980089  0.25455693  1
  O  O373  1  0.25578735  0.62076809  0.75763403  1
  O  O374  1  0.75502720  0.11927541  0.25300071  1
  O  O375  1  0.74522397  0.11975446  0.75326653  1
  O  O376  1  0.74943473  0.61828736  0.25933588  1
  O  O377  1  0.75772192  0.62100012  0.75625553  1
  O  O378  1  0.35952930  0.12376995  0.38021351  1
  O  O379  1  0.37137485  0.11549431  0.87773428  1
  O  O380  1  0.37054793  0.62610635  0.36489046  1
  O  O381  1  0.37274782  0.62146063  0.87169081  1
  O  O382  1  0.86912988  0.11849980  0.36836687  1
  O  O383  1  0.87929241  0.10802862  0.87958197  1
  O  O384  1  0.86220287  0.62144630  0.37353034  1
  O  O385  1  0.87844899  0.61842658  0.86850973  1
  O  O386  1  0.13000045  0.37816657  0.13182507  1
  O  O387  1  0.12285935  0.38064024  0.63605889  1
  O  O388  1  0.11994701  0.88708951  0.12358381  1
  O  O389  1  0.12779616  0.88161490  0.63140681  1
  O  O390  1  0.62941148  0.37930362  0.13382029  1
  O  O391  1  0.62490449  0.38408163  0.63294517  1
  O  O392  1  0.62249814  0.88230424  0.13066142  1
  O  O393  1  0.62299570  0.88165310  0.63340906  1
  O  O394  1  0.11868881  0.25329976  0.25494322  1
  O  O395  1  0.12479690  0.26342796  0.75241188  1
  O  O396  1  0.11409633  0.75099034  0.24852207  1
  O  O397  1  0.12126106  0.75393971  0.75561488  1
  O  O398  1  0.61708008  0.25923410  0.24835248  1
  O  O399  1  0.61888917  0.25843999  0.75616826  1
  O  O400  1  0.62933043  0.76597719  0.24864637  1
  O  O401  1  0.61997160  0.76229450  0.75716343  1
  O  O402  1  0.38847007  0.25770273  0.24777217  1
  O  O403  1  0.38318653  0.24874030  0.74878989  1
  O  O404  1  0.36646984  0.74066886  0.23983889  1
  O  O405  1  0.38212226  0.74495289  0.75223740  1
  O  O406  1  0.87939327  0.24301828  0.24410486  1
  O  O407  1  0.87234453  0.25646849  0.73403724  1
  O  O408  1  0.88589685  0.74746430  0.23964361  1
  O  O409  1  0.88172607  0.74628936  0.74518571  1
  O  O410  1  0.37959904  0.49325398  0.50091648  1
  O  O411  1  0.38068375  0.49613846  0.99617375  1
  O  O412  1  0.38784473  1.00154299  0.49780028  1
  O  O413  1  0.36635306  0.98861230  0.98932936  1
  O  O414  1  0.88169903  0.49319799  0.50017734  1
  O  O415  1  0.87784789  0.49031410  0.99414316  1
  O  O416  1  0.87998730  0.99421835  0.49203358  1
  O  O417  1  0.88196485  0.99043728  0.99174723  1
  O  O418  1  0.12248630  0.00294923  0.00694291  1
  O  O419  1  0.12012174  0.00303117  0.50310227  1
  O  O420  1  0.12259765  0.50193579  0.01012201  1
  O  O421  1  0.11923624  0.50403842  0.50642727  1
  O  O422  1  0.63219390  -0.00264872  0.01234426  1
  O  O423  1  0.61455656  0.00646189  0.50333138  1
  O  O424  1  0.61779880  0.49858647  0.00850922  1
  O  O425  1  0.61939279  0.50684284  0.50695742  1
  O  O426  1  0.36729413  0.37544850  0.11889378  1
  O  O427  1  0.37143296  0.37522911  0.61488629  1
  O  O428  1  0.38726293  0.86537247  0.11475001  1
  O  O429  1  0.37334591  0.87320826  0.61980592  1
  O  O430  1  0.86986940  0.36697711  0.12108709  1
  O  O431  1  0.87223390  0.36523227  0.61715666  1
  O  O432  1  0.87634725  0.86576277  0.11551705  1
  O  O433  1  0.87485192  0.86850848  0.61682504  1
  O  O434  1  0.13131916  0.12977902  0.38055312  1
  O  O435  1  0.13212972  0.12363873  0.88417905  1
  O  O436  1  0.13155866  0.62605108  0.38229496  1
  O  O437  1  0.13215616  0.63113528  0.87747363  1
  O  O438  1  0.63120665  0.12480471  0.37872754  1
  O  O439  1  0.62538497  0.13407652  0.88013361  1
  O  O440  1  0.63339071  0.62703030  0.37980064  1
  O  O441  1  0.62201801  0.64498493  0.87433700  1
