# generated using pymatgen
data_V93Zn93O256
_symmetry_space_group_name_H-M   'P 1'
_cell_length_a   17.04969110
_cell_length_b   17.05309722
_cell_length_c   17.04867183
_cell_angle_alpha   90.02108279
_cell_angle_beta   89.90387817
_cell_angle_gamma   90.02197298
_symmetry_Int_Tables_number   1
_chemical_formula_structural   V93Zn93O256
_chemical_formula_sum   'V93 Zn93 O256'
_cell_volume   4956.89433941
_cell_formula_units_Z   1
loop_
 _symmetry_equiv_pos_site_id
 _symmetry_equiv_pos_as_xyz
  1  'x, y, z'
loop_
 _atom_site_type_symbol
 _atom_site_label
 _atom_site_symmetry_multiplicity
 _atom_site_fract_x
 _atom_site_fract_y
 _atom_site_fract_z
 _atom_site_occupancy
  V  V0  1  0.87644904  0.49890950  0.37502732  1
  V  V1  1  0.25195569  0.49945320  0.24978518  1
  V  V2  1  0.00058988  0.37520879  0.37485735  1
  V  V3  1  0.12727737  0.37464713  0.24975428  1
  V  V4  1  0.87397393  0.62531448  0.75136733  1
  V  V5  1  0.62619042  0.87477799  0.25113215  1
  V  V6  1  0.62625858  0.37546100  0.24761656  1
  V  V7  1  0.49754283  0.87535692  0.87608889  1
  V  V8  1  0.87249120  0.24771413  0.62684464  1
  V  V9  1  0.37351956  0.24936609  0.62292887  1
  V  V10  1  0.75063322  0.49908544  0.24809792  1
  V  V11  1  0.74880670  0.50278156  0.74825533  1
  V  V12  1  0.24843361  0.12490050  0.37501417  1
  V  V13  1  -0.00110100  0.12471814  0.12960537  1
  V  V14  1  0.00082581  0.62545905  0.12616705  1
  V  V15  1  0.49952492  0.25009065  0.74728274  1
  V  V16  1  0.37443548  0.87447014  0.00032817  1
  V  V17  1  0.24693709  0.37514580  0.62795043  1
  V  V18  1  0.12473274  0.25058425  0.37439781  1
  V  V19  1  0.87566026  0.24881168  0.12837253  1
  V  V20  1  0.50012907  0.50052801  0.49855696  1
  V  V21  1  0.62614870  0.24911504  0.37282950  1
  V  V22  1  0.87547831  0.00444205  0.37536905  1
  V  V23  1  0.37507695  0.50021565  0.87425008  1
  V  V24  1  0.24853693  0.00354716  0.75669879  1
  V  V25  1  0.00026593  0.24826661  0.24936415  1
  V  V26  1  0.75149486  0.62452912  0.37447731  1
  V  V27  1  0.25004165  0.62547401  0.37549681  1
  V  V28  1  0.62110290  -0.00271210  0.62028409  1
  V  V29  1  0.37414682  0.37476840  0.49882651  1
  V  V30  1  0.87050254  0.00545118  0.87334701  1
  V  V31  1  0.12389460  0.74935721  0.87608923  1
  V  V32  1  0.12554437  0.62435195  0.00033718  1
  V  V33  1  0.37749742  0.62529738  0.24860163  1
  V  V34  1  0.49823925  0.74940126  0.74854115  1
  V  V35  1  0.12746685  0.49969512  0.12457865  1
  V  V36  1  0.37040316  0.12435331  0.75461029  1
  V  V37  1  0.25248787  0.75210780  0.50049546  1
  V  V38  1  0.12375467  0.87531996  0.75153023  1
  V  V39  1  0.62434969  0.62351436  0.49937383  1
  V  V40  1  0.25256962  0.37333021  0.12307674  1
  V  V41  1  0.37510740  0.49988266  0.37450304  1
  V  V42  1  0.24889102  -0.00049144  0.24987800  1
  V  V43  1  0.00072890  -0.00043423  0.00133735  1
  V  V44  1  0.49980532  0.75107495  0.25138288  1
  V  V45  1  0.87551897  0.37414976  0.49913586  1
  V  V46  1  0.62550228  0.74962586  0.37491011  1
  V  V47  1  0.38001385  -0.00266115  0.38297681  1
  V  V48  1  0.75014110  0.00612936  0.75411993  1
  V  V49  1  0.25057903  0.74990327  0.00090066  1
  V  V50  1  -0.00147408  0.87424235  0.87660075  1
  V  V51  1  0.24879851  0.25064853  0.49997227  1
  V  V52  1  0.12078150  0.12305907  0.50238147  1
  V  V53  1  0.74340246  0.62411012  0.87953447  1
  V  V54  1  0.24923244  0.62415845  0.87474493  1
  V  V55  1  0.50332784  0.12405165  0.12363976  1
  V  V56  1  0.12446970  0.75080922  0.37394033  1
  V  V57  1  0.75107828  0.75139374  0.50322131  1
  V  V58  1  0.62264714  0.12232202  0.49827845  1
  V  V59  1  0.50363955  0.37345192  0.87300278  1
  V  V60  1  0.87626781  0.37383199  0.00095318  1
  V  V61  1  0.00895119  0.37471764  0.87083072  1
  V  V62  1  0.62538747  0.87365268  0.75197967  1
  V  V63  1  0.37406353  0.62611623  0.74917644  1
  V  V64  1  0.00005689  0.62490170  0.62463282  1
  V  V65  1  0.74398286  0.74644871  0.00132335  1
  V  V66  1  0.25274320  0.24501344  -0.00779218  1
  V  V67  1  0.62637188  0.50589490  0.12040267  1
  V  V68  1  0.50573924  0.50647533  -0.00146561  1
  V  V69  1  0.24970117  0.87484428  0.12633632  1
  V  V70  1  0.75242285  0.12538776  0.37152469  1
  V  V71  1  0.24817387  0.49629988  0.74939174  1
  V  V72  1  0.87736736  0.62523265  0.24957849  1
  V  V73  1  -0.00725473  0.12470217  0.63121670  1
  V  V74  1  0.24790046  0.87540380  0.62557806  1
  V  V75  1  0.00300519  0.25222426  0.75113141  1
  V  V76  1  0.50124860  0.24956119  0.24717763  1
  V  V77  1  0.62434929  0.37571455  0.74665289  1
  V  V78  1  0.75198187  0.87365538  0.12702158  1
  V  V79  1  0.75343675  0.00347157  0.25045260  1
  V  V80  1  0.62396936  0.49975924  0.62272510  1
  V  V81  1  0.50026880  0.37436907  0.37308673  1
  V  V82  1  0.50168979  -0.00077395  0.00156344  1
  V  V83  1  0.49659348  0.11913960  0.61823922  1
  V  V84  1  0.87457362  0.87403517  0.00192389  1
  V  V85  1  -0.00128636  0.74951756  0.75111712  1
  V  V86  1  0.75023037  0.24994929  0.49903464  1
  V  V87  1  0.37556944  0.12565245  0.24995006  1
  V  V88  1  0.12386760  0.49437911  0.62900394  1
  V  V89  1  -0.00045095  0.87593425  0.37762357  1
  V  V90  1  0.37689770  0.37347163  -0.00080097  1
  V  V91  1  0.00189948  0.49936005  -0.00099889  1
  V  V92  1  0.12933685  0.12539277  -0.00713468  1
  Zn  Zn93  1  0.00090945  0.50008250  0.50014365  1
  Zn  Zn94  1  -0.00494076  -0.00016090  0.50469967  1
  Zn  Zn95  1  0.12478875  0.62347199  0.50037807  1
  Zn  Zn96  1  0.12310373  0.87595584  0.24949340  1
  Zn  Zn97  1  0.74870631  0.37307528  0.12056986  1
  Zn  Zn98  1  0.37683695  0.24949330  0.12238687  1
  Zn  Zn99  1  0.12476356  0.00150524  0.12508875  1
  Zn  Zn100  1  0.50305885  0.62916603  0.11901430  1
  Zn  Zn101  1  0.37408123  0.74965646  0.62405092  1
  Zn  Zn102  1  0.63941363  0.24195701  0.86995105  1
  Zn  Zn103  1  0.63375582  0.12464136  -0.01230690  1
  Zn  Zn104  1  0.75299980  0.87550417  0.62701407  1
  Zn  Zn105  1  0.37670207  0.74785532  0.12530630  1
  Zn  Zn106  1  -0.00144329  0.75159416  0.24953656  1
  Zn  Zn107  1  0.62875980  0.00088201  0.12463599  1
  Zn  Zn108  1  0.49688643  0.62473542  0.62336967  1
  Zn  Zn109  1  0.12014053  0.00084674  0.62795628  1
  Zn  Zn110  1  0.38396310  0.88191864  0.50863363  1
  Zn  Zn111  1  0.75400102  0.24057572  -0.00918118  1
  Zn  Zn112  1  0.87483127  0.87490137  0.50340757  1
  Zn  Zn113  1  0.87713766  0.74909439  0.12633567  1
  Zn  Zn114  1  0.87404093  0.75253340  0.62639926  1
  Zn  Zn115  1  0.37129517  0.00449142  0.87877229  1
  Zn  Zn116  1  0.75020160  0.37557089  0.62285316  1
  Zn  Zn117  1  0.13258360  0.24945164  0.86687165  1
  Zn  Zn118  1  0.62133082  0.74495091  0.88064517  1
  Zn  Zn119  1  0.50595208  0.88185910  0.38472994  1
  Zn  Zn120  1  0.87629106  0.50110542  0.87526939  1
  Zn  Zn121  1  0.81599603  0.17020797  0.81185019  1
  Zn  Zn122  1  0.18723840  0.18757352  0.18199048  1
  Zn  Zn123  1  0.18510785  0.18775162  0.68659472  1
  Zn  Zn124  1  0.18824659  0.68751060  0.18874476  1
  Zn  Zn125  1  0.18527297  0.68565534  0.68793810  1
  Zn  Zn126  1  0.69014056  0.18590432  0.18148715  1
  Zn  Zn127  1  0.68215966  0.18766947  0.68330191  1
  Zn  Zn128  1  0.68912055  0.68707402  0.18729267  1
  Zn  Zn129  1  0.68501251  0.68498925  0.68710772  1
  Zn  Zn130  1  0.31360101  0.31112235  0.31114847  1
  Zn  Zn131  1  0.31556832  0.31390390  0.81104090  1
  Zn  Zn132  1  0.31429118  0.81374461  0.31305873  1
  Zn  Zn133  1  0.31205711  0.81433121  0.81384422  1
  Zn  Zn134  1  0.81338851  0.31307041  0.30980649  1
  Zn  Zn135  1  0.81777943  0.32860858  0.81016736  1
  Zn  Zn136  1  0.81496277  0.81306261  0.31419507  1
  Zn  Zn137  1  0.81171234  0.81228519  0.81562179  1
  Zn  Zn138  1  0.18595188  0.43886018  0.44103701  1
  Zn  Zn139  1  0.18946444  0.43516857  0.93781702  1
  Zn  Zn140  1  0.18774366  0.93768706  0.43833750  1
  Zn  Zn141  1  0.18607533  0.93779880  0.93867687  1
  Zn  Zn142  1  0.68886945  0.43647964  0.43595395  1
  Zn  Zn143  1  0.68930550  0.43541887  0.93605771  1
  Zn  Zn144  1  0.68847218  0.93586348  0.43703820  1
  Zn  Zn145  1  0.68778030  0.93618179  0.93804891  1
  Zn  Zn146  1  0.31497953  0.06338756  0.06366607  1
  Zn  Zn147  1  0.30658437  0.06259781  0.56595547  1
  Zn  Zn148  1  0.31683661  0.56200131  0.06232939  1
  Zn  Zn149  1  0.31172123  0.56408209  0.56285959  1
  Zn  Zn150  1  0.81455962  0.06240480  0.06257903  1
  Zn  Zn151  1  0.80839142  0.06093426  0.56165333  1
  Zn  Zn152  1  0.81424769  0.56194903  0.06279708  1
  Zn  Zn153  1  0.81332791  0.56271845  0.56229649  1
  Zn  Zn154  1  0.43997739  0.43810355  0.18431614  1
  Zn  Zn155  1  0.43543311  0.43843518  0.68544834  1
  Zn  Zn156  1  0.43651621  0.93670410  0.18973156  1
  Zn  Zn157  1  0.43483744  0.93731909  0.68880877  1
  Zn  Zn158  1  0.94005983  0.43742492  0.18701462  1
  Zn  Zn159  1  0.93538600  0.43679902  0.68751585  1
  Zn  Zn160  1  0.93659982  0.93733858  0.18988423  1
  Zn  Zn161  1  0.93433705  0.93704689  0.68798363  1
  Zn  Zn162  1  0.06180665  0.06193573  0.31385090  1
  Zn  Zn163  1  0.05901065  0.06226166  0.81274418  1
  Zn  Zn164  1  0.06321744  0.56270757  0.31210172  1
  Zn  Zn165  1  0.06315518  0.56117764  0.81112221  1
  Zn  Zn166  1  0.56457526  0.06276569  0.30983719  1
  Zn  Zn167  1  0.55949482  0.06091610  0.81019013  1
  Zn  Zn168  1  0.56380366  0.56350464  0.31024543  1
  Zn  Zn169  1  0.56279825  0.56214633  0.81066036  1
  Zn  Zn170  1  0.43675214  0.18678119  0.43512144  1
  Zn  Zn171  1  0.44599621  0.18637440  0.93598851  1
  Zn  Zn172  1  0.43772997  0.68943775  0.43633595  1
  Zn  Zn173  1  0.43544625  0.68908386  0.93488999  1
  Zn  Zn174  1  0.93665253  0.18789018  0.43779277  1
  Zn  Zn175  1  0.94512321  0.18906062  0.94248710  1
  Zn  Zn176  1  0.93666391  0.68739378  0.43839289  1
  Zn  Zn177  1  0.93281095  0.68676753  0.93898718  1
  Zn  Zn178  1  0.06560836  0.31079220  0.05994251  1
  Zn  Zn179  1  0.06006294  0.31144380  0.56335434  1
  Zn  Zn180  1  0.06345448  0.81207288  0.06450690  1
  Zn  Zn181  1  0.06355000  0.81154206  0.56213923  1
  Zn  Zn182  1  0.56825784  0.31199826  0.05828253  1
  Zn  Zn183  1  0.56200205  0.31124477  0.56126122  1
  Zn  Zn184  1  0.56434511  0.81528849  0.06654182  1
  Zn  Zn185  1  0.56214842  0.81223245  0.56221133  1
  O  O186  1  0.11667501  0.12378743  0.11408160  1
  O  O187  1  0.11380124  0.12610681  0.61620236  1
  O  O188  1  0.12254452  0.61904927  0.11982053  1
  O  O189  1  0.11517666  0.61651142  0.62485526  1
  O  O190  1  0.61066172  0.12113304  0.12559142  1
  O  O191  1  0.61468155  0.11638696  0.61915276  1
  O  O192  1  0.62344824  0.61009428  0.12949615  1
  O  O193  1  0.62025180  0.61744094  0.61739456  1
  O  O194  1  0.38015656  0.37983030  0.37926479  1
  O  O195  1  0.38424704  0.38269212  0.87821968  1
  O  O196  1  0.37265949  0.89126226  0.37668290  1
  O  O197  1  0.38042221  0.87667582  0.88296710  1
  O  O198  1  0.88144474  0.37947472  0.37858016  1
  O  O199  1  0.88889975  0.37988079  0.88529241  1
  O  O200  1  0.88419495  0.88262858  0.37869214  1
  O  O201  1  0.88021148  0.88284333  0.88183461  1
  O  O202  1  0.25661378  0.00530953  0.36759610  1
  O  O203  1  0.25218927  -0.00638312  0.86111606  1
  O  O204  1  0.25513469  0.50424180  0.36984395  1
  O  O205  1  0.25484360  0.50426449  0.87043662  1
  O  O206  1  0.75646264  0.00428204  0.36913211  1
  O  O207  1  0.75854463  -0.00482295  0.86749788  1
  O  O208  1  0.75609075  0.50523436  0.36878354  1
  O  O209  1  0.75162760  0.50799579  0.86856726  1
  O  O210  1  0.24666041  0.49410248  0.12970031  1
  O  O211  1  0.24264490  0.49563350  0.62851099  1
  O  O212  1  0.25152764  0.99241796  0.13411720  1
  O  O213  1  0.24508520  0.99039016  0.63443807  1
  O  O214  1  0.74279358  0.49734040  0.12905106  1
  O  O215  1  0.74176780  0.50063779  0.62975682  1
  O  O216  1  0.75282240  0.99309536  0.13642121  1
  O  O217  1  0.73883348  0.99867411  0.63492808  1
  O  O218  1  0.00912142  0.37004130  0.25502464  1
  O  O219  1  -0.00724428  0.36542192  0.75957518  1
  O  O220  1  0.00292722  0.87420313  0.26352467  1
  O  O221  1  0.00478057  0.86962522  0.75659515  1
  O  O222  1  0.50546213  0.36990581  0.25447682  1
  O  O223  1  0.50291905  0.37199709  0.75458551  1
  O  O224  1  0.50543993  0.86600764  0.25350552  1
  O  O225  1  0.50490175  0.86855443  0.75470923  1
  O  O226  1  0.49616113  0.12948433  0.24248003  1
  O  O227  1  0.48979328  0.12923654  0.73491410  1
  O  O228  1  0.49562073  0.63516827  0.24974534  1
  O  O229  1  0.49385408  0.63452903  0.75149927  1
  O  O230  1  1.01093806  0.13190012  0.23794500  1
  O  O231  1  1.00180588  0.13239320  0.73840833  1
  O  O232  1  0.99524646  0.62513900  0.24382453  1
  O  O233  1  0.99525990  0.62979614  0.74365035  1
  O  O234  1  0.36969118  0.25414823  -0.00107872  1
  O  O235  1  0.36827257  0.25464924  0.50273669  1
  O  O236  1  0.36798524  0.75563485  0.00219100  1
  O  O237  1  0.36080091  0.75261659  0.49933865  1
  O  O238  1  0.87975074  0.25899861  0.00980519  1
  O  O239  1  0.86877163  0.25526307  0.50414165  1
  O  O240  1  0.86429975  0.75713848  0.00169706  1
  O  O241  1  0.86200784  0.74959383  0.50089436  1
  O  O242  1  0.12911786  0.24272254  0.49471477  1
  O  O243  1  0.13540851  0.24209678  0.99795452  1
  O  O244  1  0.13529458  0.74893548  0.49027592  1
  O  O245  1  0.13093295  0.74394431  0.99500017  1
  O  O246  1  0.62970237  0.24385636  0.49241343  1
  O  O247  1  0.63387638  0.25079388  0.99133819  1
  O  O248  1  0.63228521  0.74255731  0.49494734  1
  O  O249  1  0.63892309  0.75619230  0.99969045  1
  O  O250  1  0.50000258  0.24162274  0.12882716  1
  O  O251  1  0.49302443  0.24198596  0.62790229  1
  O  O252  1  0.50003925  0.74859735  0.13703876  1
  O  O253  1  0.49691702  0.74869604  0.63846117  1
  O  O254  1  0.99682450  0.24386003  0.12907821  1
  O  O255  1  0.99342623  0.24493583  0.63272327  1
  O  O256  1  0.99981790  0.74177269  0.12848946  1
  O  O257  1  1.00200479  0.73993604  0.63202676  1
  O  O258  1  0.00560494  0.25467352  0.36917968  1
  O  O259  1  0.00016489  0.25722738  0.86650318  1
  O  O260  1  0.00867466  0.75772638  0.37719511  1
  O  O261  1  0.00467251  0.75418685  0.87187555  1
  O  O262  1  0.50608577  0.25426917  0.36811547  1
  O  O263  1  0.49295631  0.26644398  0.86578671  1
  O  O264  1  0.50678177  0.75004406  0.36416664  1
  O  O265  1  0.50211278  0.75534597  0.86606744  1
  O  O266  1  0.24004155  0.13149708  0.49672347  1
  O  O267  1  0.24295045  0.13315062  1.00619842  1
  O  O268  1  0.24886510  0.63500514  0.49402103  1
  O  O269  1  0.24558973  0.62892238  0.99466027  1
  O  O270  1  0.74214200  0.13076285  0.49230964  1
  O  O271  1  0.74464366  0.12743583  1.00937889  1
  O  O272  1  0.74486221  0.63129439  0.49380152  1
  O  O273  1  0.75738644  0.63380594  0.99117547  1
  O  O274  1  0.25710598  0.36736099  0.00428024  1
  O  O275  1  0.25555831  0.36931873  0.50501807  1
  O  O276  1  0.25363721  0.87079835  0.00776520  1
  O  O277  1  0.24883875  0.86883000  0.51004304  1
  O  O278  1  0.76703564  0.37430189  -0.00088054  1
  O  O279  1  0.75665223  0.36733843  0.49910792  1
  O  O280  1  0.75519422  0.86828130  0.00630805  1
  O  O281  1  0.74786318  0.86140326  0.50210394  1
  O  O282  1  0.13293508  0.49440582  0.24475465  1
  O  O283  1  0.13259301  0.50499398  0.73770737  1
  O  O284  1  0.13901994  0.99943596  0.25068409  1
  O  O285  1  0.13191468  0.99439568  0.75076693  1
  O  O286  1  0.63002843  0.49482834  0.24225073  1
  O  O287  1  0.62837556  0.49558222  0.74191759  1
  O  O288  1  0.63616895  0.99254214  0.25133105  1
  O  O289  1  0.62918367  0.99172509  0.74302417  1
  O  O290  1  0.36484678  0.00476367  0.25891676  1
  O  O291  1  0.36576027  0.00825107  0.74978839  1
  O  O292  1  0.37124084  0.50372560  0.25550640  1
  O  O293  1  0.36956870  0.50644869  0.75512123  1
  O  O294  1  0.86393751  -0.00637709  0.26301284  1
  O  O295  1  0.86250469  -0.00596348  0.76076751  1
  O  O296  1  0.87077133  0.50411975  0.25499740  1
  O  O297  1  0.86685761  0.50694662  0.75053030  1
  O  O298  1  0.12183347  0.36975801  0.37005584  1
  O  O299  1  0.11256222  0.37124666  0.88098516  1
  O  O300  1  0.11829603  0.86801729  0.37515425  1
  O  O301  1  0.11850557  0.86845094  0.87175076  1
  O  O302  1  0.61947855  0.36907369  0.36845025  1
  O  O303  1  0.61482704  0.37697006  0.86549399  1
  O  O304  1  0.62491040  0.86804570  0.36821689  1
  O  O305  1  0.61743622  0.87468464  0.86445240  1
  O  O306  1  0.38609862  0.12580513  0.13242147  1
  O  O307  1  0.37977608  0.12913156  0.62891721  1
  O  O308  1  0.37967996  0.62711931  0.13304472  1
  O  O309  1  0.37653777  0.62872371  0.63315457  1
  O  O310  1  0.89065722  0.13557967  0.11883935  1
  O  O311  1  0.88554663  0.13128989  0.61536197  1
  O  O312  1  0.88341350  0.62419296  0.13175903  1
  O  O313  1  0.88525735  0.62611086  0.63173269  1
  O  O314  1  0.25371648  0.25605054  0.11377109  1
  O  O315  1  0.25361970  0.25483056  0.61911638  1
  O  O316  1  0.25028508  0.75902972  0.12016524  1
  O  O317  1  0.24663172  0.75817363  0.61793874  1
  O  O318  1  0.76598778  0.25365982  0.12760392  1
  O  O319  1  0.75471431  0.24916983  0.61713032  1
  O  O320  1  0.75272300  0.75425425  0.11780017  1
  O  O321  1  0.74897055  0.74893460  0.61458028  1
  O  O322  1  0.24459882  0.24456307  0.37985785  1
  O  O323  1  0.25015502  0.25671328  0.88694900  1
  O  O324  1  0.24357360  0.74762359  0.38143362  1
  O  O325  1  0.24365694  0.74468132  0.88058516  1
  O  O326  1  0.74555116  0.24466493  0.37740514  1
  O  O327  1  0.75742580  0.25017785  0.86936392  1
  O  O328  1  0.74507524  0.74400804  0.38249660  1
  O  O329  1  0.74747602  0.74237522  0.88386102  1
  O  O330  1  0.00978604  0.11946434  0.01025729  1
  O  O331  1  0.00813212  0.12694375  0.50853054  1
  O  O332  1  0.00631990  0.61988394  0.00451697  1
  O  O333  1  0.00072958  0.62418374  0.51299270  1
  O  O334  1  0.49483089  0.11382990  0.01084483  1
  O  O335  1  0.50455226  0.13059783  0.51124035  1
  O  O336  1  0.49619295  0.61061164  -0.00377397  1
  O  O337  1  0.50582928  0.61864740  0.49860807  1
  O  O338  1  0.49395553  0.37916346  0.49225964  1
  O  O339  1  0.49641138  0.38293084  0.99005812  1
  O  O340  1  0.49478119  0.86894664  0.49599302  1
  O  O341  1  0.49447264  0.88051724  0.99803388  1
  O  O342  1  0.99334339  0.37441464  0.49184839  1
  O  O343  1  0.99551370  0.37888133  0.99333511  1
  O  O344  1  1.00102176  0.87806181  0.48944397  1
  O  O345  1  0.99607522  0.87950783  0.99639293  1
  O  O346  1  0.49498816  0.49399873  0.37845682  1
  O  O347  1  0.49656503  0.49242697  0.87922179  1
  O  O348  1  0.48320240  1.00283203  0.36879024  1
  O  O349  1  0.49542214  0.99214508  0.88494078  1
  O  O350  1  0.99512816  0.49319616  0.37586009  1
  O  O351  1  1.00110766  0.49237060  0.88013114  1
  O  O352  1  0.99223513  0.99443281  0.37680883  1
  O  O353  1  0.99181549  0.99244138  0.88006654  1
  O  O354  1  0.00031593  0.00784441  0.12145232  1
  O  O355  1  0.00018946  0.00972981  0.62429822  1
  O  O356  1  0.00928233  0.50502228  0.11967711  1
  O  O357  1  0.00729611  0.50743881  0.62674925  1
  O  O358  1  0.49974848  0.00567391  0.11897524  1
  O  O359  1  0.50877265  0.00806349  0.63111472  1
  O  O360  1  0.50850167  0.50112634  0.11472179  1
  O  O361  1  0.50476653  0.50058639  0.61581455  1
  O  O362  1  0.24649225  0.37958893  0.24457317  1
  O  O363  1  0.25839944  0.38339104  0.74045552  1
  O  O364  1  0.25066844  0.88260457  0.24289055  1
  O  O365  1  0.24390647  0.88071816  0.74366256  1
  O  O366  1  0.74381020  0.38259832  0.24836334  1
  O  O367  1  0.74264606  0.38531737  0.74527473  1
  O  O368  1  0.74593100  0.88162404  0.24754092  1
  O  O369  1  0.73855057  0.88154560  0.75133179  1
  O  O370  1  0.25374815  0.11861060  0.25368249  1
  O  O371  1  0.25836848  0.11563481  0.74036305  1
  O  O372  1  0.25638719  0.61900930  0.25555139  1
  O  O373  1  0.25412014  0.61931471  0.75633967  1
  O  O374  1  0.74381056  0.11176754  0.25517899  1
  O  O375  1  0.74239775  0.11142947  0.74740217  1
  O  O376  1  0.75644403  0.61863779  0.25549074  1
  O  O377  1  0.75409784  0.62207483  0.75796948  1
  O  O378  1  0.36818017  0.11660944  0.37042848  1
  O  O379  1  0.38336818  0.12492882  0.85756235  1
  O  O380  1  0.36943522  0.61899365  0.36915828  1
  O  O381  1  0.36772965  0.61917715  0.86947994  1
  O  O382  1  0.86885080  0.11423055  0.37970083  1
  O  O383  1  0.88416998  0.10993959  0.88031925  1
  O  O384  1  0.87109330  0.61829497  0.36996864  1
  O  O385  1  0.86503988  0.62229281  0.86906344  1
  O  O386  1  0.13177089  0.38029810  0.12964778  1
  O  O387  1  0.13050566  0.38550572  0.61823177  1
  O  O388  1  0.13714155  0.87847387  0.12741566  1
  O  O389  1  0.13214531  0.87624178  0.63229747  1
  O  O390  1  0.62661364  0.38500653  0.13089021  1
  O  O391  1  0.62539698  0.38143921  0.62859843  1
  O  O392  1  0.63414782  0.87828585  0.13427655  1
  O  O393  1  0.62397564  0.88236713  0.63569556  1
  O  O394  1  0.12235798  0.25572259  0.25500006  1
  O  O395  1  0.11003289  0.24627636  0.75053519  1
  O  O396  1  0.12526698  0.75218348  0.26374488  1
  O  O397  1  0.11938728  0.75458453  0.75764090  1
  O  O398  1  0.62124636  0.25464622  0.25346693  1
  O  O399  1  0.61624362  0.25789381  0.74775299  1
  O  O400  1  0.61923783  0.75371090  0.25527919  1
  O  O401  1  0.61597935  0.75873168  0.75038076  1
  O  O402  1  0.38290367  0.24324176  0.24894631  1
  O  O403  1  0.37811801  0.24259891  0.74144215  1
  O  O404  1  0.38417626  0.74508925  0.25129347  1
  O  O405  1  0.38309875  0.74535308  0.75140271  1
  O  O406  1  0.88603466  0.25811004  0.23836086  1
  O  O407  1  0.88231122  0.24772072  0.74483436  1
  O  O408  1  0.87725608  0.74060615  0.24944455  1
  O  O409  1  0.88152884  0.74381397  0.75056092  1
  O  O410  1  0.37923695  0.49470656  0.49375687  1
  O  O411  1  0.38388678  0.49364363  0.99355597  1
  O  O412  1  0.36632850  1.00287854  0.48579198  1
  O  O413  1  0.38361378  0.99363675  0.99953900  1
  O  O414  1  0.87661646  0.49311673  0.49283785  1
  O  O415  1  0.88472450  0.49044400  1.00152596  1
  O  O416  1  0.87304478  0.99609056  0.48808978  1
  O  O417  1  0.88093393  0.99291452  0.99314769  1
  O  O418  1  0.11966709  0.00774826  0.00159962  1
  O  O419  1  0.12407864  0.01391107  0.50103630  1
  O  O420  1  0.12248175  0.50548768  0.00543989  1
  O  O421  1  0.12233873  0.50431835  0.51204394  1
  O  O422  1  0.61095755  -0.00281609  0.00283133  1
  O  O423  1  0.63253092  0.00512914  0.51248457  1
  O  O424  1  0.61670343  0.49151701  0.00817310  1
  O  O425  1  0.61954724  0.50392718  0.50174140  1
  O  O426  1  0.37060738  0.37381402  0.11736644  1
  O  O427  1  0.36908507  0.36919897  0.61720975  1
  O  O428  1  0.36387008  0.87318082  0.12067642  1
  O  O429  1  0.36078221  0.87247880  0.62643534  1
  O  O430  1  0.87996304  0.36689313  0.11584926  1
  O  O431  1  0.87318031  0.36664230  0.61769595  1
  O  O432  1  0.86977338  0.87297148  0.11974789  1
  O  O433  1  0.87087018  0.87029463  0.62102963  1
  O  O434  1  0.12813876  0.13112310  0.38285238  1
  O  O435  1  0.11658522  0.12821071  0.88926221  1
  O  O436  1  0.13091608  0.63394548  0.37645353  1
  O  O437  1  0.13016602  0.62961541  0.88065401  1
  O  O438  1  0.63024709  0.12994193  0.37894628  1
  O  O439  1  0.59864572  0.13583146  0.87945159  1
  O  O440  1  0.63221763  0.62916607  0.37935917  1
  O  O441  1  0.63881549  0.62588728  0.87041758  1
