# generated using pymatgen
data_V93Zn93O256
_symmetry_space_group_name_H-M   'P 1'
_cell_length_a   17.04626479
_cell_length_b   17.04430601
_cell_length_c   17.04689331
_cell_angle_alpha   90.01969837
_cell_angle_beta   89.94609929
_cell_angle_gamma   89.99203978
_symmetry_Int_Tables_number   1
_chemical_formula_structural   V93Zn93O256
_chemical_formula_sum   'V93 Zn93 O256'
_cell_volume   4952.83174000
_cell_formula_units_Z   1
loop_
 _symmetry_equiv_pos_site_id
 _symmetry_equiv_pos_as_xyz
  1  'x, y, z'
loop_
 _atom_site_type_symbol
 _atom_site_label
 _atom_site_symmetry_multiplicity
 _atom_site_fract_x
 _atom_site_fract_y
 _atom_site_fract_z
 _atom_site_occupancy
  V  V0  1  -0.00076212  0.62404773  0.62812312  1
  V  V1  1  0.12464173  0.75502388  0.37147526  1
  V  V2  1  0.38084280  0.37494224  0.49709211  1
  V  V3  1  0.37215944  0.25607114  0.62583868  1
  V  V4  1  0.00711520  -0.00141502  0.50524427  1
  V  V5  1  0.25137638  0.12488877  0.37655310  1
  V  V6  1  0.12499453  0.87800158  0.74821380  1
  V  V7  1  0.37532477  0.62396019  0.74914546  1
  V  V8  1  0.24588560  -0.00011186  0.74855282  1
  V  V9  1  0.50018509  0.25770318  0.25493849  1
  V  V10  1  0.75110834  0.00276970  0.25339071  1
  V  V11  1  0.12333761  0.37450982  0.25105668  1
  V  V12  1  0.00377405  0.75636773  0.25113232  1
  V  V13  1  0.87532832  0.75117036  0.12417879  1
  V  V14  1  0.24329223  0.87611752  0.13237455  1
  V  V15  1  0.62394228  0.12506539  0.00111470  1
  V  V16  1  0.12430271  0.75053657  0.87513705  1
  V  V17  1  0.24826729  0.75097712  -0.00019795  1
  V  V18  1  0.25012933  0.49980292  0.24921710  1
  V  V19  1  0.24801077  0.12534643  0.87674655  1
  V  V20  1  0.12525973  0.49989478  0.12433675  1
  V  V21  1  0.49977489  0.50181531  -0.00116178  1
  V  V22  1  0.87424603  0.00003517  0.87609914  1
  V  V23  1  0.87508301  0.62239511  0.25056185  1
  V  V24  1  0.50044492  0.62634293  0.12286867  1
  V  V25  1  0.87537279  0.12415104  0.75068281  1
  V  V26  1  0.25035483  0.24992599  0.00045260  1
  V  V27  1  0.25057821  0.62416754  0.37511765  1
  V  V28  1  0.12047127  0.00430663  0.13482751  1
  V  V29  1  0.62448514  0.00035603  0.62572244  1
  V  V30  1  0.87432286  0.87548934  0.00061311  1
  V  V31  1  0.50114261  -0.00047592  0.50134021  1
  V  V32  1  0.37409199  0.37541948  0.00029675  1
  V  V33  1  0.74989794  0.87471613  0.12478610  1
  V  V34  1  0.37432749  0.87413248  0.50098137  1
  V  V35  1  0.62513602  0.75037504  0.87447276  1
  V  V36  1  -0.00014876  0.50039800  -0.00222081  1
  V  V37  1  0.50097277  0.37440379  0.87471065  1
  V  V38  1  0.62411533  0.25678011  0.37822457  1
  V  V39  1  0.37420927  0.12480003  0.25151563  1
  V  V40  1  -0.00032119  0.87551118  0.87489708  1
  V  V41  1  0.88146476  0.24619105  0.12416505  1
  V  V42  1  -0.00063596  0.37571715  0.87402141  1
  V  V43  1  0.37355916  0.12643431  0.75026217  1
  V  V44  1  0.00012523  0.62563632  0.12446573  1
  V  V45  1  0.49999185  0.62319834  0.62176918  1
  V  V46  1  0.74898436  0.12610934  0.87522186  1
  V  V47  1  0.62395784  0.87613749  0.74994966  1
  V  V48  1  0.87599925  0.24905397  0.62379118  1
  V  V49  1  0.12751864  0.37436054  0.74669027  1
  V  V50  1  0.37410905  0.25014974  0.12586788  1
  V  V51  1  0.62467027  0.87585937  0.24978670  1
  V  V52  1  0.12779345  0.49623895  0.62280737  1
  V  V53  1  0.62746580  0.62604874  -0.00259832  1
  V  V54  1  0.75182510  0.62269593  0.37387508  1
  V  V55  1  0.25015184  0.74954549  0.50055303  1
  V  V56  1  0.25017212  0.49805482  0.74683831  1
  V  V57  1  0.00134419  0.00745329  0.00263808  1
  V  V58  1  -0.00169514  0.74951465  0.74960188  1
  V  V59  1  0.49776952  0.87671425  0.87482462  1
  V  V60  1  0.74972138  0.25071531  0.00031166  1
  V  V61  1  0.12483393  0.25070296  0.87640424  1
  V  V62  1  0.62358265  0.00139316  0.12595142  1
  V  V63  1  0.74790783  0.37584723  0.12651528  1
  V  V64  1  0.24533464  0.87946813  0.62517103  1
  V  V65  1  0.87466106  0.74500961  0.62888182  1
  V  V66  1  0.62529607  0.49851730  0.62429319  1
  V  V67  1  0.12533088  0.62610806  -0.00114658  1
  V  V68  1  0.49936378  0.74961738  0.74878862  1
  V  V69  1  0.75124438  0.74979956  0.49924621  1
  V  V70  1  0.38243592  0.49501214  0.37442456  1
  V  V71  1  0.00625545  0.11968430  0.62694118  1
  V  V72  1  0.74859472  -0.00054192  0.75029158  1
  V  V73  1  0.37534895  0.00080091  0.37525999  1
  V  V74  1  0.49950916  0.87496091  0.37571560  1
  V  V75  1  0.88191876  0.12482299  0.24722630  1
  V  V76  1  0.37344494  0.75160258  0.12512128  1
  V  V77  1  0.62563799  0.74943933  0.37486938  1
  V  V78  1  0.37308349  0.00064678  0.87613771  1
  V  V79  1  0.25014277  0.25478694  0.50380830  1
  V  V80  1  0.12260610  0.24918812  0.37672927  1
  V  V81  1  0.49906659  0.12473954  0.62496654  1
  V  V82  1  0.37358569  0.87629950  0.00014388  1
  V  V83  1  0.75228392  0.37265389  0.62396694  1
  V  V84  1  0.37556691  0.62428486  0.24972749  1
  V  V85  1  0.12620597  0.62295454  0.49982096  1
  V  V86  1  0.87737628  0.87497075  0.49787207  1
  V  V87  1  0.49969335  0.75052135  0.24984904  1
  V  V88  1  0.87566778  0.50651251  0.86976341  1
  V  V89  1  0.49972146  0.12568028  0.12607609  1
  V  V90  1  0.75519978  0.50690007  0.74858961  1
  V  V91  1  0.37480636  0.50055574  0.87373892  1
  V  V92  1  0.62408600  0.25117549  0.87428002  1
  Zn  Zn93  1  0.62624943  0.49976027  0.12509211  1
  Zn  Zn94  1  0.12945527  0.12035075  0.50616032  1
  Zn  Zn95  1  0.62224358  0.38074304  0.25386037  1
  Zn  Zn96  1  0.75533286  0.62928061  0.86975503  1
  Zn  Zn97  1  0.00091129  0.24816109  0.75106757  1
  Zn  Zn98  1  0.50523883  0.49578306  0.49346387  1
  Zn  Zn99  1  0.74837073  0.49803937  0.24894251  1
  Zn  Zn100  1  0.24927090  0.37460427  0.12370290  1
  Zn  Zn101  1  0.24458650  -0.00364830  0.25536342  1
  Zn  Zn102  1  0.62419961  0.37379813  0.75048223  1
  Zn  Zn103  1  0.74988027  0.87431402  0.62517098  1
  Zn  Zn104  1  0.75140895  0.24676950  0.49780008  1
  Zn  Zn105  1  0.50073346  0.25173994  0.74909054  1
  Zn  Zn106  1  0.75113595  0.75031142  -0.00217915  1
  Zn  Zn107  1  -0.00306653  0.37633004  0.37700666  1
  Zn  Zn108  1  0.62799566  0.12309356  0.49868526  1
  Zn  Zn109  1  0.00299931  0.24518673  0.24578613  1
  Zn  Zn110  1  0.24983097  0.62687516  0.87359097  1
  Zn  Zn111  1  0.00437916  0.87925570  0.37266505  1
  Zn  Zn112  1  0.49794818  0.00104722  0.00130861  1
  Zn  Zn113  1  0.37372332  0.74920306  0.62497993  1
  Zn  Zn114  1  0.87419311  0.37581095  -0.00073405  1
  Zn  Zn115  1  -0.00141139  0.49659931  0.49720517  1
  Zn  Zn116  1  0.75002663  0.12516597  0.37916817  1
  Zn  Zn117  1  0.87736754  0.00417716  0.37725993  1
  Zn  Zn118  1  0.62527027  0.62416975  0.49783334  1
  Zn  Zn119  1  0.87866542  0.37478090  0.49570373  1
  Zn  Zn120  1  0.87797097  0.49453328  0.37714745  1
  Zn  Zn121  1  0.12107633  0.12866084  0.00520208  1
  Zn  Zn122  1  0.18933249  0.18561566  0.18885280  1
  Zn  Zn123  1  0.18921598  0.18834391  0.68928860  1
  Zn  Zn124  1  0.18739628  0.68682455  0.18768137  1
  Zn  Zn125  1  0.18700988  0.68811289  0.68706771  1
  Zn  Zn126  1  0.68840836  0.18954603  0.18978135  1
  Zn  Zn127  1  0.68614366  0.18665068  0.68842832  1
  Zn  Zn128  1  0.68803095  0.68826000  0.18577236  1
  Zn  Zn129  1  0.68606303  0.68778895  0.68600577  1
  Zn  Zn130  1  0.31001175  0.31283995  0.31347945  1
  Zn  Zn131  1  0.31157194  0.31376818  0.81347371  1
  Zn  Zn132  1  0.31237736  0.81187123  0.31343537  1
  Zn  Zn133  1  0.31252043  0.81162110  0.81151604  1
  Zn  Zn134  1  0.81170287  0.31042972  0.31052069  1
  Zn  Zn135  1  0.81263035  0.31568898  0.80994740  1
  Zn  Zn136  1  0.81420161  0.81162212  0.31215379  1
  Zn  Zn137  1  0.81112575  0.81316339  0.81237668  1
  Zn  Zn138  1  0.19221155  0.43514446  0.43679579  1
  Zn  Zn139  1  0.18847952  0.43768814  0.93474156  1
  Zn  Zn140  1  0.18811451  0.93703709  0.43883995  1
  Zn  Zn141  1  0.18558575  0.93830448  0.94046707  1
  Zn  Zn142  1  0.69189204  0.43623357  0.43900872  1
  Zn  Zn143  1  0.68895088  0.43811686  0.93756695  1
  Zn  Zn144  1  0.68813215  0.93541318  0.43887184  1
  Zn  Zn145  1  0.68599281  0.93805872  0.93860170  1
  Zn  Zn146  1  0.30883237  0.06263604  0.06420908  1
  Zn  Zn147  1  0.31371887  0.06381604  0.56299296  1
  Zn  Zn148  1  0.31141788  0.56348657  0.06194816  1
  Zn  Zn149  1  0.31254135  0.56008584  0.56165999  1
  Zn  Zn150  1  0.81139508  0.06350807  0.06419576  1
  Zn  Zn151  1  0.81282359  0.06262947  0.56294266  1
  Zn  Zn152  1  0.81345498  0.56130327  0.05979623  1
  Zn  Zn153  1  0.81464947  0.56103430  0.55895377  1
  Zn  Zn154  1  0.43777286  0.43856666  0.18407713  1
  Zn  Zn155  1  0.43838828  0.43535034  0.68720838  1
  Zn  Zn156  1  0.43530179  0.93859707  0.18819913  1
  Zn  Zn157  1  0.43376218  0.93793757  0.68755071  1
  Zn  Zn158  1  0.93742351  0.43445672  0.18602023  1
  Zn  Zn159  1  0.93960639  0.43681467  0.68735370  1
  Zn  Zn160  1  0.93671044  0.93891483  0.18646239  1
  Zn  Zn161  1  0.93598742  0.93532046  0.68648973  1
  Zn  Zn162  1  0.06057857  0.06342293  0.31899062  1
  Zn  Zn163  1  0.06341531  0.06226102  0.81381956  1
  Zn  Zn164  1  0.06171585  0.56336353  0.31322859  1
  Zn  Zn165  1  0.06264362  0.56372348  0.81116766  1
  Zn  Zn166  1  0.56267354  0.06798521  0.31467613  1
  Zn  Zn167  1  0.55971628  0.06422557  0.81209607  1
  Zn  Zn168  1  0.56542088  0.56296157  0.30830484  1
  Zn  Zn169  1  0.56428137  0.56121852  0.81061370  1
  Zn  Zn170  1  0.44050785  0.18705123  0.43854587  1
  Zn  Zn171  1  0.43740154  0.18801876  0.93812878  1
  Zn  Zn172  1  0.43675144  0.68586331  0.43763602  1
  Zn  Zn173  1  0.43698646  0.68871640  0.93577004  1
  Zn  Zn174  1  0.93706066  0.18317601  0.43791362  1
  Zn  Zn175  1  0.93611166  0.18974623  0.93710918  1
  Zn  Zn176  1  0.93983384  0.68567914  0.43951457  1
  Zn  Zn177  1  0.93836303  0.68795541  0.93787780  1
  Zn  Zn178  1  0.06268349  0.31549521  0.06081404  1
  Zn  Zn179  1  0.05957683  0.31053418  0.56202451  1
  Zn  Zn180  1  0.06196867  0.81683267  0.06299115  1
  Zn  Zn181  1  0.06377647  0.81072634  0.56147338  1
  Zn  Zn182  1  0.56200914  0.31244482  0.06299219  1
  Zn  Zn183  1  0.56058095  0.31237368  0.56227969  1
  Zn  Zn184  1  0.56169623  0.81326481  0.06110530  1
  Zn  Zn185  1  0.56395593  0.81201088  0.56258559  1
  O  O186  1  0.13039385  0.10882561  0.12316503  1
  O  O187  1  0.11053945  0.13276718  0.62548071  1
  O  O188  1  0.11945284  0.61964229  0.11924225  1
  O  O189  1  0.11935041  0.61706208  0.61995065  1
  O  O190  1  0.62021486  0.12130843  0.12105702  1
  O  O191  1  0.61657552  0.11831964  0.62494922  1
  O  O192  1  0.61901355  0.62753757  0.11365938  1
  O  O193  1  0.61667201  0.61595600  0.62290060  1
  O  O194  1  0.36946987  0.38552524  0.38198399  1
  O  O195  1  0.38012304  0.38102303  0.88077090  1
  O  O196  1  0.37994115  0.87999616  0.38061925  1
  O  O197  1  0.37817989  0.88050709  0.87992415  1
  O  O198  1  0.87735353  0.37473975  0.37544381  1
  O  O199  1  0.88155138  0.38506338  0.87514746  1
  O  O200  1  0.87872847  0.87206541  0.38872281  1
  O  O201  1  0.87983493  0.88091132  0.88035990  1
  O  O202  1  0.25572608  0.00537279  0.37538859  1
  O  O203  1  0.25445277  0.00479416  0.87075175  1
  O  O204  1  0.25867697  0.50566042  0.36853991  1
  O  O205  1  0.25546198  0.50361423  0.86402753  1
  O  O206  1  0.75205515  -0.00287063  0.36227338  1
  O  O207  1  0.75465010  0.00614492  0.87100942  1
  O  O208  1  0.75174578  0.51290730  0.37254494  1
  O  O209  1  0.75825009  0.50023647  0.86559724  1
  O  O210  1  0.24351425  0.49949561  0.13122795  1
  O  O211  1  0.23954213  0.50495317  0.63548710  1
  O  O212  1  0.23822380  0.99310196  0.12767901  1
  O  O213  1  0.25593069  0.98814629  0.63097672  1
  O  O214  1  0.75048388  0.48901379  0.12368872  1
  O  O215  1  0.74486926  0.49420589  0.62957661  1
  O  O216  1  0.74411647  0.99450889  0.13439875  1
  O  O217  1  0.74354012  0.99834784  0.63346074  1
  O  O218  1  0.01447099  0.37234865  0.25137745  1
  O  O219  1  0.01204953  0.37415550  0.75572915  1
  O  O220  1  -0.00915014  0.85975057  0.25293325  1
  O  O221  1  0.00499428  0.87045232  0.75523600  1
  O  O222  1  0.50069571  0.36135394  0.24337966  1
  O  O223  1  0.50221262  0.37286039  0.75906946  1
  O  O224  1  0.50412510  0.86977810  0.25572980  1
  O  O225  1  0.50348696  0.87020408  0.75487606  1
  O  O226  1  0.49340201  0.13489705  0.24502171  1
  O  O227  1  0.49036094  0.12753672  0.74378181  1
  O  O228  1  0.49473299  0.63192342  0.24316288  1
  O  O229  1  0.49607907  0.62837848  0.74049544  1
  O  O230  1  0.98644751  0.12405032  0.25278758  1
  O  O231  1  0.99391958  0.12361074  0.74369111  1
  O  O232  1  0.99255822  0.63402286  0.24394250  1
  O  O233  1  1.00763166  0.63282272  0.73589581  1
  O  O234  1  0.37014918  0.25587251  0.00578156  1
  O  O235  1  0.37001595  0.25581612  0.50487916  1
  O  O236  1  0.36884338  0.75539230  0.00564122  1
  O  O237  1  0.36786451  0.75618829  0.49965659  1
  O  O238  1  0.86779579  0.25043103  0.00737114  1
  O  O239  1  0.87430369  0.24844661  0.51463081  1
  O  O240  1  0.87540666  0.75710062  0.00636849  1
  O  O241  1  0.87248172  0.75601298  0.50822006  1
  O  O242  1  0.13511568  0.24988050  0.49377754  1
  O  O243  1  0.13079276  0.24905617  0.99494944  1
  O  O244  1  0.13067115  0.74258688  0.49177402  1
  O  O245  1  0.12787783  0.74618676  0.99525426  1
  O  O246  1  0.62208053  0.24925159  0.48711054  1
  O  O247  1  0.63015217  0.24364612  0.99448404  1
  O  O248  1  0.63240690  0.74913744  0.49260039  1
  O  O249  1  0.62442868  0.74210342  0.99336876  1
  O  O250  1  0.49406824  0.24428909  0.13277944  1
  O  O251  1  0.48888743  0.24399097  0.62548473  1
  O  O252  1  0.49316983  0.74687696  0.13042993  1
  O  O253  1  0.50003415  0.73911491  0.62973949  1
  O  O254  1  0.98583417  0.25651869  0.12417139  1
  O  O255  1  0.99101526  0.24045104  0.62887098  1
  O  O256  1  0.99673476  0.74624258  0.13198231  1
  O  O257  1  0.99450487  0.74304655  0.62877281  1
  O  O258  1  0.01513272  0.24754778  0.37472432  1
  O  O259  1  0.00595636  0.25647907  0.87296466  1
  O  O260  1  0.00902960  0.74797640  0.36817501  1
  O  O261  1  0.00335161  0.75617761  0.86951203  1
  O  O262  1  0.51116693  0.24493673  0.36617289  1
  O  O263  1  0.50573398  0.25662112  0.87514767  1
  O  O264  1  0.50465643  0.75462837  0.36960269  1
  O  O265  1  0.50441330  0.75690873  0.86799844  1
  O  O266  1  0.25019921  0.13455678  0.49514627  1
  O  O267  1  0.24870397  0.13265831  0.99339197  1
  O  O268  1  0.24634280  0.62983144  0.49505417  1
  O  O269  1  0.24312204  0.63293456  0.99839058  1
  O  O270  1  0.74650627  0.12855054  0.49856548  1
  O  O271  1  0.74383195  0.12988615  0.99434409  1
  O  O272  1  0.75027982  0.63166727  0.48900599  1
  O  O273  1  0.73830852  0.62675634  0.99717111  1
  O  O274  1  0.25625429  0.36889295  -0.00031342  1
  O  O275  1  0.26149914  0.36179354  0.49690900  1
  O  O276  1  0.25438016  0.86983688  0.00931203  1
  O  O277  1  0.25418478  0.87034149  0.50760522  1
  O  O278  1  0.75149386  0.36834244  0.00785101  1
  O  O279  1  0.75315447  0.37045383  0.51489121  1
  O  O280  1  0.75613777  0.87515292  0.00673737  1
  O  O281  1  0.76000001  0.86820941  0.50184944  1
  O  O282  1  0.13038717  0.49392328  0.24497507  1
  O  O283  1  0.13176721  0.49440326  0.74353644  1
  O  O284  1  0.12173857  1.00244691  0.23825092  1
  O  O285  1  0.13329808  0.99041450  0.75772273  1
  O  O286  1  0.62891507  0.49725733  0.24325574  1
  O  O287  1  0.63366951  0.49743295  0.73866859  1
  O  O288  1  0.63169959  0.99563375  0.24605764  1
  O  O289  1  0.62867826  0.99564259  0.74606468  1
  O  O290  1  0.37412148  0.00727433  0.25852786  1
  O  O291  1  0.36659196  0.00606997  0.75653207  1
  O  O292  1  0.37126127  0.50404901  0.25582428  1
  O  O293  1  0.36701740  0.50263315  0.75241728  1
  O  O294  1  0.86696210  0.00635583  0.24888294  1
  O  O295  1  0.86930655  0.00324912  0.75678897  1
  O  O296  1  0.87536932  0.51486596  0.24858419  1
  O  O297  1  0.86714088  0.49555568  0.75721846  1
  O  O298  1  0.12925235  0.36494256  0.36642455  1
  O  O299  1  0.11952833  0.37139346  0.86618600  1
  O  O300  1  0.12515545  0.85878700  0.37953676  1
  O  O301  1  0.11875385  0.86919882  0.87071149  1
  O  O302  1  0.62906458  0.36187927  0.37437849  1
  O  O303  1  0.61889849  0.36932513  0.87569889  1
  O  O304  1  0.61909349  0.86939084  0.36889708  1
  O  O305  1  0.61809531  0.87125235  0.87001547  1
  O  O306  1  0.37891131  0.13041822  0.13119644  1
  O  O307  1  0.37960111  0.13349816  0.63040517  1
  O  O308  1  0.37975912  0.63187571  0.12970330  1
  O  O309  1  0.38501975  0.62308791  0.62976267  1
  O  O310  1  0.86722313  0.13540451  0.13401493  1
  O  O311  1  0.88253464  0.13141003  0.63194695  1
  O  O312  1  0.87996659  0.63082369  0.13082540  1
  O  O313  1  0.88597227  0.63564699  0.61814008  1
  O  O314  1  0.25665292  0.25058186  0.11917355  1
  O  O315  1  0.26074015  0.24260226  0.61491395  1
  O  O316  1  0.25320445  0.75710115  0.12081285  1
  O  O317  1  0.25203989  0.75815624  0.61899699  1
  O  O318  1  0.75674993  0.25698587  0.11999917  1
  O  O319  1  0.75769162  0.25746695  0.62802050  1
  O  O320  1  0.75732968  0.75758805  0.12360602  1
  O  O321  1  0.75900200  0.74851958  0.61934375  1
  O  O322  1  0.24340058  0.24452498  0.38372996  1
  O  O323  1  0.24476128  0.24560910  0.88083354  1
  O  O324  1  0.24362486  0.74425374  0.37894094  1
  O  O325  1  0.24270059  0.75018224  0.88157086  1
  O  O326  1  0.73497658  0.24761702  0.37429419  1
  O  O327  1  0.74567323  0.24549478  0.87958508  1
  O  O328  1  0.74540672  0.74237427  0.37803795  1
  O  O329  1  0.74269966  0.74714539  0.87640461  1
  O  O330  1  -0.00169490  0.11098707  -0.00352606  1
  O  O331  1  0.00026086  0.11514661  0.50993869  1
  O  O332  1  0.00605868  0.62050864  0.00576347  1
  O  O333  1  0.00887386  0.62435633  0.51229650  1
  O  O334  1  0.50592605  0.12437790  0.00784231  1
  O  O335  1  0.50049348  0.11603166  0.50785391  1
  O  O336  1  0.50713268  0.62242920  0.00328445  1
  O  O337  1  0.50142329  0.62145309  0.51041927  1
  O  O338  1  0.48559179  0.37738109  0.50140413  1
  O  O339  1  0.49366778  0.38156061  0.99513252  1
  O  O340  1  0.49427947  0.87880184  0.49494566  1
  O  O341  1  0.49189978  0.87703380  0.99338416  1
  O  O342  1  0.99850221  0.37760392  0.49660209  1
  O  O343  1  0.99974851  0.38372663  0.99116821  1
  O  O344  1  0.99364539  0.88136511  0.50241991  1
  O  O345  1  0.99379235  0.88430907  0.99419843  1
  O  O346  1  0.48622388  0.50898617  0.37516296  1
  O  O347  1  0.49436037  0.49520015  0.87919291  1
  O  O348  1  0.49566099  0.99383892  0.38047874  1
  O  O349  1  0.49123403  0.99452240  0.87624931  1
  O  O350  1  0.99832608  0.49803193  0.37800422  1
  O  O351  1  0.99397602  0.49650288  0.87666722  1
  O  O352  1  0.99664106  0.99635800  0.38713125  1
  O  O353  1  0.99394958  0.99457702  0.88304193  1
  O  O354  1  0.01336870  -0.00872401  0.11724050  1
  O  O355  1  -0.00696978  0.00936153  0.61813407  1
  O  O356  1  0.00525335  0.50560462  0.11870669  1
  O  O357  1  0.01151003  0.50847452  0.62691793  1
  O  O358  1  0.50588602  0.00731340  0.12604876  1
  O  O359  1  0.50370873  0.00436131  0.62109024  1
  O  O360  1  0.50025425  0.50870588  0.11621600  1
  O  O361  1  0.50911336  0.50678555  0.62509219  1
  O  O362  1  0.23945847  0.38051822  0.24811771  1
  O  O363  1  0.23918942  0.38652294  0.75560173  1
  O  O364  1  0.25542282  0.87659661  0.23718553  1
  O  O365  1  0.24588133  0.87883489  0.74269756  1
  O  O366  1  0.74791542  0.37593422  0.23746539  1
  O  O367  1  0.74766004  0.38544248  0.73883827  1
  O  O368  1  0.74562763  0.88218224  0.24520856  1
  O  O369  1  0.74181582  0.88216635  0.74941261  1
  O  O370  1  0.25728025  0.12289752  0.25939302  1
  O  O371  1  0.25418879  0.11968047  0.75634499  1
  O  O372  1  0.25662384  0.61992867  0.25444857  1
  O  O373  1  0.25512670  0.61571076  0.75044430  1
  O  O374  1  0.75684619  0.11359176  0.24938392  1
  O  O375  1  0.75529928  0.11865508  0.75627239  1
  O  O376  1  0.75944693  0.62771367  0.25691957  1
  O  O377  1  0.74530657  0.61103057  0.74959080  1
  O  O378  1  0.37098292  0.12005404  0.37194395  1
  O  O379  1  0.36810972  0.12140511  0.87015459  1
  O  O380  1  0.36929218  0.61751317  0.36931257  1
  O  O381  1  0.37468815  0.61823063  0.86703429  1
  O  O382  1  0.86966074  0.12451863  0.36347035  1
  O  O383  1  0.86863625  0.11956022  0.87047101  1
  O  O384  1  0.86697214  0.62934082  0.36571559  1
  O  O385  1  0.87533251  0.61154100  0.87833286  1
  O  O386  1  0.12660821  0.38104593  0.13396193  1
  O  O387  1  0.11917463  0.38425062  0.63586456  1
  O  O388  1  0.13486561  0.88689405  0.11971213  1
  O  O389  1  0.13745901  0.86805624  0.63094283  1
  O  O390  1  0.63616352  0.37494835  0.12498238  1
  O  O391  1  0.63260608  0.38220504  0.62500569  1
  O  O392  1  0.62880038  0.88009684  0.13104947  1
  O  O393  1  0.62575062  0.88118606  0.63272217  1
  O  O394  1  0.12593936  0.25637106  0.25766287  1
  O  O395  1  0.12716993  0.26079069  0.75600136  1
  O  O396  1  0.11505888  0.74136394  0.25929814  1
  O  O397  1  0.11912697  0.75698118  0.75566423  1
  O  O398  1  0.61680493  0.25081424  0.26006298  1
  O  O399  1  0.62261208  0.25241039  0.75878354  1
  O  O400  1  0.61938188  0.75597906  0.25439931  1
  O  O401  1  0.61892175  0.75555145  0.75439467  1
  O  O402  1  0.38069207  0.24555227  0.24759931  1
  O  O403  1  0.37191965  0.24591672  0.74062626  1
  O  O404  1  0.38018054  0.74398296  0.24552228  1
  O  O405  1  0.38179865  0.74252016  0.74818286  1
  O  O406  1  0.87683965  0.24072294  0.24106339  1
  O  O407  1  0.87605215  0.24303875  0.74163838  1
  O  O408  1  0.88249281  0.74095006  0.24461642  1
  O  O409  1  0.88143586  0.75842540  0.73678169  1
  O  O410  1  0.37322630  0.49093220  0.49166196  1
  O  O411  1  0.37922931  0.49663022  0.99357516  1
  O  O412  1  0.38095949  0.99375582  0.49463567  1
  O  O413  1  0.37416603  0.99427536  0.99444125  1
  O  O414  1  0.87937900  0.49498459  0.49700599  1
  O  O415  1  0.88244207  0.49805788  0.98968052  1
  O  O416  1  0.88271498  0.98960466  0.50075914  1
  O  O417  1  0.88107144  0.99567781  0.99689800  1
  O  O418  1  0.11579178  0.00297544  0.00750111  1
  O  O419  1  0.11225492  0.00029482  0.49813793  1
  O  O420  1  0.12034307  0.50561160  0.00348229  1
  O  O421  1  0.13112962  0.50337787  0.51029818  1
  O  O422  1  0.62293067  0.00703135  0.00794183  1
  O  O423  1  0.61812325  -0.00272234  0.50753405  1
  O  O424  1  0.61850408  0.51134983  -0.00106702  1
  O  O425  1  0.62475530  0.50089412  0.51136183  1
  O  O426  1  0.37236837  0.36866148  0.11792274  1
  O  O427  1  0.37772388  0.36354883  0.61684931  1
  O  O428  1  0.36668292  0.87076084  0.12012076  1
  O  O429  1  0.36508825  0.87155956  0.61932589  1
  O  O430  1  0.86611891  0.36587513  0.12345743  1
  O  O431  1  0.86837545  0.36473589  0.62867241  1
  O  O432  1  0.86977621  0.87067947  0.11980350  1
  O  O433  1  0.87427714  0.86407033  0.61460040  1
  O  O434  1  0.13223833  0.13432508  0.37818420  1
  O  O435  1  0.13084465  0.13315111  0.87685194  1
  O  O436  1  0.13222938  0.63212701  0.38018809  1
  O  O437  1  0.12473693  0.63279400  0.88111533  1
  O  O438  1  0.62810016  0.13651945  0.37767464  1
  O  O439  1  0.62986255  0.12980925  0.88052709  1
  O  O440  1  0.63505769  0.63111280  0.37429467  1
  O  O441  1  0.62350129  0.63117643  0.88322719  1
