# generated using pymatgen
data_V93Zn93O256
_symmetry_space_group_name_H-M   'P 1'
_cell_length_a   17.05406721
_cell_length_b   17.04834568
_cell_length_c   17.05447665
_cell_angle_alpha   89.97230488
_cell_angle_beta   89.95365064
_cell_angle_gamma   89.99682008
_symmetry_Int_Tables_number   1
_chemical_formula_structural   V93Zn93O256
_chemical_formula_sum   'V93 Zn93 O256'
_cell_volume   4958.47828943
_cell_formula_units_Z   1
loop_
 _symmetry_equiv_pos_site_id
 _symmetry_equiv_pos_as_xyz
  1  'x, y, z'
loop_
 _atom_site_type_symbol
 _atom_site_label
 _atom_site_symmetry_multiplicity
 _atom_site_fract_x
 _atom_site_fract_y
 _atom_site_fract_z
 _atom_site_occupancy
  V  V0  1  0.12348018  0.74990488  0.37603985  1
  V  V1  1  0.87169051  0.50383947  0.37594508  1
  V  V2  1  0.87849894  0.62281613  0.74740887  1
  V  V3  1  0.86862783  0.62722308  0.25335111  1
  V  V4  1  0.24981472  0.74960443  0.50077984  1
  V  V5  1  0.12521070  -0.00031514  0.62563633  1
  V  V6  1  0.50112451  0.74869013  0.74936734  1
  V  V7  1  0.37556862  -0.00058054  0.87323240  1
  V  V8  1  0.87940189  0.74496884  0.62336176  1
  V  V9  1  0.62578394  0.00016247  0.62362156  1
  V  V10  1  -0.00666005  0.12586394  0.12953942  1
  V  V11  1  0.24957706  0.50007443  0.74940282  1
  V  V12  1  0.12539265  0.12550066  0.49991106  1
  V  V13  1  0.37644151  0.50597283  0.36734928  1
  V  V14  1  -0.00092063  0.87758176  0.37437129  1
  V  V15  1  0.62620060  0.74838782  0.87373767  1
  V  V16  1  0.75132044  0.87284793  0.62354880  1
  V  V17  1  0.37373990  0.24789454  0.12615191  1
  V  V18  1  0.24958860  0.62519310  0.87509885  1
  V  V19  1  0.62096449  0.86874586  0.24937125  1
  V  V20  1  0.62790359  0.12386686  0.49724033  1
  V  V21  1  0.62438802  0.37485043  0.25169317  1
  V  V22  1  0.63127149  0.74716910  0.37425114  1
  V  V23  1  0.50275694  0.25076338  0.75190102  1
  V  V24  1  0.87468376  0.49968243  0.87629282  1
  V  V25  1  -0.00056263  0.00042521  0.49978968  1
  V  V26  1  0.49970982  0.87515622  0.87367570  1
  V  V27  1  0.49953793  0.24803489  0.25144164  1
  V  V28  1  0.37534826  0.49912868  0.87646052  1
  V  V29  1  0.87877667  0.37538906  0.50024788  1
  V  V30  1  0.75588295  0.12207059  0.87617243  1
  V  V31  1  0.62477343  0.49909132  0.62517744  1
  V  V32  1  0.37384122  0.87181938  0.00069979  1
  V  V33  1  0.12367412  0.74957078  0.87300651  1
  V  V34  1  0.61799473  -0.00103876  0.12369063  1
  V  V35  1  0.75039318  0.62394152  0.87573118  1
  V  V36  1  0.24930196  -0.00041885  0.74966851  1
  V  V37  1  0.49928761  0.50027731  0.49881765  1
  V  V38  1  0.50003299  0.37549012  0.37512128  1
  V  V39  1  -0.00199560  0.75115723  0.24911966  1
  V  V40  1  0.74804919  0.24799896  0.00119645  1
  V  V41  1  0.62587492  0.87421444  0.74893801  1
  V  V42  1  0.12612377  0.37620899  0.75052160  1
  V  V43  1  0.37575005  0.74931274  0.62434088  1
  V  V44  1  0.12205069  0.87639968  0.24850320  1
  V  V45  1  0.75000664  0.24904306  0.49949486  1
  V  V46  1  0.00009919  0.24858150  0.75036164  1
  V  V47  1  0.49868658  0.49980152  0.00129949  1
  V  V48  1  -0.00304731  0.87885730  0.87371810  1
  V  V49  1  -0.00377347  0.00110545  -0.00427420  1
  V  V50  1  0.50157290  0.87096916  0.37667031  1
  V  V51  1  0.50102495  0.62373988  0.62472416  1
  V  V52  1  0.87414918  0.37536653  0.00145091  1
  V  V53  1  0.62487594  0.62516268  -0.00008094  1
  V  V54  1  0.37568379  0.62423207  0.75004111  1
  V  V55  1  0.62322512  0.50102015  0.12610579  1
  V  V56  1  0.25125959  0.25063019  0.49988860  1
  V  V57  1  0.12493225  0.87448477  0.74914939  1
  V  V58  1  0.12332584  0.62526217  0.00022388  1
  V  V59  1  -0.00314993  0.25017014  0.25296595  1
  V  V60  1  0.37588368  0.11512995  0.25029948  1
  V  V61  1  0.25178932  0.12390530  0.37361514  1
  V  V62  1  -0.00001687  0.74782942  0.74786232  1
  V  V63  1  0.75778171  -0.00031844  0.75423267  1
  V  V64  1  -0.00020002  0.12613172  0.62609716  1
  V  V65  1  -0.00076480  0.62578523  0.12539355  1
  V  V66  1  -0.00113194  0.37435185  0.87690167  1
  V  V67  1  0.87369984  0.24897534  0.13006906  1
  V  V68  1  0.24986773  0.12496178  0.87616607  1
  V  V69  1  0.63221859  0.62534004  0.49549420  1
  V  V70  1  0.74898547  0.50255305  0.25254545  1
  V  V71  1  0.12644975  0.50000925  0.12879917  1
  V  V72  1  0.12343297  0.12608168  0.00100469  1
  V  V73  1  0.75033406  0.87245390  0.12278103  1
  V  V74  1  0.37483455  0.37432997  0.00160943  1
  V  V75  1  0.75513262  0.00450790  0.25167235  1
  V  V76  1  0.37652152  0.87725446  0.50149047  1
  V  V77  1  0.12525665  0.25096165  0.87627837  1
  V  V78  1  0.24666492  0.87158415  0.12276393  1
  V  V79  1  0.11832059  0.50465780  0.62493532  1
  V  V80  1  0.24955327  0.75106695  -0.00088354  1
  V  V81  1  0.37565920  0.12531761  0.74983969  1
  V  V82  1  0.87557436  0.87527557  0.49876284  1
  V  V83  1  0.11904113  0.62577657  0.50259788  1
  V  V84  1  0.12277288  0.00076062  0.12461307  1
  V  V85  1  0.74879861  0.37520043  0.62800972  1
  V  V86  1  0.12496250  0.25242468  0.37502792  1
  V  V87  1  0.74961793  0.37497464  0.12663356  1
  V  V88  1  0.37444498  0.25134710  0.62372559  1
  V  V89  1  0.25044048  0.24984969  0.00246124  1
  V  V90  1  0.49992592  0.12222025  0.12481917  1
  V  V91  1  0.49208432  0.63866533  0.13081624  1
  V  V92  1  0.87388656  0.87832043  -0.00678832  1
  Zn  Zn93  1  0.00288701  0.37827765  0.37483702  1
  Zn  Zn94  1  0.75464098  0.74576886  0.49602945  1
  Zn  Zn95  1  0.62554353  0.25027599  0.87694571  1
  Zn  Zn96  1  0.75740595  0.13208152  0.36610551  1
  Zn  Zn97  1  0.87832695  0.12236479  0.75281510  1
  Zn  Zn98  1  -0.00042338  0.50021210  0.00157540  1
  Zn  Zn99  1  0.25145183  0.62612236  0.37057224  1
  Zn  Zn100  1  0.62458121  0.37547163  0.75354554  1
  Zn  Zn101  1  0.37599346  -0.00117947  0.37479712  1
  Zn  Zn102  1  0.50131789  0.12559534  0.62386338  1
  Zn  Zn103  1  0.75200724  0.74946535  -0.00223862  1
  Zn  Zn104  1  0.87432405  0.74863948  0.12301411  1
  Zn  Zn105  1  0.74854846  0.49829671  0.75178452  1
  Zn  Zn106  1  0.12845111  0.37815033  0.25351972  1
  Zn  Zn107  1  0.62318016  0.12388221  -0.00270421  1
  Zn  Zn108  1  0.50002972  0.00242529  0.49943198  1
  Zn  Zn109  1  0.87542020  0.24846135  0.62775169  1
  Zn  Zn110  1  0.24973255  0.37751645  0.62283375  1
  Zn  Zn111  1  0.25023874  -0.00145346  0.25091299  1
  Zn  Zn112  1  0.62426705  0.24805839  0.37450752  1
  Zn  Zn113  1  0.25058472  0.87546818  0.62528403  1
  Zn  Zn114  1  0.50327618  0.37441284  0.87672074  1
  Zn  Zn115  1  0.87932665  0.00686347  0.36978355  1
  Zn  Zn116  1  0.50033697  0.00050374  -0.00313889  1
  Zn  Zn117  1  -0.00184222  0.50465980  0.50190465  1
  Zn  Zn118  1  0.37389269  0.37793452  0.49841087  1
  Zn  Zn119  1  0.25434454  0.50557442  0.24878249  1
  Zn  Zn120  1  0.37551159  0.66458633  0.24830009  1
  Zn  Zn121  1  0.24985589  0.37593073  0.12907072  1
  Zn  Zn122  1  0.18625308  0.18725454  0.19003907  1
  Zn  Zn123  1  0.18783256  0.18758941  0.68791038  1
  Zn  Zn124  1  0.18866094  0.68680870  0.19001133  1
  Zn  Zn125  1  0.18883218  0.68685425  0.68529834  1
  Zn  Zn126  1  0.68365487  0.18719912  0.18529599  1
  Zn  Zn127  1  0.68889271  0.18537145  0.68782709  1
  Zn  Zn128  1  0.68407099  0.68709192  0.18606902  1
  Zn  Zn129  1  0.69126594  0.68513740  0.68612352  1
  Zn  Zn130  1  0.31260344  0.31617305  0.31073164  1
  Zn  Zn131  1  0.31353188  0.31391597  0.81371834  1
  Zn  Zn132  1  0.30566964  0.81323824  0.31734612  1
  Zn  Zn133  1  0.31217457  0.81219713  0.81218483  1
  Zn  Zn134  1  0.81408803  0.31546361  0.31449537  1
  Zn  Zn135  1  0.81375688  0.30806802  0.81453391  1
  Zn  Zn136  1  0.81153069  0.81594733  0.31216441  1
  Zn  Zn137  1  0.81250152  0.81060023  0.81085006  1
  Zn  Zn138  1  0.19156117  0.43897546  0.43743477  1
  Zn  Zn139  1  0.18791879  0.43786688  0.94098874  1
  Zn  Zn140  1  0.18801931  0.93815576  0.43732319  1
  Zn  Zn141  1  0.18404928  0.93908474  0.93637219  1
  Zn  Zn142  1  0.68773309  0.43769980  0.43745950  1
  Zn  Zn143  1  0.68609423  0.43610846  0.93738755  1
  Zn  Zn144  1  0.68999052  0.93465089  0.43668910  1
  Zn  Zn145  1  0.68715128  0.93820863  0.93610441  1
  Zn  Zn146  1  0.31321175  0.05811979  0.06291350  1
  Zn  Zn147  1  0.31165570  0.06369409  0.56303943  1
  Zn  Zn148  1  0.31250784  0.56472539  0.06386949  1
  Zn  Zn149  1  0.30928957  0.56317133  0.55934856  1
  Zn  Zn150  1  0.81083826  0.06041285  0.06256469  1
  Zn  Zn151  1  0.81502316  0.06247855  0.56358218  1
  Zn  Zn152  1  0.81178556  0.56203556  0.06388144  1
  Zn  Zn153  1  0.81192688  0.56025820  0.56431696  1
  Zn  Zn154  1  0.43945579  0.43710087  0.18562455  1
  Zn  Zn155  1  0.43774800  0.43539006  0.68779799  1
  Zn  Zn156  1  0.41527337  0.88363156  0.20751238  1
  Zn  Zn157  1  0.43934840  0.93776877  0.68694434  1
  Zn  Zn158  1  0.93950844  0.43740109  0.18913573  1
  Zn  Zn159  1  0.93803967  0.43605962  0.68891817  1
  Zn  Zn160  1  0.93605374  0.93671330  0.18204117  1
  Zn  Zn161  1  0.93852463  0.93456892  0.68430408  1
  Zn  Zn162  1  0.06375580  0.06467321  0.31224977  1
  Zn  Zn163  1  0.06268792  0.06207477  0.81309706  1
  Zn  Zn164  1  0.05877133  0.56490576  0.31424622  1
  Zn  Zn165  1  0.06045015  0.56116947  0.81333907  1
  Zn  Zn166  1  0.56496007  0.05718728  0.31284910  1
  Zn  Zn167  1  0.56618237  0.06492851  0.81214669  1
  Zn  Zn168  1  0.55874343  0.56595087  0.31033806  1
  Zn  Zn169  1  0.56344524  0.55962854  0.81271807  1
  Zn  Zn170  1  0.43872639  0.18632867  0.43678157  1
  Zn  Zn171  1  0.43830632  0.18631250  0.93839225  1
  Zn  Zn172  1  0.44145775  0.68803913  0.43671300  1
  Zn  Zn173  1  0.43847411  0.68715090  0.93936794  1
  Zn  Zn174  1  0.93552538  0.18543436  0.43628793  1
  Zn  Zn175  1  0.93459923  0.18817207  0.93970109  1
  Zn  Zn176  1  0.93854550  0.68819827  0.43520312  1
  Zn  Zn177  1  0.93671202  0.69021475  0.93732689  1
  Zn  Zn178  1  0.06183046  0.31412361  0.06465540  1
  Zn  Zn179  1  0.06494886  0.31377228  0.56501339  1
  Zn  Zn180  1  0.06049153  0.81141313  0.06075306  1
  Zn  Zn181  1  0.06160737  0.81317031  0.56264766  1
  Zn  Zn182  1  0.56177985  0.31146260  0.06371822  1
  Zn  Zn183  1  0.56171853  0.31239979  0.56251287  1
  Zn  Zn184  1  0.56339871  0.81348727  0.05743109  1
  Zn  Zn185  1  0.56365728  0.81005335  0.56031444  1
  O  O186  1  0.11471855  0.12144798  0.11938924  1
  O  O187  1  0.12045631  0.11951869  0.61977139  1
  O  O188  1  0.11913435  0.61974963  0.11995768  1
  O  O189  1  0.13002974  0.61646181  0.61599343  1
  O  O190  1  0.61830145  0.11418519  0.12413445  1
  O  O191  1  0.62663009  0.11521742  0.61637674  1
  O  O192  1  0.61647308  0.61982786  0.11970033  1
  O  O193  1  0.62038478  0.61987816  0.61754032  1
  O  O194  1  0.38370417  0.38436130  0.37700387  1
  O  O195  1  0.37679016  0.38212522  0.88320270  1
  O  O196  1  0.38373164  0.87545237  0.38781880  1
  O  O197  1  0.37940408  0.88025368  0.87974719  1
  O  O198  1  0.87663434  0.38398654  0.38591909  1
  O  O199  1  0.87890541  0.37957476  0.88121043  1
  O  O200  1  0.88192141  0.87914535  0.38065299  1
  O  O201  1  0.88065338  0.86892424  0.88433253  1
  O  O202  1  0.25164572  0.00855211  0.37323505  1
  O  O203  1  0.25406733  0.00571839  0.86926515  1
  O  O204  1  0.26360917  0.50494771  0.37474885  1
  O  O205  1  0.25469190  0.50655326  0.87025609  1
  O  O206  1  0.74864413  -0.00516649  0.35687688  1
  O  O207  1  0.74351760  0.00713346  0.86350700  1
  O  O208  1  0.76301696  0.49479487  0.36887714  1
  O  O209  1  0.75689613  0.50559273  0.87354409  1
  O  O210  1  0.23835224  0.50185757  0.12548106  1
  O  O211  1  0.24122708  0.49970429  0.63189922  1
  O  O212  1  0.23991166  0.98869493  0.12256074  1
  O  O213  1  0.24308480  0.99930633  0.63226252  1
  O  O214  1  0.74325672  0.49418313  0.13181723  1
  O  O215  1  0.74410070  0.48915927  0.62582704  1
  O  O216  1  0.74137433  0.99057188  0.13199911  1
  O  O217  1  0.74175078  0.99420143  0.63222504  1
  O  O218  1  0.00460793  0.36296000  0.25171426  1
  O  O219  1  0.00641811  0.36896727  0.75714190  1
  O  O220  1  0.00303537  0.87150728  0.25322938  1
  O  O221  1  0.00526873  0.86915668  0.75434396  1
  O  O222  1  0.50584028  0.36834186  0.25470215  1
  O  O223  1  0.50019805  0.36323797  0.75211535  1
  O  O224  1  0.51512603  0.88119712  0.26100658  1
  O  O225  1  0.50582308  0.86828907  0.75416600  1
  O  O226  1  0.49602280  0.12720649  0.24592823  1
  O  O227  1  0.49377612  0.13316543  0.74781531  1
  O  O228  1  0.49823494  0.62688532  0.23369561  1
  O  O229  1  0.49497964  0.62933403  0.74471956  1
  O  O230  1  1.00505476  0.13477574  0.23842906  1
  O  O231  1  1.00088372  0.13005245  0.74486805  1
  O  O232  1  0.98905136  0.63193976  0.24512923  1
  O  O233  1  0.98629936  0.63128261  0.75675747  1
  O  O234  1  0.36968580  0.25340868  0.00626362  1
  O  O235  1  0.37087801  0.24787810  0.50988396  1
  O  O236  1  0.36642325  0.76406176  -0.01010460  1
  O  O237  1  0.37180586  0.75740458  0.50497808  1
  O  O238  1  0.86779067  0.25633158  0.00910654  1
  O  O239  1  0.86648386  0.25986257  0.50201607  1
  O  O240  1  0.87237600  0.76212383  0.00319568  1
  O  O241  1  0.87504460  0.75326105  0.50710189  1
  O  O242  1  0.13058467  0.24437945  0.49575035  1
  O  O243  1  0.12969423  0.24536609  0.99591310  1
  O  O244  1  0.12857181  0.74475374  0.49732850  1
  O  O245  1  0.12896933  0.74522810  0.99164149  1
  O  O246  1  0.63334361  0.24139537  0.50046685  1
  O  O247  1  0.63421882  0.24643011  1.00242943  1
  O  O248  1  0.62893109  0.74157342  0.49390464  1
  O  O249  1  0.62756915  0.74388191  0.99013887  1
  O  O250  1  0.49390927  0.24186838  0.13153786  1
  O  O251  1  0.49071136  0.24861532  0.63238519  1
  O  O252  1  0.50515225  0.73701040  0.11871259  1
  O  O253  1  0.49611171  0.74367001  0.63063580  1
  O  O254  1  0.99502687  0.24358278  0.13226248  1
  O  O255  1  1.00197579  0.24375072  0.63276304  1
  O  O256  1  0.99884750  0.74414714  0.13233318  1
  O  O257  1  0.98674200  0.75516070  0.63108606  1
  O  O258  1  0.00546201  0.24939594  0.36711629  1
  O  O259  1  0.00602887  0.25438132  0.87141194  1
  O  O260  1  0.00438139  0.75817611  0.36850998  1
  O  O261  1  0.00566482  0.75690267  0.86767424  1
  O  O262  1  0.50182456  0.25661252  0.36881189  1
  O  O263  1  0.49973086  0.24972997  0.86386610  1
  O  O264  1  0.51355057  0.76374197  0.38237185  1
  O  O265  1  0.50580411  0.75431755  0.86801594  1
  O  O266  1  0.24448375  0.13077726  0.49439152  1
  O  O267  1  0.24428716  0.12925070  0.99540546  1
  O  O268  1  0.23949403  0.63332890  0.49648343  1
  O  O269  1  0.24447636  0.63197868  0.99417785  1
  O  O270  1  0.74300880  0.13517118  0.50456592  1
  O  O271  1  0.74948674  0.12895815  0.99354715  1
  O  O272  1  0.73580245  0.62380787  0.50334098  1
  O  O273  1  0.74333626  0.62642622  0.99478070  1
  O  O274  1  0.25661532  0.36709150  0.00308172  1
  O  O275  1  0.25415049  0.36549639  0.50258368  1
  O  O276  1  0.25336122  0.87131012  0.00287947  1
  O  O277  1  0.26036112  0.86957697  0.50149729  1
  O  O278  1  0.75476825  0.36887920  0.00794756  1
  O  O279  1  0.75657766  0.36859833  0.50794209  1
  O  O280  1  0.75668274  0.87614364  0.00614629  1
  O  O281  1  0.75782744  0.87303076  0.50685743  1
  O  O282  1  0.12430660  0.50382051  0.23958019  1
  O  O283  1  0.12944490  0.49766648  0.74384004  1
  O  O284  1  0.12394963  0.99398245  0.24169528  1
  O  O285  1  0.13012815  0.99427898  0.74527689  1
  O  O286  1  0.62950793  0.49585164  0.24630829  1
  O  O287  1  0.62792487  0.49738793  0.74071647  1
  O  O288  1  0.63419637  0.98883311  0.24161403  1
  O  O289  1  0.63336434  0.99433670  0.74065709  1
  O  O290  1  0.37246733  0.00157766  0.25234494  1
  O  O291  1  0.36979830  0.00463116  0.75347291  1
  O  O292  1  0.37943848  0.49832563  0.26241103  1
  O  O293  1  0.37036704  0.50554506  0.75506921  1
  O  O294  1  0.85796006  -0.00668898  0.24566656  1
  O  O295  1  0.86095349  -0.00143182  0.74225185  1
  O  O296  1  0.87014911  0.50716599  0.25684442  1
  O  O297  1  0.87429583  0.50789498  0.75551832  1
  O  O298  1  0.12200226  0.36794376  0.37635021  1
  O  O299  1  0.11973341  0.37034401  0.87138529  1
  O  O300  1  0.11852044  0.87035393  0.36959605  1
  O  O301  1  0.11852129  0.86878432  0.86850085  1
  O  O302  1  0.61805316  0.37507598  0.36870699  1
  O  O303  1  0.62195158  0.36945170  0.87132145  1
  O  O304  1  0.62045876  0.86836428  0.36900015  1
  O  O305  1  0.61967129  0.86927903  0.86833349  1
  O  O306  1  0.38016187  0.12678877  0.13067846  1
  O  O307  1  0.37678472  0.13433498  0.63096312  1
  O  O308  1  0.38925308  0.62639254  0.12337200  1
  O  O309  1  0.38086692  0.62937259  0.62999797  1
  O  O310  1  0.88701026  0.13084807  0.11852404  1
  O  O311  1  0.88514937  0.12777940  0.62768578  1
  O  O312  1  0.88009126  0.62589779  0.13490799  1
  O  O313  1  0.86888992  0.63313600  0.63448262  1
  O  O314  1  0.25583833  0.24841600  0.11897733  1
  O  O315  1  0.25933676  0.24938326  0.62015566  1
  O  O316  1  0.23755883  0.76506539  0.11529440  1
  O  O317  1  0.25836073  0.75268614  0.61932766  1
  O  O318  1  0.75478632  0.25489132  0.12270384  1
  O  O319  1  0.75093305  0.25815545  0.61596733  1
  O  O320  1  0.74770946  0.76343843  0.12249851  1
  O  O321  1  0.76212341  0.75521131  0.62435014  1
  O  O322  1  0.24568676  0.24373672  0.38025409  1
  O  O323  1  0.24504132  0.24411225  0.88135862  1
  O  O324  1  0.23978615  0.75086743  0.38436138  1
  O  O325  1  0.24296286  0.74423313  0.87819155  1
  O  O326  1  0.74684995  0.25258635  0.38752249  1
  O  O327  1  0.74923215  0.24076064  0.88300068  1
  O  O328  1  0.73664467  0.75685904  0.37794764  1
  O  O329  1  0.74289393  0.74248281  0.87397151  1
  O  O330  1  0.00441999  0.12206665  0.00783853  1
  O  O331  1  0.00718631  0.12041125  0.50628348  1
  O  O332  1  0.00560682  0.62564342  0.00630004  1
  O  O333  1  0.01429241  0.62567393  0.49679614  1
  O  O334  1  0.50113590  0.12001819  0.00850864  1
  O  O335  1  0.51411614  0.12319644  0.50179408  1
  O  O336  1  0.50501263  0.61958112  0.00786765  1
  O  O337  1  0.51009834  0.62028750  0.50684500  1
  O  O338  1  0.49956734  0.38245416  0.49349687  1
  O  O339  1  0.49271527  0.38146098  1.00109070  1
  O  O340  1  0.49285558  0.87624857  0.49540084  1
  O  O341  1  0.48979075  0.87609281  0.99276691  1
  O  O342  1  0.98727537  0.37571254  0.50145338  1
  O  O343  1  0.99168533  0.37459180  0.99427009  1
  O  O344  1  0.99563831  0.88066527  0.49402783  1
  O  O345  1  0.99228410  0.88002370  0.99458890  1
  O  O346  1  0.49476472  0.49602736  0.37936822  1
  O  O347  1  0.49243742  0.50043421  0.88291524  1
  O  O348  1  0.50199675  0.98525198  0.38033618  1
  O  O349  1  0.49471971  0.99297765  0.87257959  1
  O  O350  1  0.98581992  0.49789058  0.37760468  1
  O  O351  1  0.99305774  0.49205134  0.87766619  1
  O  O352  1  1.00127843  0.99475540  0.38132616  1
  O  O353  1  1.00579146  0.99187861  0.88290624  1
  O  O354  1  0.00295590  0.00856095  0.11864963  1
  O  O355  1  0.00671577  0.00513300  0.62001832  1
  O  O356  1  0.00783209  0.50778249  0.12420030  1
  O  O357  1  0.01425018  0.49612859  0.62423705  1
  O  O358  1  0.51253491  0.00279163  0.12503646  1
  O  O359  1  0.51500608  0.00102873  0.62428095  1
  O  O360  1  0.50569629  0.50791316  0.11927200  1
  O  O361  1  0.50442434  0.50472874  0.61969653  1
  O  O362  1  0.24621117  0.38284550  0.24604154  1
  O  O363  1  0.24330063  0.38249528  0.75071810  1
  O  O364  1  0.23886927  0.87719640  0.23915905  1
  O  O365  1  0.24339724  0.88126773  0.74906520  1
  O  O366  1  0.74447299  0.38121896  0.24537969  1
  O  O367  1  0.75085651  0.37271227  0.73726261  1
  O  O368  1  0.74154523  0.88192258  0.24013519  1
  O  O369  1  0.74492216  0.88080418  0.74499503  1
  O  O370  1  0.25740734  0.12243710  0.25556022  1
  O  O371  1  0.25484369  0.11975404  0.75696881  1
  O  O372  1  0.26195744  0.62696575  0.25170309  1
  O  O373  1  0.25635025  0.62058268  0.75591192  1
  O  O374  1  0.74222028  0.10759553  0.24677057  1
  O  O375  1  0.75217901  0.11666928  0.75687329  1
  O  O376  1  0.76070032  0.61944582  0.24256087  1
  O  O377  1  0.76214169  0.62322097  0.75634141  1
  O  O378  1  0.37046019  0.12199326  0.36854397  1
  O  O379  1  0.36884405  0.11904042  0.86995817  1
  O  O380  1  0.37985357  0.61995150  0.36867370  1
  O  O381  1  0.36945606  0.61996213  0.87005557  1
  O  O382  1  0.86746622  0.11803843  0.38104177  1
  O  O383  1  0.86140732  0.12684060  0.87422916  1
  O  O384  1  0.87880411  0.61763300  0.36404879  1
  O  O385  1  0.87008678  0.62056943  0.86832402  1
  O  O386  1  0.12512718  0.38839779  0.12542160  1
  O  O387  1  0.12852339  0.38469957  0.63245947  1
  O  O388  1  0.12765177  0.88144587  0.12730443  1
  O  O389  1  0.12610576  0.88136857  0.63157573  1
  O  O390  1  0.62967036  0.38110863  0.13215543  1
  O  O391  1  0.63464302  0.38057648  0.62358211  1
  O  O392  1  0.62982487  0.87914216  0.13016673  1
  O  O393  1  0.63041295  0.88060733  0.62877224  1
  O  O394  1  0.11500579  0.25067834  0.25704176  1
  O  O395  1  0.12110489  0.25549151  0.75726640  1
  O  O396  1  0.11736735  0.75632246  0.25591405  1
  O  O397  1  0.12014854  0.75358897  0.75326883  1
  O  O398  1  0.61839065  0.25599465  0.25161308  1
  O  O399  1  0.61270439  0.24963454  0.74713166  1
  O  O400  1  0.63143526  0.76078170  0.25807789  1
  O  O401  1  0.62054520  0.75391628  0.75304937  1
  O  O402  1  0.38104110  0.24014880  0.24491361  1
  O  O403  1  0.38049159  0.24514610  0.74299873  1
  O  O404  1  0.38099824  0.77822263  0.24542759  1
  O  O405  1  0.38103162  0.74408077  0.74529303  1
  O  O406  1  0.88591207  0.25618743  0.24506260  1
  O  O407  1  0.88544419  0.24718805  0.74777350  1
  O  O408  1  0.87822115  0.74278209  0.24961709  1
  O  O409  1  0.87985100  0.74259432  0.74247183  1
  O  O410  1  0.38245531  0.50244702  0.49030101  1
  O  O411  1  0.37846463  0.49508051  0.99566676  1
  O  O412  1  0.37753218  0.98940352  0.50182070  1
  O  O413  1  0.37489299  0.98895934  0.99051470  1
  O  O414  1  0.87507760  0.49452446  0.49369409  1
  O  O415  1  0.87585941  0.49312331  0.99485119  1
  O  O416  1  0.88295638  0.99084473  0.50257149  1
  O  O417  1  0.88077616  0.98647368  1.00636714  1
  O  O418  1  0.11698186  0.00667868  0.00507613  1
  O  O419  1  0.11960754  0.00540604  0.50588893  1
  O  O420  1  0.12281790  0.50788069  0.00864121  1
  O  O421  1  0.12494757  0.50833991  0.50731820  1
  O  O422  1  0.62369385  -0.00131427  0.01142053  1
  O  O423  1  0.63067085  0.00652681  0.50879121  1
  O  O424  1  0.61945047  0.50552113  0.00646529  1
  O  O425  1  0.61980438  0.50738020  0.50366875  1
  O  O426  1  0.37454785  0.36641727  0.11905259  1
  O  O427  1  0.37239607  0.36306551  0.62294142  1
  O  O428  1  0.35944613  0.88277229  0.10930661  1
  O  O429  1  0.37662792  0.86867175  0.61670285  1
  O  O430  1  0.86852552  0.37056966  0.12175543  1
  O  O431  1  0.86635922  0.37638063  0.61610895  1
  O  O432  1  0.86489624  0.87217350  0.11587251  1
  O  O433  1  0.87082719  0.86445832  0.61913357  1
  O  O434  1  0.13088794  0.13187333  0.38113050  1
  O  O435  1  0.13033972  0.13119329  0.88135606  1
  O  O436  1  0.12554163  0.63255175  0.38331549  1
  O  O437  1  0.12987562  0.62982871  0.87916054  1
  O  O438  1  0.63323522  0.12339684  0.38601075  1
  O  O439  1  0.63798388  0.12796837  0.87740902  1
  O  O440  1  0.61581997  0.63575804  0.38367207  1
  O  O441  1  0.63015612  0.62840027  0.87963436  1
