# generated using pymatgen
data_V93Zn93O256
_symmetry_space_group_name_H-M   'P 1'
_cell_length_a   17.05622634
_cell_length_b   17.05440921
_cell_length_c   17.05660364
_cell_angle_alpha   89.97210425
_cell_angle_beta   90.00949732
_cell_angle_gamma   89.99816782
_symmetry_Int_Tables_number   1
_chemical_formula_structural   V93Zn93O256
_chemical_formula_sum   'V93 Zn93 O256'
_cell_volume   4961.49010525
_cell_formula_units_Z   1
loop_
 _symmetry_equiv_pos_site_id
 _symmetry_equiv_pos_as_xyz
  1  'x, y, z'
loop_
 _atom_site_type_symbol
 _atom_site_label
 _atom_site_symmetry_multiplicity
 _atom_site_fract_x
 _atom_site_fract_y
 _atom_site_fract_z
 _atom_site_occupancy
  V  V0  1  -0.00618015  0.00075370  -0.00234331  1
  V  V1  1  0.75023022  0.87511153  0.12456982  1
  V  V2  1  0.24928852  0.62529449  0.37503780  1
  V  V3  1  0.37066667  0.00471621  0.37554140  1
  V  V4  1  0.87403714  0.87803354  -0.00346577  1
  V  V5  1  0.74957532  0.74952473  0.50050329  1
  V  V6  1  0.50025592  0.62597801  0.62498764  1
  V  V7  1  0.87012741  0.61991522  0.24886691  1
  V  V8  1  0.75278414  -0.00166718  0.75603047  1
  V  V9  1  0.87462452  0.74941172  0.62545983  1
  V  V10  1  0.37288204  0.12675721  0.25256107  1
  V  V11  1  0.87419728  0.74992973  0.12469095  1
  V  V12  1  0.75404617  0.37636715  0.12805739  1
  V  V13  1  0.87419591  0.12006097  0.75755237  1
  V  V14  1  0.62633910  0.12625849  -0.00022454  1
  V  V15  1  0.25043174  0.50007001  0.75020566  1
  V  V16  1  0.12360365  0.87503342  0.75042879  1
  V  V17  1  0.24752278  0.50045081  0.25013746  1
  V  V18  1  0.74911292  0.62483657  0.87629478  1
  V  V19  1  0.87602711  0.50042458  0.37320421  1
  V  V20  1  0.49885826  0.87613847  0.37514316  1
  V  V21  1  0.75183438  0.24949307  0.00222661  1
  V  V22  1  0.12497542  0.75002174  0.87633751  1
  V  V23  1  0.87405981  0.49998023  0.87659404  1
  V  V24  1  0.50240097  0.75384313  0.74976923  1
  V  V25  1  0.12416004  -0.00058854  0.62487111  1
  V  V26  1  0.37480161  0.75091681  0.62488804  1
  V  V27  1  0.50361101  0.37463945  0.87439173  1
  V  V28  1  0.37643003  0.25116938  0.12406791  1
  V  V29  1  0.62553696  0.62449812  0.49900442  1
  V  V30  1  0.50015096  0.00072099  -0.00035037  1
  V  V31  1  0.75069960  0.62152178  0.37335851  1
  V  V32  1  -0.00464939  0.87818073  0.87538686  1
  V  V33  1  0.37602798  0.37502414  0.50123797  1
  V  V34  1  0.24993543  0.87364580  0.62523227  1
  V  V35  1  0.50052218  0.12560945  0.12530350  1
  V  V36  1  0.62491047  0.75045226  0.37458375  1
  V  V37  1  0.62478900  0.75357753  0.87020580  1
  V  V38  1  0.87453765  0.87585629  0.49942280  1
  V  V39  1  0.87746061  0.36953802  0.00624215  1
  V  V40  1  0.87122544  0.25068114  0.62391984  1
  V  V41  1  0.12434933  0.37389980  0.74922398  1
  V  V42  1  0.00114662  0.50028830  0.00051462  1
  V  V43  1  0.37528024  0.50150051  0.37507950  1
  V  V44  1  0.87835237  0.13783774  0.24663376  1
  V  V45  1  0.24858420  0.75075415  -0.00118609  1
  V  V46  1  0.12416964  0.87527997  0.25043746  1
  V  V47  1  0.00121467  0.62504781  0.12538419  1
  V  V48  1  -0.00083959  0.75052716  0.75035036  1
  V  V49  1  0.62559448  0.87514996  0.25064984  1
  V  V50  1  0.37740571  0.74886497  0.12673126  1
  V  V51  1  0.75116559  0.00050969  0.24985759  1
  V  V52  1  0.12337025  0.12402845  -0.00103538  1
  V  V53  1  0.87401919  -0.00142515  0.37444087  1
  V  V54  1  0.50316785  0.37615346  0.37572621  1
  V  V55  1  0.75075353  0.12484502  0.37474107  1
  V  V56  1  0.50195315  0.25051304  0.24904373  1
  V  V57  1  0.00296835  0.36082686  0.37137826  1
  V  V58  1  0.50141305  0.50055828  0.50009599  1
  V  V59  1  0.62642211  0.49916698  0.62581532  1
  V  V60  1  0.37605648  0.50015524  0.87688089  1
  V  V61  1  0.00032912  0.25052412  0.75221529  1
  V  V62  1  0.50175341  0.87490313  0.87127869  1
  V  V63  1  0.37564907  0.12512902  0.74854056  1
  V  V64  1  0.37504516  0.00025361  0.87553954  1
  V  V65  1  0.25122536  0.37287679  0.62238991  1
  V  V66  1  0.74500642  0.87399738  0.63032891  1
  V  V67  1  0.74928513  0.49658794  0.75006690  1
  V  V68  1  -0.00014402  0.12271718  0.62562585  1
  V  V69  1  0.12515820  0.35829783  0.25373799  1
  V  V70  1  0.74896173  0.74946326  -0.00081139  1
  V  V71  1  0.62487999  0.00024441  0.12550741  1
  V  V72  1  0.50002300  0.12628745  0.62560762  1
  V  V73  1  0.25115041  0.25024536  -0.00162816  1
  V  V74  1  0.37511026  0.62554189  0.75058618  1
  V  V75  1  0.12934866  0.13027000  0.49502630  1
  V  V76  1  -0.00143695  0.87342112  0.37448550  1
  V  V77  1  0.63083392  0.38091666  0.25029896  1
  V  V78  1  0.24961096  0.12572211  0.87513293  1
  V  V79  1  0.24838630  0.87668935  0.12566161  1
  V  V80  1  -0.00005297  0.62371858  0.62360169  1
  V  V81  1  0.25081533  0.37564927  0.12492000  1
  V  V82  1  0.24913519  0.00000553  0.75051751  1
  V  V83  1  0.12507375  0.74989325  0.37493531  1
  V  V84  1  0.62664573  0.24887880  0.37485380  1
  V  V85  1  0.37454865  0.87579136  0.00013009  1
  V  V86  1  0.62645636  0.12472475  0.49984980  1
  V  V87  1  0.12335365  0.50017731  0.62414891  1
  V  V88  1  0.62465085  -0.00252624  0.62980734  1
  V  V89  1  0.62711828  0.50118405  0.12424681  1
  V  V90  1  0.24828813  0.00185075  0.25138914  1
  V  V91  1  -0.00475739  0.13754273  0.12658895  1
  V  V92  1  0.24970568  0.74978733  0.50021363  1
  Zn  Zn93  1  0.12647751  0.62427714  -0.00050404  1
  Zn  Zn94  1  0.12526058  0.49837684  0.12583597  1
  Zn  Zn95  1  0.00156709  0.37605454  0.87583254  1
  Zn  Zn96  1  0.12461847  0.62309876  0.49832319  1
  Zn  Zn97  1  0.50050815  0.62262616  0.12572119  1
  Zn  Zn98  1  0.37612766  0.37597316  0.00051269  1
  Zn  Zn99  1  0.50038883  0.74741000  0.24892531  1
  Zn  Zn100  1  0.00178200  0.49758565  0.49750500  1
  Zn  Zn101  1  0.75107364  0.25133810  0.50005571  1
  Zn  Zn102  1  0.49858927  0.00012136  0.50058894  1
  Zn  Zn103  1  0.62615507  0.24792998  0.87274515  1
  Zn  Zn104  1  0.75152297  0.12049479  0.87873091  1
  Zn  Zn105  1  0.12682088  0.25152335  0.87466052  1
  Zn  Zn106  1  0.37615118  0.24974971  0.62515621  1
  Zn  Zn107  1  -0.00000005  0.74989065  0.24991598  1
  Zn  Zn108  1  0.50003619  0.50141574  0.00199727  1
  Zn  Zn109  1  0.74973849  0.37458836  0.62094620  1
  Zn  Zn110  1  0.00083061  -0.00078355  0.49974147  1
  Zn  Zn111  1  0.87616351  0.37601122  0.49985978  1
  Zn  Zn112  1  0.37404473  0.87674893  0.49971879  1
  Zn  Zn113  1  0.19765932  0.17923986  0.33533273  1
  Zn  Zn114  1  0.37713189  0.62559744  0.24936042  1
  Zn  Zn115  1  0.50210218  0.25006402  0.75146535  1
  Zn  Zn116  1  0.87495429  0.62371658  0.75043641  1
  Zn  Zn117  1  0.24847619  0.62507141  0.87599044  1
  Zn  Zn118  1  0.62210507  0.62488041  0.00111885  1
  Zn  Zn119  1  0.62572853  0.36928919  0.74763487  1
  Zn  Zn120  1  0.25358992  0.24840950  0.49428708  1
  Zn  Zn121  1  0.12174180  -0.00027789  0.12592561  1
  Zn  Zn122  1  0.18739634  0.18432264  0.17288985  1
  Zn  Zn123  1  0.18690682  0.18691145  0.68465663  1
  Zn  Zn124  1  0.18788112  0.68866380  0.18746319  1
  Zn  Zn125  1  0.18670499  0.68659799  0.68873980  1
  Zn  Zn126  1  0.69070887  0.18988571  0.18693203  1
  Zn  Zn127  1  0.68723292  0.18550165  0.69073970  1
  Zn  Zn128  1  0.68823209  0.68779995  0.18899801  1
  Zn  Zn129  1  0.68772155  0.68419870  0.68960524  1
  Zn  Zn130  1  0.31684599  0.31695527  0.31213040  1
  Zn  Zn131  1  0.31605295  0.31175671  0.81047832  1
  Zn  Zn132  1  0.31140698  0.81448032  0.31206769  1
  Zn  Zn133  1  0.31325990  0.81254232  0.81276190  1
  Zn  Zn134  1  0.81256359  0.31394692  0.31513102  1
  Zn  Zn135  1  0.81458300  0.31241246  0.81697567  1
  Zn  Zn136  1  0.81311016  0.80940260  0.31100007  1
  Zn  Zn137  1  0.81375671  0.81189196  0.81243153  1
  Zn  Zn138  1  0.18449852  0.43616246  0.43718980  1
  Zn  Zn139  1  0.18730607  0.43551800  0.93600506  1
  Zn  Zn140  1  0.18634154  0.93839732  0.43847459  1
  Zn  Zn141  1  0.18388781  0.93820384  0.93851272  1
  Zn  Zn142  1  0.69292481  0.43679904  0.43890664  1
  Zn  Zn143  1  0.68735011  0.43660486  0.93936790  1
  Zn  Zn144  1  0.68744910  0.93871398  0.44059162  1
  Zn  Zn145  1  0.68545492  0.93549058  0.93818890  1
  Zn  Zn146  1  0.31201454  0.06309928  0.06417086  1
  Zn  Zn147  1  0.31152179  0.06053222  0.56130144  1
  Zn  Zn148  1  0.31098326  0.56481674  0.06146923  1
  Zn  Zn149  1  0.31186193  0.56246458  0.56195809  1
  Zn  Zn150  1  0.81486163  0.06339282  0.06550869  1
  Zn  Zn151  1  0.81225281  0.06274301  0.56408613  1
  Zn  Zn152  1  0.81103017  0.56028660  0.06227653  1
  Zn  Zn153  1  0.81476357  0.56048898  0.56033356  1
  Zn  Zn154  1  0.43909421  0.43752708  0.18839907  1
  Zn  Zn155  1  0.43876741  0.43794373  0.68973174  1
  Zn  Zn156  1  0.43629482  0.93734252  0.18930168  1
  Zn  Zn157  1  0.43700772  0.93759332  0.68872971  1
  Zn  Zn158  1  0.94079341  0.43507716  0.19041079  1
  Zn  Zn159  1  0.93573604  0.43686653  0.68826016  1
  Zn  Zn160  1  0.93804989  0.94162912  0.18604356  1
  Zn  Zn161  1  0.93565590  0.93700785  0.68655752  1
  Zn  Zn162  1  0.05566724  0.05889401  0.30983586  1
  Zn  Zn163  1  0.06211343  0.06250631  0.81433147  1
  Zn  Zn164  1  0.06177345  0.56030337  0.31197630  1
  Zn  Zn165  1  0.06306137  0.56343354  0.81219602  1
  Zn  Zn166  1  0.56102160  0.06210067  0.31262450  1
  Zn  Zn167  1  0.56518883  0.06275604  0.81241520  1
  Zn  Zn168  1  0.56122401  0.56455312  0.30954223  1
  Zn  Zn169  1  0.56340475  0.56417179  0.81282332  1
  Zn  Zn170  1  0.43817643  0.18898022  0.43950275  1
  Zn  Zn171  1  0.43754320  0.18904936  0.93686609  1
  Zn  Zn172  1  0.43608650  0.68840391  0.43734164  1
  Zn  Zn173  1  0.43999349  0.68506132  0.94094183  1
  Zn  Zn174  1  0.93812493  0.18215763  0.43907597  1
  Zn  Zn175  1  0.93760423  0.18767677  0.93845666  1
  Zn  Zn176  1  0.93760881  0.68818418  0.43791880  1
  Zn  Zn177  1  0.93590552  0.68844927  0.93687707  1
  Zn  Zn178  1  0.06737669  0.31360792  0.06344516  1
  Zn  Zn179  1  0.05896584  0.31203101  0.56121392  1
  Zn  Zn180  1  0.06199479  0.81334716  0.06237094  1
  Zn  Zn181  1  0.06264301  0.81128260  0.56091619  1
  Zn  Zn182  1  0.56370643  0.31498049  0.05949913  1
  Zn  Zn183  1  0.56539842  0.31200001  0.56263768  1
  Zn  Zn184  1  0.56260743  0.81274212  0.05927054  1
  Zn  Zn185  1  0.56160017  0.81291290  0.56043266  1
  O  O186  1  0.11365507  0.12061583  0.11668878  1
  O  O187  1  0.11892232  0.11810181  0.61872893  1
  O  O188  1  0.11250904  0.62334009  0.12395164  1
  O  O189  1  0.11536951  0.61922986  0.62592032  1
  O  O190  1  0.62009850  0.11965955  0.12083386  1
  O  O191  1  0.61848430  0.11661870  0.62046690  1
  O  O192  1  0.62918577  0.61159157  0.12765658  1
  O  O193  1  0.61952502  0.62033792  0.61825365  1
  O  O194  1  0.38494470  0.38328084  0.38079310  1
  O  O195  1  0.38274499  0.38528894  0.87376691  1
  O  O196  1  0.38403573  0.88421346  0.37351085  1
  O  O197  1  0.38035488  0.88141568  0.88091939  1
  O  O198  1  0.88765353  0.38328637  0.36863937  1
  O  O199  1  0.87860164  0.38189601  0.88813786  1
  O  O200  1  0.87757572  0.87809347  0.37988525  1
  O  O201  1  0.88276589  0.86816373  0.88424814  1
  O  O202  1  0.26246563  -0.00657846  0.36784430  1
  O  O203  1  0.25507610  0.00499598  0.87024038  1
  O  O204  1  0.25465554  0.50373136  0.36829619  1
  O  O205  1  0.25940808  0.49956186  0.86835295  1
  O  O206  1  0.75378349  0.00501820  0.36926402  1
  O  O207  1  0.74283395  -0.00347711  0.85949835  1
  O  O208  1  0.76482304  0.50706232  0.37943773  1
  O  O209  1  0.75382794  0.50435950  0.86946099  1
  O  O210  1  0.24936823  0.49534153  0.13380881  1
  O  O211  1  0.24504911  0.49195375  0.63033825  1
  O  O212  1  0.24886133  0.99416815  0.13282519  1
  O  O213  1  0.24473600  0.99336187  0.63208935  1
  O  O214  1  0.74179167  0.48598218  0.12069255  1
  O  O215  1  0.74614406  0.50105003  0.63432695  1
  O  O216  1  0.74379608  0.99417343  0.12989516  1
  O  O217  1  0.74369226  0.99241158  0.63185083  1
  O  O218  1  0.01158981  0.37714561  0.26043008  1
  O  O219  1  0.00478908  0.36535777  0.75007574  1
  O  O220  1  0.00513968  0.87364114  0.25555961  1
  O  O221  1  0.00392613  0.87064199  0.75470431  1
  O  O222  1  0.51015008  0.36955854  0.25609097  1
  O  O223  1  0.50206074  0.37369153  0.76020063  1
  O  O224  1  0.50684294  0.87516956  0.26028135  1
  O  O225  1  0.49383050  0.86683863  0.75874925  1
  O  O226  1  0.49570425  0.13102939  0.24349450  1
  O  O227  1  0.49423873  0.12189673  0.74056843  1
  O  O228  1  0.49515747  0.62959675  0.24424717  1
  O  O229  1  0.49474152  0.63205195  0.74346476  1
  O  O230  1  0.99027678  0.11832360  0.23871656  1
  O  O231  1  0.99360185  0.13072994  0.74610574  1
  O  O232  1  0.99156140  0.62577049  0.23924218  1
  O  O233  1  0.99831808  0.63089627  0.73961712  1
  O  O234  1  0.36848986  0.25057749  0.00701082  1
  O  O235  1  0.37593992  0.25953697  0.50584423  1
  O  O236  1  0.36950239  0.75714029  0.00648406  1
  O  O237  1  0.36830164  0.75229589  0.50737512  1
  O  O238  1  0.86868688  0.26175534  -0.00363553  1
  O  O239  1  0.87642507  0.24628722  0.51413027  1
  O  O240  1  0.86833245  0.75647375  0.00576706  1
  O  O241  1  0.86777550  0.75506474  0.50563473  1
  O  O242  1  0.12324003  0.23258420  0.50638351  1
  O  O243  1  0.13279644  0.24289352  0.99751241  1
  O  O244  1  0.13233840  0.74779236  0.49311641  1
  O  O245  1  0.13063064  0.75106520  0.99352957  1
  O  O246  1  0.62596160  0.24211924  0.49222099  1
  O  O247  1  0.63427850  0.24399600  0.99930065  1
  O  O248  1  0.63025399  0.74389572  0.49438560  1
  O  O249  1  0.63181011  0.74884150  0.99063213  1
  O  O250  1  0.49665756  0.24554440  0.12913033  1
  O  O251  1  0.50164850  0.23563626  0.62619223  1
  O  O252  1  0.48816773  0.75373538  0.12509659  1
  O  O253  1  0.49580718  0.74570073  0.62899016  1
  O  O254  1  1.00192592  0.23642948  0.11772717  1
  O  O255  1  0.99245297  0.24411876  0.63568073  1
  O  O256  1  0.99278147  0.73976110  0.12312348  1
  O  O257  1  0.99530390  0.74364911  0.63051655  1
  O  O258  1  -0.00626578  0.26284013  0.37548708  1
  O  O259  1  0.00087295  0.25077362  0.86165467  1
  O  O260  1  0.00607264  0.75569498  0.37347769  1
  O  O261  1  0.00471456  0.75625312  0.86997882  1
  O  O262  1  0.50690394  0.25636646  0.36916704  1
  O  O263  1  0.50049074  0.26144675  0.87440612  1
  O  O264  1  0.50545873  0.76003454  0.37454676  1
  O  O265  1  0.50655915  0.75424091  0.87056552  1
  O  O266  1  0.23352023  0.12590878  0.50604477  1
  O  O267  1  0.24461453  0.12924980  0.99546135  1
  O  O268  1  0.24838238  0.63135610  0.49347394  1
  O  O269  1  0.24586460  0.63457341  0.99698252  1
  O  O270  1  0.74438246  0.12606540  0.49277941  1
  O  O271  1  0.74734071  0.13300096  1.00201331  1
  O  O272  1  0.74460003  0.63044656  0.49459001  1
  O  O273  1  0.74943772  0.63211527  0.99385812  1
  O  O274  1  0.25072696  0.36882767  0.00707745  1
  O  O275  1  0.25600844  0.37883875  0.51026447  1
  O  O276  1  0.25533894  0.87168482  0.00505891  1
  O  O277  1  0.25022900  0.86798911  0.50787111  1
  O  O278  1  0.75870454  0.36904300  0.00750600  1
  O  O279  1  0.75810234  0.36876330  0.50207549  1
  O  O280  1  0.75461562  0.87040703  0.00566366  1
  O  O281  1  0.75452535  0.86923308  0.50933399  1
  O  O282  1  0.13714693  0.49201788  0.25042989  1
  O  O283  1  0.12989786  0.49373874  0.74433284  1
  O  O284  1  0.13125046  0.99336592  0.24991095  1
  O  O285  1  0.12971366  0.99454293  0.74553591  1
  O  O286  1  0.62249067  0.48650037  0.24402527  1
  O  O287  1  0.63480662  0.50097889  0.74415234  1
  O  O288  1  0.63112203  0.99534661  0.24471842  1
  O  O289  1  0.63529893  1.00556814  0.73632737  1
  O  O290  1  0.36922245  0.00683929  0.25614280  1
  O  O291  1  0.36821464  0.00505142  0.75637609  1
  O  O292  1  0.36306386  0.49775070  0.25621301  1
  O  O293  1  0.37038174  0.50599465  0.75749030  1
  O  O294  1  0.86743596  0.00411827  0.25643805  1
  O  O295  1  0.86534555  0.00972460  0.74231662  1
  O  O296  1  0.88078528  0.51167742  0.25764633  1
  O  O297  1  0.86635092  0.50032047  0.75761018  1
  O  O298  1  0.11110799  0.37781759  0.36814293  1
  O  O299  1  0.12183927  0.37141453  0.86533996  1
  O  O300  1  0.11898534  0.86981228  0.37030720  1
  O  O301  1  0.11707243  0.87003557  0.86904363  1
  O  O302  1  0.62312964  0.37134971  0.36774855  1
  O  O303  1  0.61419418  0.37584207  0.87373488  1
  O  O304  1  0.61868447  0.87163452  0.37130551  1
  O  O305  1  0.61759226  0.86192770  0.88024367  1
  O  O306  1  0.38113200  0.13079523  0.13188780  1
  O  O307  1  0.38483378  0.12171609  0.62903295  1
  O  O308  1  0.37383036  0.63847296  0.12577096  1
  O  O309  1  0.38122313  0.63031085  0.62997865  1
  O  O310  1  0.88308439  0.12063852  0.13536380  1
  O  O311  1  0.87963932  0.13159432  0.63478968  1
  O  O312  1  0.87998728  0.62770664  0.13117358  1
  O  O313  1  0.88335226  0.63096391  0.62591507  1
  O  O314  1  0.25770178  0.25564485  0.11785437  1
  O  O315  1  0.25048660  0.26353309  0.62193196  1
  O  O316  1  0.25726167  0.75689162  0.11931746  1
  O  O317  1  0.25496581  0.75434252  0.62137591  1
  O  O318  1  0.74519789  0.26259755  0.11279811  1
  O  O319  1  0.76084468  0.24926606  0.62634141  1
  O  O320  1  0.75421708  0.75608335  0.11935552  1
  O  O321  1  0.75240780  0.75604383  0.62165377  1
  O  O322  1  0.25502399  0.25854002  0.38272884  1
  O  O323  1  0.25129749  0.24306684  0.88005742  1
  O  O324  1  0.24551704  0.74561882  0.37992688  1
  O  O325  1  0.24348619  0.75117215  0.88103603  1
  O  O326  1  0.74348247  0.24197054  0.37550749  1
  O  O327  1  0.74890686  0.24966044  0.89050779  1
  O  O328  1  0.74458342  0.74407007  0.38148876  1
  O  O329  1  0.74249385  0.74646262  0.87800463  1
  O  O330  1  0.00111672  0.11843318  0.00477554  1
  O  O331  1  0.00984723  0.12085934  0.50771666  1
  O  O332  1  -0.00322391  0.61614650  0.00935396  1
  O  O333  1  0.00167971  0.62637176  0.51403537  1
  O  O334  1  0.50482351  0.11963132  0.00618820  1
  O  O335  1  0.50668556  0.12170609  0.50969175  1
  O  O336  1  0.50473096  0.62009727  0.00763312  1
  O  O337  1  0.50574563  0.62025665  0.50476465  1
  O  O338  1  0.49727028  0.38164751  0.49517282  1
  O  O339  1  0.49649676  0.37914198  0.98910208  1
  O  O340  1  0.49861875  0.87804247  0.48750816  1
  O  O341  1  0.49419418  0.88231693  0.99300169  1
  O  O342  1  0.99844578  0.37575206  0.48463830  1
  O  O343  1  0.99376577  0.38316962  1.00293600  1
  O  O344  1  0.99200851  0.87544598  0.49400876  1
  O  O345  1  0.99406808  0.88257396  0.99618723  1
  O  O346  1  0.49666669  0.49570114  0.38080816  1
  O  O347  1  0.49109258  0.49373198  0.87351910  1
  O  O348  1  0.49185136  0.99147121  0.37478643  1
  O  O349  1  0.49512020  0.99554586  0.87991921  1
  O  O350  1  0.98969753  0.49645986  0.37588791  1
  O  O351  1  0.99408495  0.50083390  0.88536607  1
  O  O352  1  0.99076605  0.99038040  0.37721252  1
  O  O353  1  1.00429883  0.99394773  0.88797697  1
  O  O354  1  0.00127942  0.00622651  0.11185079  1
  O  O355  1  0.00613263  0.00491555  0.62481142  1
  O  O356  1  -0.00029881  0.50823349  0.11712694  1
  O  O357  1  0.00363241  0.50858179  0.62594227  1
  O  O358  1  0.50479661  0.00498388  0.12004660  1
  O  O359  1  0.50859028  0.00628533  0.62538921  1
  O  O360  1  0.51277160  0.49760081  0.12455824  1
  O  O361  1  0.50537081  0.50681029  0.61976958  1
  O  O362  1  0.24349993  0.38256184  0.24586346  1
  O  O363  1  0.24575053  0.37954354  0.74063582  1
  O  O364  1  0.24364189  0.88141852  0.24464389  1
  O  O365  1  0.24370100  0.88038478  0.74557613  1
  O  O366  1  0.74054995  0.36643069  0.24055379  1
  O  O367  1  0.75013672  0.38756914  0.75119134  1
  O  O368  1  0.74538209  0.88001800  0.24443118  1
  O  O369  1  0.75793882  0.88209939  0.73680559  1
  O  O370  1  0.25329613  0.12119002  0.24886306  1
  O  O371  1  0.25438921  0.11905200  0.75388025  1
  O  O372  1  0.25090223  0.61516573  0.25517063  1
  O  O373  1  0.25714862  0.61811050  0.75089195  1
  O  O374  1  0.75707326  0.11934343  0.25360182  1
  O  O375  1  0.75843562  0.11509047  0.75175469  1
  O  O376  1  0.76272163  0.63016961  0.25700081  1
  O  O377  1  0.75221678  0.61372814  0.75686574  1
  O  O378  1  0.38380999  0.11383615  0.36799525  1
  O  O379  1  0.36998646  0.11843919  0.86989703  1
  O  O380  1  0.36806676  0.61862572  0.37339363  1
  O  O381  1  0.37516994  0.61600514  0.86875030  1
  O  O382  1  0.87114156  0.11819731  0.36718832  1
  O  O383  1  0.87294484  0.12946506  0.86098895  1
  O  O384  1  0.87219627  0.62015123  0.36765710  1
  O  O385  1  0.86770278  0.61819133  0.87419420  1
  O  O386  1  0.13145643  0.37590745  0.13708014  1
  O  O387  1  0.13163550  0.37977299  0.62876796  1
  O  O388  1  0.13085313  0.87561183  0.13202963  1
  O  O389  1  0.12959473  0.87876886  0.63138399  1
  O  O390  1  0.63254259  0.38090236  0.13219726  1
  O  O391  1  0.62802531  0.38406859  0.62678945  1
  O  O392  1  0.63012690  0.88052347  0.12976632  1
  O  O393  1  0.63539661  0.88337058  0.61816052  1
  O  O394  1  0.13764575  0.25672174  0.25253855  1
  O  O395  1  0.11466922  0.25406469  0.74785046  1
  O  O396  1  0.12384628  0.75724324  0.25694828  1
  O  O397  1  0.11904892  0.75666850  0.75518178  1
  O  O398  1  0.62047176  0.25807748  0.25439116  1
  O  O399  1  0.62198138  0.25151628  0.75524434  1
  O  O400  1  0.62507445  0.75797117  0.25715578  1
  O  O401  1  0.61890463  0.74416214  0.76154860  1
  O  O402  1  0.38280020  0.24643458  0.24405308  1
  O  O403  1  0.37866313  0.23992135  0.74463431  1
  O  O404  1  0.37464745  0.75148095  0.23796387  1
  O  O405  1  0.38079642  0.74471937  0.74442425  1
  O  O406  1  0.87046674  0.23628421  0.25336590  1
  O  O407  1  0.88135323  0.24289122  0.74405508  1
  O  O408  1  0.87770616  0.73944582  0.24298595  1
  O  O409  1  0.88153058  0.74772616  0.74283054  1
  O  O410  1  0.38227193  0.49546006  0.49501740  1
  O  O411  1  0.37391374  0.49911139  0.98750329  1
  O  O412  1  0.37637472  0.99792625  0.48913734  1
  O  O413  1  0.38061415  0.99611616  0.99515731  1
  O  O414  1  0.88059343  0.49844062  0.48854927  1
  O  O415  1  0.88292397  0.49144121  0.99674781  1
  O  O416  1  0.87455907  0.99390016  0.49317196  1
  O  O417  1  0.88385792  0.99294095  1.00402332  1
  O  O418  1  0.11465812  0.00645258  0.00187520  1
  O  O419  1  0.12379589  0.00879579  0.50764324  1
  O  O420  1  0.11281988  0.49993886  0.00184322  1
  O  O421  1  0.12166389  0.50298223  0.50876643  1
  O  O422  1  0.61977835  0.00488193  0.00664921  1
  O  O423  1  0.62490139  0.00658994  0.51198273  1
  O  O424  1  0.62487904  0.50061745  0.01224390  1
  O  O425  1  0.62093420  0.50588764  0.50435533  1
  O  O426  1  0.36909998  0.36862915  0.12499901  1
  O  O427  1  0.36656696  0.37743666  0.62030021  1
  O  O428  1  0.36923788  0.86937509  0.11960690  1
  O  O429  1  0.36817389  0.86902654  0.62424222  1
  O  O430  1  0.86738781  0.38273490  0.11686855  1
  O  O431  1  0.87494260  0.36260972  0.62420259  1
  O  O432  1  0.86906026  0.86969643  0.11914092  1
  O  O433  1  0.86598543  0.86916564  0.61882824  1
  O  O434  1  0.11843894  0.11871527  0.38949850  1
  O  O435  1  0.13234160  0.12730391  0.88066623  1
  O  O436  1  0.13098311  0.63132576  0.37484368  1
  O  O437  1  0.12630500  0.63430169  0.87721618  1
  O  O438  1  0.63000710  0.12868723  0.37875262  1
  O  O439  1  0.62909490  0.12479370  0.88557891  1
  O  O440  1  0.63033203  0.62945176  0.37944637  1
  O  O441  1  0.63071393  0.63533931  0.87772347  1
