# generated using pymatgen
data_V93Zn93O256
_symmetry_space_group_name_H-M   'P 1'
_cell_length_a   17.06100265
_cell_length_b   17.05837697
_cell_length_c   17.05635690
_cell_angle_alpha   90.03461068
_cell_angle_beta   89.94865038
_cell_angle_gamma   89.98784233
_symmetry_Int_Tables_number   1
_chemical_formula_structural   V93Zn93O256
_chemical_formula_sum   'V93 Zn93 O256'
_cell_volume   4963.95995756
_cell_formula_units_Z   1
loop_
 _symmetry_equiv_pos_site_id
 _symmetry_equiv_pos_as_xyz
  1  'x, y, z'
loop_
 _atom_site_type_symbol
 _atom_site_label
 _atom_site_symmetry_multiplicity
 _atom_site_fract_x
 _atom_site_fract_y
 _atom_site_fract_z
 _atom_site_occupancy
  V  V0  1  0.25012516  0.12406934  0.87357288  1
  V  V1  1  0.37652312  0.12556462  0.25024076  1
  V  V2  1  0.87587901  0.75088531  0.62632773  1
  V  V3  1  0.37437267  0.12247702  0.75055585  1
  V  V4  1  0.37238472  0.62596866  0.24964809  1
  V  V5  1  0.87867274  -0.00467128  0.87387856  1
  V  V6  1  0.37563448  0.49693679  0.37720894  1
  V  V7  1  0.00014731  0.49885827  -0.00091227  1
  V  V8  1  0.87395765  0.24963132  0.12350748  1
  V  V9  1  0.87714125  0.87458024  -0.00166164  1
  V  V10  1  0.75068337  0.74982250  0.00025834  1
  V  V11  1  0.50119041  0.24734252  0.75093501  1
  V  V12  1  0.37492991  0.74574886  0.62710743  1
  V  V13  1  0.49371102  0.37659325  0.87673337  1
  V  V14  1  0.62692376  0.37462361  0.75164752  1
  V  V15  1  0.87758267  0.62583380  0.75179641  1
  V  V16  1  0.25036647  0.00035599  0.24990263  1
  V  V17  1  0.62511432  0.87564505  0.74980959  1
  V  V18  1  0.12495595  0.12344741  -0.00084120  1
  V  V19  1  0.75048079  0.12506361  0.37459268  1
  V  V20  1  0.87858938  0.25002134  0.63088476  1
  V  V21  1  0.12530439  0.12538085  0.50080714  1
  V  V22  1  0.25018243  0.87505255  0.12438133  1
  V  V23  1  0.37395610  0.24743185  0.62260318  1
  V  V24  1  0.87514551  0.74926099  0.12468332  1
  V  V25  1  0.62631458  0.24953979  0.87639944  1
  V  V26  1  0.49876578  0.87703099  0.87580349  1
  V  V27  1  0.62410831  0.49590585  0.13326522  1
  V  V28  1  0.00076854  -0.00531393  -0.00333118  1
  V  V29  1  0.12209798  0.87407773  0.74494914  1
  V  V30  1  0.75085701  0.12513028  0.87440180  1
  V  V31  1  0.12546370  0.62503375  -0.00232731  1
  V  V32  1  0.74982351  0.37552028  0.62447501  1
  V  V33  1  0.49946638  0.62514233  0.12454122  1
  V  V34  1  0.00010576  0.00079761  0.49985636  1
  V  V35  1  0.62586622  0.00085391  0.62473481  1
  V  V36  1  0.12378266  0.62707504  0.50017851  1
  V  V37  1  0.74907929  0.74662708  0.49968306  1
  V  V38  1  0.12231807  0.24898158  0.87275607  1
  V  V39  1  0.12485180  -0.00022318  0.12327076  1
  V  V40  1  0.26047174  0.62163094  0.87046297  1
  V  V41  1  -0.00070546  0.24781974  0.24851251  1
  V  V42  1  0.75004643  0.49965355  0.75172366  1
  V  V43  1  0.12483381  0.24971410  0.37484471  1
  V  V44  1  0.49973161  -0.00059571  0.50012333  1
  V  V45  1  0.49411134  0.49930656  -0.00309633  1
  V  V46  1  0.12400257  0.37445747  0.24905470  1
  V  V47  1  0.12434808  0.50076423  0.62607221  1
  V  V48  1  0.37499443  0.25144264  0.12378511  1
  V  V49  1  0.62575268  0.74714143  0.37649983  1
  V  V50  1  0.62542530  0.62468303  0.00162687  1
  V  V51  1  0.87439010  0.00130854  0.37424709  1
  V  V52  1  0.75189623  0.62433285  0.87699031  1
  V  V53  1  0.37087732  0.87646402  0.50546498  1
  V  V54  1  0.74987181  0.87465995  0.12498141  1
  V  V55  1  0.87622730  0.49951303  0.87644030  1
  V  V56  1  -0.00391001  0.49890665  0.49848674  1
  V  V57  1  0.12156863  0.37127432  0.75013850  1
  V  V58  1  0.49646455  0.74502490  0.74640055  1
  V  V59  1  0.11987391  0.75467404  0.87355400  1
  V  V60  1  0.24791343  0.50085824  0.24911171  1
  V  V61  1  0.00026883  0.75075945  0.25076491  1
  V  V62  1  0.62490977  0.12545857  0.00069087  1
  V  V63  1  0.37544669  0.87547785  -0.00068499  1
  V  V64  1  0.24889811  0.37281299  0.62233066  1
  V  V65  1  0.49930293  0.75146758  0.25025770  1
  V  V66  1  0.25009455  0.24986284  -0.00081591  1
  V  V67  1  0.50333824  0.25875882  0.25028635  1
  V  V68  1  0.62477067  0.12624779  0.49912780  1
  V  V69  1  0.24983836  0.74918109  -0.00209724  1
  V  V70  1  0.26115372  0.50344161  0.75196069  1
  V  V71  1  -0.00081510  0.36984908  0.87227682  1
  V  V72  1  0.00001038  0.87450649  0.37374098  1
  V  V73  1  0.00115204  0.12838504  0.63211006  1
  V  V74  1  -0.00007353  0.62420613  0.12510226  1
  V  V75  1  0.12440494  0.50004099  0.12405151  1
  V  V76  1  0.74563679  0.37481157  0.13108682  1
  V  V77  1  0.62546617  0.87594212  0.24972895  1
  V  V78  1  0.24940886  0.37487346  0.12245550  1
  V  V79  1  0.24756256  0.75541495  0.50592370  1
  V  V80  1  0.87173276  0.62016551  0.25233132  1
  V  V81  1  -0.00038557  0.62655918  0.62758920  1
  V  V82  1  0.75085423  0.87679798  0.62457717  1
  V  V83  1  0.87598139  0.87560240  0.50013352  1
  V  V84  1  0.62567565  0.75099663  0.87549695  1
  V  V85  1  0.24776643  0.62683814  0.37508376  1
  V  V86  1  0.50109817  0.12519788  0.62514597  1
  V  V87  1  0.49984311  0.87621236  0.37653214  1
  V  V88  1  0.75249401  0.00149241  0.74979961  1
  V  V89  1  0.62530155  0.25828649  0.37189111  1
  V  V90  1  0.62461248  0.00068403  0.12473412  1
  V  V91  1  0.37434990  0.75088192  0.12538468  1
  V  V92  1  0.24993736  -0.00714526  0.74377693  1
  Zn  Zn93  1  0.44396275  0.58382448  0.68287444  1
  Zn  Zn94  1  0.25134659  0.24935614  0.49724563  1
  Zn  Zn95  1  0.50102481  0.12701873  0.12448965  1
  Zn  Zn96  1  0.74352195  0.49494803  0.25688773  1
  Zn  Zn97  1  0.49744224  0.00180468  0.00003844  1
  Zn  Zn98  1  0.75060682  0.25251896  0.00045664  1
  Zn  Zn99  1  -0.00342499  0.37582168  0.37560599  1
  Zn  Zn100  1  0.37312107  -0.00031372  0.87563487  1
  Zn  Zn101  1  0.12834071  -0.00766878  0.62083579  1
  Zn  Zn102  1  0.88214421  0.12850566  0.75469444  1
  Zn  Zn103  1  0.75061213  0.25199681  0.49988865  1
  Zn  Zn104  1  0.37497208  0.00081249  0.37586697  1
  Zn  Zn105  1  0.60898147  0.62815751  0.51678513  1
  Zn  Zn106  1  0.12479043  0.87427044  0.25023890  1
  Zn  Zn107  1  0.74867984  0.62028442  0.37698483  1
  Zn  Zn108  1  0.87280787  0.37451548  -0.00066316  1
  Zn  Zn109  1  0.75224727  -0.00005482  0.24952008  1
  Zn  Zn110  1  0.49803643  0.50308924  0.51060257  1
  Zn  Zn111  1  0.87507280  0.12287383  0.24886144  1
  Zn  Zn112  1  0.25097359  0.12428535  0.37648354  1
  Zn  Zn113  1  0.12546365  0.75262320  0.37403758  1
  Zn  Zn114  1  0.50463431  0.37900359  0.37787652  1
  Zn  Zn115  1  0.61688787  0.50821212  0.62887136  1
  Zn  Zn116  1  0.37854941  0.37174951  0.49755538  1
  Zn  Zn117  1  0.37070392  0.37867423  -0.00476153  1
  Zn  Zn118  1  -0.00237866  0.12315569  0.12376700  1
  Zn  Zn119  1  0.87463632  0.37292108  0.49879161  1
  Zn  Zn120  1  0.86920311  0.49509122  0.37582459  1
  Zn  Zn121  1  -0.00299828  0.75823872  0.75505568  1
  Zn  Zn122  1  0.18777563  0.18568498  0.18520614  1
  Zn  Zn123  1  0.18810313  0.18570934  0.68794132  1
  Zn  Zn124  1  0.18555779  0.68870505  0.18717863  1
  Zn  Zn125  1  0.18837322  0.68790231  0.68879240  1
  Zn  Zn126  1  0.68808441  0.18838406  0.18976332  1
  Zn  Zn127  1  0.69038699  0.18885036  0.68823016  1
  Zn  Zn128  1  0.68754588  0.68620876  0.18812781  1
  Zn  Zn129  1  0.68890922  0.68840750  0.69015837  1
  Zn  Zn130  1  0.31129499  0.31275592  0.30993947  1
  Zn  Zn131  1  0.31027170  0.31028694  0.80908679  1
  Zn  Zn132  1  0.31262997  0.81416750  0.31661139  1
  Zn  Zn133  1  0.31011396  0.81094082  0.81234113  1
  Zn  Zn134  1  0.81355915  0.31299381  0.31366656  1
  Zn  Zn135  1  0.81335420  0.31119504  0.81146699  1
  Zn  Zn136  1  0.81340740  0.81220145  0.31173410  1
  Zn  Zn137  1  0.81224646  0.81360438  0.81219819  1
  Zn  Zn138  1  0.18453512  0.43881091  0.43634354  1
  Zn  Zn139  1  0.18784544  0.43930044  0.93444250  1
  Zn  Zn140  1  0.18648790  0.93770479  0.43444760  1
  Zn  Zn141  1  0.18845383  0.93617494  0.93295729  1
  Zn  Zn142  1  0.68504205  0.44437086  0.44439735  1
  Zn  Zn143  1  0.68561527  0.43632522  0.94290293  1
  Zn  Zn144  1  0.68784151  0.93721906  0.43761386  1
  Zn  Zn145  1  0.68931809  0.93875506  0.93797599  1
  Zn  Zn146  1  0.31339085  0.06295984  0.06230417  1
  Zn  Zn147  1  0.31178327  0.06291458  0.56321513  1
  Zn  Zn148  1  0.31111569  0.56428264  0.06126529  1
  Zn  Zn149  1  0.30733922  0.56257982  0.55926613  1
  Zn  Zn150  1  0.81171429  0.06344702  0.06136252  1
  Zn  Zn151  1  0.81474760  0.06579257  0.56173154  1
  Zn  Zn152  1  0.81186942  0.55940052  0.06465337  1
  Zn  Zn153  1  0.81115838  0.56275788  0.56617005  1
  Zn  Zn154  1  0.43515178  0.43805516  0.18672995  1
  Zn  Zn155  1  0.43672050  0.42166211  0.68810317  1
  Zn  Zn156  1  0.43846558  0.93816965  0.18669232  1
  Zn  Zn157  1  0.43644655  0.93552840  0.68737095  1
  Zn  Zn158  1  0.93588025  0.43453607  0.18676700  1
  Zn  Zn159  1  0.93623529  0.43845823  0.68758163  1
  Zn  Zn160  1  0.93750982  0.93773147  0.18709566  1
  Zn  Zn161  1  0.94227619  0.93953078  0.68725812  1
  Zn  Zn162  1  0.06262469  0.06233566  0.31247975  1
  Zn  Zn163  1  0.06554978  0.05749042  0.81295047  1
  Zn  Zn164  1  0.06091625  0.56418091  0.31405743  1
  Zn  Zn165  1  0.06700237  0.56199347  0.81242603  1
  Zn  Zn166  1  0.56256043  0.06508102  0.31230521  1
  Zn  Zn167  1  0.56421103  0.06196561  0.81244556  1
  Zn  Zn168  1  0.55804729  0.56600019  0.31569882  1
  Zn  Zn169  1  0.56663378  0.56067682  0.81652999  1
  Zn  Zn170  1  0.43892652  0.18862652  0.43586333  1
  Zn  Zn171  1  0.43721701  0.18807591  0.93727268  1
  Zn  Zn172  1  0.43493505  0.68644744  0.43885871  1
  Zn  Zn173  1  0.43928009  0.68919472  0.93701065  1
  Zn  Zn174  1  0.93639502  0.18909606  0.44189899  1
  Zn  Zn175  1  0.93806902  0.18442349  0.93953243  1
  Zn  Zn176  1  0.93691687  0.68665462  0.43648912  1
  Zn  Zn177  1  0.93906787  0.68681431  0.93851289  1
  Zn  Zn178  1  0.06197728  0.31214979  0.06002107  1
  Zn  Zn179  1  0.06096004  0.31161895  0.56323127  1
  Zn  Zn180  1  0.06356894  0.81292737  0.06298449  1
  Zn  Zn181  1  0.06208195  0.81320260  0.56473246  1
  Zn  Zn182  1  0.56176215  0.31329238  0.06332626  1
  Zn  Zn183  1  0.56278550  0.31667269  0.55889619  1
  Zn  Zn184  1  0.56239807  0.81323541  0.06221553  1
  Zn  Zn185  1  0.56022611  0.81133043  0.56409697  1
  O  O186  1  0.12464671  0.11743456  0.11603447  1
  O  O187  1  0.11765172  0.12816299  0.61475311  1
  O  O188  1  0.11978473  0.61960990  0.11840059  1
  O  O189  1  0.11983958  0.62043403  0.61996274  1
  O  O190  1  0.62684028  0.11737432  0.11750188  1
  O  O191  1  0.62051227  0.12057850  0.62020480  1
  O  O192  1  0.61867795  0.61916443  0.11990842  1
  O  O193  1  0.62806893  0.62267775  0.62873341  1
  O  O194  1  0.36952302  0.38593768  0.37554412  1
  O  O195  1  0.38981379  0.36747303  0.87406006  1
  O  O196  1  0.38233402  0.87631543  0.38684539  1
  O  O197  1  0.38434742  0.87329632  0.88049046  1
  O  O198  1  0.87945287  0.37694036  0.38054459  1
  O  O199  1  0.88422915  0.37974653  0.87436781  1
  O  O200  1  0.87964076  0.88074587  0.38088907  1
  O  O201  1  0.86818092  0.88747850  0.88199739  1
  O  O202  1  0.25240725  0.00195638  0.36163568  1
  O  O203  1  0.25107418  0.00715009  0.86490046  1
  O  O204  1  0.25387249  0.50611709  0.36817283  1
  O  O205  1  0.24577955  0.50794490  0.86412257  1
  O  O206  1  0.75477698  0.00833167  0.37494872  1
  O  O207  1  0.75851688  0.00505117  0.87049294  1
  O  O208  1  0.75065029  0.50391760  0.37224049  1
  O  O209  1  0.75552668  0.50452975  0.87308995  1
  O  O210  1  0.24356592  0.49604584  0.12907029  1
  O  O211  1  0.24353774  0.49235283  0.63091072  1
  O  O212  1  0.24575888  0.99482593  0.13157028  1
  O  O213  1  0.24630228  1.00718908  0.63920371  1
  O  O214  1  0.74001770  0.49292341  0.12608650  1
  O  O215  1  0.75470780  0.48839165  0.63510388  1
  O  O216  1  0.74000810  0.99404660  0.12474758  1
  O  O217  1  0.74589864  0.99602162  0.62891290  1
  O  O218  1  0.00631314  0.36351559  0.24950931  1
  O  O219  1  0.01103531  0.38292104  0.76023080  1
  O  O220  1  -0.00055709  0.86831691  0.25545919  1
  O  O221  1  0.01385693  0.87581022  0.74999666  1
  O  O222  1  0.49244598  0.36164838  0.25375906  1
  O  O223  1  0.50656313  0.36626668  0.75973002  1
  O  O224  1  0.50501404  0.87014252  0.25508368  1
  O  O225  1  0.50538288  0.86761223  0.75776559  1
  O  O226  1  0.48992673  0.13284261  0.24842033  1
  O  O227  1  0.49589315  0.12848336  0.74520116  1
  O  O228  1  0.49206339  0.63282840  0.24369374  1
  O  O229  1  0.50023593  0.64063696  0.76387337  1
  O  O230  1  0.99995621  0.13686819  0.24667327  1
  O  O231  1  1.00267380  0.11772923  0.73610212  1
  O  O232  1  0.99243729  0.62991182  0.24385515  1
  O  O233  1  0.99458922  0.62432862  0.74429935  1
  O  O234  1  0.36778976  0.25079218  0.00614603  1
  O  O235  1  0.37046817  0.24942192  0.50627733  1
  O  O236  1  0.36981771  0.75534948  0.00663842  1
  O  O237  1  0.36732055  0.75804617  0.50662210  1
  O  O238  1  0.87403129  0.25050737  0.01157918  1
  O  O239  1  0.87136350  0.25202749  0.51380357  1
  O  O240  1  0.87064035  0.75414508  0.00466605  1
  O  O241  1  0.86777053  0.75630647  0.50518154  1
  O  O242  1  0.12378171  0.24250644  0.49068554  1
  O  O243  1  0.13050479  0.24354669  0.99369235  1
  O  O244  1  0.13280349  0.74641868  0.49995671  1
  O  O245  1  0.13044713  0.74554838  0.99347179  1
  O  O246  1  0.62561814  0.24269384  0.49036311  1
  O  O247  1  0.62550895  0.23999372  0.99607220  1
  O  O248  1  0.63289466  0.75332453  0.49238324  1
  O  O249  1  0.63067073  0.74482092  0.99575014  1
  O  O250  1  0.49500625  0.24908306  0.13364597  1
  O  O251  1  0.49563445  0.24452939  0.63128399  1
  O  O252  1  0.49480021  0.74543580  0.12991639  1
  O  O253  1  0.49141624  0.75355741  0.63653546  1
  O  O254  1  0.99254016  0.24954820  0.13147748  1
  O  O255  1  0.99160928  0.23971069  0.61998403  1
  O  O256  1  0.99434111  0.74390641  0.12878750  1
  O  O257  1  0.99213385  0.74357678  0.62674968  1
  O  O258  1  0.00915993  0.24934919  0.36654731  1
  O  O259  1  0.00509764  0.26147655  0.88089326  1
  O  O260  1  -0.00020444  0.75688708  0.36917710  1
  O  O261  1  0.01464166  0.74251274  0.87373597  1
  O  O262  1  0.50859125  0.25089112  0.36720373  1
  O  O263  1  0.50693984  0.25605303  0.87072937  1
  O  O264  1  0.50719552  0.75660374  0.36982216  1
  O  O265  1  0.50506632  0.76011441  0.86914121  1
  O  O266  1  0.23792175  0.12615630  0.49850516  1
  O  O267  1  0.24453059  0.12963590  0.99367820  1
  O  O268  1  0.24266935  0.63488959  0.49457373  1
  O  O269  1  0.24409683  0.62920420  0.99273150  1
  O  O270  1  0.74350786  0.12543043  0.49005943  1
  O  O271  1  0.73904215  0.12600917  0.99359388  1
  O  O272  1  0.75320354  0.64132246  0.49969210  1
  O  O273  1  0.74584955  0.63030375  0.99643676  1
  O  O274  1  0.25019780  0.36943455  0.00351407  1
  O  O275  1  0.24551896  0.37423359  0.51422259  1
  O  O276  1  0.25562382  0.86894843  0.00416180  1
  O  O277  1  0.25891385  0.86728865  0.49301635  1
  O  O278  1  0.75259712  0.37243490  0.01255912  1
  O  O279  1  0.75135001  0.37489501  0.51504199  1
  O  O280  1  0.75562941  0.86872119  0.00535677  1
  O  O281  1  0.75555076  0.86748861  0.50517645  1
  O  O282  1  0.12827598  0.49561093  0.24407772  1
  O  O283  1  0.13312611  0.48904971  0.74464830  1
  O  O284  1  0.13511305  1.00097580  0.24306114  1
  O  O285  1  0.13299660  0.99045999  0.74919543  1
  O  O286  1  0.62238903  0.50851679  0.23614790  1
  O  O287  1  0.63363453  0.49184976  0.75262666  1
  O  O288  1  0.62633927  0.99523627  0.24064385  1
  O  O289  1  0.63157893  0.99493244  0.74424484  1
  O  O290  1  0.36794874  0.00850538  0.24807507  1
  O  O291  1  0.36766006  0.00398024  0.75102965  1
  O  O292  1  0.36628993  0.50629787  0.25450208  1
  O  O293  1  0.36253134  0.50050208  0.73960766  1
  O  O294  1  0.87286561  0.00318977  0.25740372  1
  O  O295  1  0.87117851  0.00023882  0.75923656  1
  O  O296  1  0.87530409  0.51093900  0.24903313  1
  O  O297  1  0.87003757  0.50620814  0.75777235  1
  O  O298  1  0.12247076  0.36554227  0.36835092  1
  O  O299  1  0.11805745  0.37027983  0.86821350  1
  O  O300  1  0.11546856  0.87357655  0.37113395  1
  O  O301  1  0.13105277  0.86167545  0.86655041  1
  O  O302  1  0.62840137  0.36039607  0.37954987  1
  O  O303  1  0.61748559  0.36848691  0.87210020  1
  O  O304  1  0.62038151  0.86693559  0.37034254  1
  O  O305  1  0.61897898  0.87073373  0.87100104  1
  O  O306  1  0.37645047  0.13160068  0.13390003  1
  O  O307  1  0.38209262  0.12849872  0.63066691  1
  O  O308  1  0.37932705  0.63145342  0.12990128  1
  O  O309  1  0.36895957  0.64006905  0.62058772  1
  O  O310  1  0.87421045  0.13594544  0.12716024  1
  O  O311  1  0.88407073  0.13144105  0.62649996  1
  O  O312  1  0.88032792  0.62966440  0.13119611  1
  O  O313  1  0.87906941  0.63171579  0.63283599  1
  O  O314  1  0.25369561  0.25565852  0.11895652  1
  O  O315  1  0.25416381  0.25822468  0.62523787  1
  O  O316  1  0.25482443  0.75446755  0.11862186  1
  O  O317  1  0.25684745  0.74756945  0.61282031  1
  O  O318  1  0.75702370  0.25664416  0.12598431  1
  O  O319  1  0.75771010  0.25869338  0.62476980  1
  O  O320  1  0.75486916  0.75444489  0.11873164  1
  O  O321  1  0.75594039  0.75808360  0.61836127  1
  O  O322  1  0.23612928  0.24764545  0.37349120  1
  O  O323  1  0.24332063  0.24436912  0.87919095  1
  O  O324  1  0.25002062  0.74475798  0.38637207  1
  O  O325  1  0.24146419  0.74178898  0.87921767  1
  O  O326  1  0.74282911  0.24133132  0.37522964  1
  O  O327  1  0.74456229  0.24370591  0.87710045  1
  O  O328  1  0.74178728  0.75290388  0.38403135  1
  O  O329  1  0.74539969  0.74512350  0.88090995  1
  O  O330  1  0.00676720  0.11295151  0.00172494  1
  O  O331  1  0.00885447  0.12032002  0.50634729  1
  O  O332  1  0.00572473  0.61882214  0.00610007  1
  O  O333  1  0.00400167  0.61905405  0.50686056  1
  O  O334  1  0.51229811  0.12304504  0.00080831  1
  O  O335  1  0.50468606  0.11904899  0.50580713  1
  O  O336  1  0.50503426  0.61914955  0.00395788  1
  O  O337  1  0.49831515  0.61849914  0.49592037  1
  O  O338  1  0.49499672  0.38264699  0.49571718  1
  O  O339  1  0.49863950  0.38203671  0.99269059  1
  O  O340  1  0.49243988  0.88013313  0.49610657  1
  O  O341  1  0.49547752  0.87428354  0.99034335  1
  O  O342  1  1.00049024  0.38817040  0.50177817  1
  O  O343  1  1.00034217  0.38139832  0.98877121  1
  O  O344  1  0.99458932  0.88051072  0.49523216  1
  O  O345  1  0.99386135  0.88670890  1.00509204  1
  O  O346  1  0.48378383  0.49699751  0.36652960  1
  O  O347  1  0.50799929  0.48891712  0.88599293  1
  O  O348  1  0.49976813  0.99433242  0.38193020  1
  O  O349  1  0.49989624  0.98658642  0.87433837  1
  O  O350  1  0.99952950  0.49954410  0.38742914  1
  O  O351  1  0.99660003  0.49184673  0.87977271  1
  O  O352  1  0.99419525  0.99576036  0.38025654  1
  O  O353  1  0.99008995  1.00493145  0.88514980  1
  O  O354  1  0.00522129  0.00167848  0.11524620  1
  O  O355  1  0.00292086  0.01003866  0.61606201  1
  O  O356  1  0.00566175  0.50393459  0.11967779  1
  O  O357  1  0.00468633  0.50627903  0.61868613  1
  O  O358  1  0.51339571  0.00166236  0.12282657  1
  O  O359  1  0.50643750  0.00521792  0.62092916  1
  O  O360  1  0.50595749  0.50456473  0.11887081  1
  O  O361  1  0.49740730  0.49825422  0.63266879  1
  O  O362  1  0.24256152  0.38071609  0.24213772  1
  O  O363  1  0.24326355  0.38242062  0.74223951  1
  O  O364  1  0.25218211  0.88499175  0.24406248  1
  O  O365  1  0.24221245  0.88543557  0.75548852  1
  O  O366  1  0.75477001  0.37664940  0.23538804  1
  O  O367  1  0.74596870  0.37980717  0.74522438  1
  O  O368  1  0.74349435  0.87549190  0.24260025  1
  O  O369  1  0.74455637  0.88103721  0.74420972  1
  O  O370  1  0.25879143  0.11655479  0.24837411  1
  O  O371  1  0.25460972  0.11773839  0.75527725  1
  O  O372  1  0.25320891  0.62071781  0.25364608  1
  O  O373  1  0.24315187  0.61431211  0.75784771  1
  O  O374  1  0.75111912  0.12286511  0.26359828  1
  O  O375  1  0.75146154  0.11722042  0.75683001  1
  O  O376  1  0.76143017  0.62412792  0.24994555  1
  O  O377  1  0.75811486  0.62082344  0.75938220  1
  O  O378  1  0.37226105  0.12382565  0.36280907  1
  O  O379  1  0.36931910  0.12392242  0.86781804  1
  O  O380  1  0.36661365  0.61813608  0.36733475  1
  O  O381  1  0.35944443  0.63294439  0.87853927  1
  O  O382  1  0.86574493  0.12097098  0.37679542  1
  O  O383  1  0.87018159  0.11456390  0.87485389  1
  O  O384  1  0.87321250  0.62386438  0.36319061  1
  O  O385  1  0.87080236  0.61973679  0.87210369  1
  O  O386  1  0.12970131  0.38028713  0.12890230  1
  O  O387  1  0.13016557  0.37808561  0.63295647  1
  O  O388  1  0.13306978  0.88175403  0.12637910  1
  O  O389  1  0.12532811  0.87470290  0.63699783  1
  O  O390  1  0.63229914  0.38501006  0.11999558  1
  O  O391  1  0.63620465  0.37216054  0.63449742  1
  O  O392  1  0.62961856  0.88184507  0.12858966  1
  O  O393  1  0.63042098  0.88118026  0.62981271  1
  O  O394  1  0.11832918  0.25290714  0.25482804  1
  O  O395  1  0.13203858  0.26397989  0.75594877  1
  O  O396  1  0.11639612  0.75247935  0.25182096  1
  O  O397  1  0.12510023  0.75748888  0.75637998  1
  O  O398  1  0.61335995  0.24186229  0.25929632  1
  O  O399  1  0.61997405  0.25358579  0.75682329  1
  O  O400  1  0.61973477  0.75616400  0.25623390  1
  O  O401  1  0.61785857  0.75740527  0.75664117  1
  O  O402  1  0.38042045  0.24245014  0.24490795  1
  O  O403  1  0.38080750  0.24241017  0.74349833  1
  O  O404  1  0.37901317  0.74633015  0.24509551  1
  O  O405  1  0.38294855  0.75933628  0.73825003  1
  O  O406  1  0.88462737  0.24875089  0.24163022  1
  O  O407  1  0.87218679  0.24601322  0.73697240  1
  O  O408  1  0.87989591  0.74197364  0.24349745  1
  O  O409  1  0.87644905  0.74512948  0.74560601  1
  O  O410  1  0.36968568  0.49858595  0.48631821  1
  O  O411  1  0.39000939  0.49933239  1.00674762  1
  O  O412  1  0.37962938  0.99276551  0.50006746  1
  O  O413  1  0.37794497  0.99235097  0.99716711  1
  O  O414  1  0.88641381  0.50147746  0.50135302  1
  O  O415  1  0.88233417  0.49902679  0.99402627  1
  O  O416  1  0.88021490  0.99469320  0.49453986  1
  O  O417  1  0.88138145  0.99556371  0.99369681  1
  O  O418  1  0.11845501  0.00235215  0.00174696  1
  O  O419  1  0.12055470  0.00947287  0.49969614  1
  O  O420  1  0.12009516  0.50535928  0.00477622  1
  O  O421  1  0.11758156  0.50690796  0.50631473  1
  O  O422  1  0.62463557  0.00783359  0.00752318  1
  O  O423  1  0.61956563  0.00475773  0.50590872  1
  O  O424  1  0.61500010  0.50630252  0.00973972  1
  O  O425  1  0.61942087  0.50737904  0.50920677  1
  O  O426  1  0.36633949  0.36889444  0.12263892  1
  O  O427  1  0.36231544  0.36508093  0.62358856  1
  O  O428  1  0.37043286  0.86952004  0.11977041  1
  O  O429  1  0.37976009  0.86614746  0.61154195  1
  O  O430  1  0.86765987  0.36530078  0.12246731  1
  O  O431  1  0.86766142  0.36729517  0.62728444  1
  O  O432  1  0.86923978  0.86884020  0.11875838  1
  O  O433  1  0.87068011  0.87162226  0.62001608  1
  O  O434  1  0.12439102  0.13288193  0.38375343  1
  O  O435  1  0.12943567  0.12991006  0.87938034  1
  O  O436  1  0.13050014  0.62786533  0.38207097  1
  O  O437  1  0.13366195  0.63222909  0.88035701  1
  O  O438  1  0.63260698  0.13125665  0.38000581  1
  O  O439  1  0.62994390  0.12847169  0.88241343  1
  O  O440  1  0.62684435  0.64181660  0.37136197  1
  O  O441  1  0.63258999  0.63130874  0.88241443  1
