# generated using pymatgen
data_V93Zn93O256
_symmetry_space_group_name_H-M   'P 1'
_cell_length_a   17.06104540
_cell_length_b   17.05434973
_cell_length_c   17.05671550
_cell_angle_alpha   89.96035629
_cell_angle_beta   89.98843628
_cell_angle_gamma   90.09893773
_symmetry_Int_Tables_number   1
_chemical_formula_structural   V93Zn93O256
_chemical_formula_sum   'V93 Zn93 O256'
_cell_volume   4962.89913332
_cell_formula_units_Z   1
loop_
 _symmetry_equiv_pos_site_id
 _symmetry_equiv_pos_as_xyz
  1  'x, y, z'
loop_
 _atom_site_type_symbol
 _atom_site_label
 _atom_site_symmetry_multiplicity
 _atom_site_fract_x
 _atom_site_fract_y
 _atom_site_fract_z
 _atom_site_occupancy
  V  V0  1  0.36696167  0.75243285  0.12475011  1
  V  V1  1  0.37425120  0.50023778  0.87550100  1
  V  V2  1  0.25021563  0.49876934  0.25129040  1
  V  V3  1  0.00046037  0.62565464  0.62586681  1
  V  V4  1  0.49383036  0.87834849  0.37447782  1
  V  V5  1  0.25044926  0.62729095  0.37967087  1
  V  V6  1  0.74979164  0.37535197  0.62376310  1
  V  V7  1  0.24441185  0.24365536  0.00006265  1
  V  V8  1  -0.00083120  0.37493981  0.37576842  1
  V  V9  1  0.62387507  0.37446181  0.75023185  1
  V  V10  1  0.62910636  0.00096177  0.12208717  1
  V  V11  1  0.00039995  0.25029412  0.75034877  1
  V  V12  1  0.37422338  0.49978785  0.37487717  1
  V  V13  1  0.75091101  0.62481048  0.37549644  1
  V  V14  1  0.25873922  0.00431072  0.74844714  1
  V  V15  1  0.62690498  0.87453134  0.74797046  1
  V  V16  1  0.12541168  0.24964563  0.37477122  1
  V  V17  1  0.12784116  -0.00125562  0.12009129  1
  V  V18  1  0.74976461  0.50078252  0.75037995  1
  V  V19  1  0.12610392  0.62517530  0.00072051  1
  V  V20  1  0.36891792  0.87696498  -0.00099194  1
  V  V21  1  0.87536057  0.25054400  0.12569489  1
  V  V22  1  0.12913987  0.88008137  0.24921660  1
  V  V23  1  0.12544925  0.50074466  0.62565671  1
  V  V24  1  0.75189660  0.87438112  0.12492039  1
  V  V25  1  0.12711150  0.62680182  0.50024088  1
  V  V26  1  0.12489876  0.37455723  0.75057600  1
  V  V27  1  0.49643148  0.24333362  0.75019563  1
  V  V28  1  0.00016193  0.49948264  0.50034031  1
  V  V29  1  -0.00030023  0.74966147  0.74950405  1
  V  V30  1  0.00330914  0.12351086  0.11833404  1
  V  V31  1  0.12641365  0.87576237  0.75046278  1
  V  V32  1  0.37478172  0.37463693  0.50085257  1
  V  V33  1  0.75149981  -0.00048712  0.25009158  1
  V  V34  1  0.12343518  0.12527581  0.49912593  1
  V  V35  1  -0.00462580  0.87460293  0.37893685  1
  V  V36  1  0.50039481  0.74772890  0.24897469  1
  V  V37  1  0.74974192  0.00097492  0.74918735  1
  V  V38  1  0.62495479  0.62540278  -0.00123030  1
  V  V39  1  0.12636211  0.74963897  0.87507396  1
  V  V40  1  0.87427364  -0.00339039  0.37874226  1
  V  V41  1  -0.00134288  0.87677506  0.87736694  1
  V  V42  1  0.74930198  0.12436512  0.37535100  1
  V  V43  1  0.49664101  0.24740101  0.25104036  1
  V  V44  1  0.87353626  0.75610013  0.61808342  1
  V  V45  1  0.62285332  0.12610278  0.49991889  1
  V  V46  1  0.62401830  0.00008469  0.62387996  1
  V  V47  1  0.12502441  0.50062816  0.12454929  1
  V  V48  1  0.74990457  0.37512083  0.12678234  1
  V  V49  1  0.24917328  0.25007143  0.50004046  1
  V  V50  1  0.25374128  0.11325739  0.36908955  1
  V  V51  1  0.12436481  0.00006868  0.62515377  1
  V  V52  1  0.75040759  0.75110274  -0.00201154  1
  V  V53  1  0.37369558  0.24353863  0.12774464  1
  V  V54  1  0.87598774  0.62400079  0.25034254  1
  V  V55  1  0.49214731  -0.00075929  0.49552118  1
  V  V56  1  0.24978825  0.62597795  0.87540459  1
  V  V57  1  0.87465567  0.37535263  0.50027119  1
  V  V58  1  0.87554126  0.50160004  0.87406979  1
  V  V59  1  0.87380856  0.25099649  0.62485484  1
  V  V60  1  0.00020558  0.24905264  0.25027102  1
  V  V61  1  0.49903084  0.62517332  0.12463407  1
  V  V62  1  0.24991524  0.37522353  0.62508517  1
  V  V63  1  0.50027557  0.75127583  0.75046714  1
  V  V64  1  0.37642960  0.37477816  -0.00056674  1
  V  V65  1  0.62407600  0.37429217  0.24941877  1
  V  V66  1  0.87528635  0.37625151  0.00037911  1
  V  V67  1  0.25078607  0.50065481  0.75075735  1
  V  V68  1  0.37242833  0.75064941  0.61769828  1
  V  V69  1  0.62457014  0.50008218  0.62547486  1
  V  V70  1  0.87415060  0.12526877  0.75051918  1
  V  V71  1  0.49969960  0.37458439  0.37473646  1
  V  V72  1  0.62401341  0.12474854  0.00076371  1
  V  V73  1  -0.00050847  0.12469654  0.62509493  1
  V  V74  1  0.00108345  0.62517070  0.12498362  1
  V  V75  1  0.24899989  0.37365386  0.12592529  1
  V  V76  1  0.87553799  0.12393325  0.25022224  1
  V  V77  1  0.12450656  0.24498674  0.87718633  1
  V  V78  1  0.12717977  0.75080159  0.37880325  1
  V  V79  1  0.50006975  0.49923325  0.50058018  1
  V  V80  1  -0.00503440  -0.00168843  0.50018772  1
  V  V81  1  0.62605517  0.62582901  0.49933134  1
  V  V82  1  0.62430316  0.74942596  0.37518202  1
  V  V83  1  0.62690795  0.87385472  0.24961708  1
  V  V84  1  0.62436528  0.25098826  0.87458453  1
  V  V85  1  0.25676424  0.12559388  0.86975133  1
  V  V86  1  0.62438673  0.49923163  0.12501269  1
  V  V87  1  0.49954050  0.62522779  0.62502817  1
  V  V88  1  0.87616777  0.74981600  0.12417701  1
  V  V89  1  0.75001353  0.12595968  0.87401792  1
  V  V90  1  0.12444575  0.37426315  0.24998487  1
  V  V91  1  0.37376532  0.24268994  0.62993284  1
  V  V92  1  0.24984161  0.87115412  0.61883657  1
  Zn  Zn93  1  0.00158861  0.37534353  0.87576694  1
  Zn  Zn94  1  0.00119671  0.75168032  0.24955038  1
  Zn  Zn95  1  0.50038152  0.49977339  -0.00170936  1
  Zn  Zn96  1  0.87603380  0.87911576  0.00078304  1
  Zn  Zn97  1  0.74967572  0.49836701  0.25104963  1
  Zn  Zn98  1  0.37427390  0.62417987  0.24834914  1
  Zn  Zn99  1  0.75408085  0.75883717  0.49563200  1
  Zn  Zn100  1  0.49896148  0.87775166  0.87601707  1
  Zn  Zn101  1  0.75729741  0.88169138  0.61555816  1
  Zn  Zn102  1  0.38018810  0.09852760  0.26405200  1
  Zn  Zn103  1  0.49888506  -0.00158350  -0.00312536  1
  Zn  Zn104  1  0.74913487  0.25040010  0.00014804  1
  Zn  Zn105  1  0.74807125  0.25099872  0.49851245  1
  Zn  Zn106  1  0.49344678  0.12006982  0.62777678  1
  Zn  Zn107  1  0.37532483  0.62579784  0.75079573  1
  Zn  Zn108  1  0.24740598  0.75459646  0.00334610  1
  Zn  Zn109  1  0.87494601  0.49976668  0.37578016  1
  Zn  Zn110  1  0.49907200  0.12076563  0.12763874  1
  Zn  Zn111  1  0.62562984  0.75049718  0.87332718  1
  Zn  Zn112  1  0.50037116  0.37620973  0.87392781  1
  Zn  Zn113  1  0.75038394  0.62692668  0.87264939  1
  Zn  Zn114  1  0.62549572  0.25032684  0.37527704  1
  Zn  Zn115  1  0.87584701  0.00121109  0.87616463  1
  Zn  Zn116  1  0.29214661  0.93845367  0.18783770  1
  Zn  Zn117  1  0.37944316  0.00173783  0.87211928  1
  Zn  Zn118  1  0.36728607  0.87561597  0.49363275  1
  Zn  Zn119  1  0.87324614  0.62625835  0.74942552  1
  Zn  Zn120  1  0.00146829  0.50037221  -0.00154732  1
  Zn  Zn121  1  0.00009592  0.00457991  -0.00347973  1
  Zn  Zn122  1  0.18692118  0.18215174  0.18926426  1
  Zn  Zn123  1  0.18680428  0.18684047  0.68872582  1
  Zn  Zn124  1  0.18596753  0.68711531  0.19380656  1
  Zn  Zn125  1  0.18827264  0.68801587  0.68953972  1
  Zn  Zn126  1  0.68824147  0.18856411  0.18760271  1
  Zn  Zn127  1  0.68532753  0.18772748  0.68612619  1
  Zn  Zn128  1  0.68832540  0.68682683  0.18682509  1
  Zn  Zn129  1  0.68959906  0.68668996  0.68643727  1
  Zn  Zn130  1  0.31156603  0.30944181  0.31391405  1
  Zn  Zn131  1  0.31218157  0.31328112  0.81237220  1
  Zn  Zn132  1  0.31311989  0.80684766  0.31309617  1
  Zn  Zn133  1  0.31371189  0.81446089  0.81100620  1
  Zn  Zn134  1  0.81157333  0.31092874  0.31367266  1
  Zn  Zn135  1  0.81099184  0.31330354  0.81247990  1
  Zn  Zn136  1  0.81332668  0.81047440  0.31149723  1
  Zn  Zn137  1  0.81394444  0.81300928  0.80869437  1
  Zn  Zn138  1  0.18662973  0.43819464  0.43827431  1
  Zn  Zn139  1  0.18867598  0.43580405  0.93785099  1
  Zn  Zn140  1  0.18111016  0.93754992  0.43794403  1
  Zn  Zn141  1  0.18812538  0.93951099  0.93739680  1
  Zn  Zn142  1  0.68702437  0.43799616  0.43670284  1
  Zn  Zn143  1  0.68933071  0.43773744  0.93740714  1
  Zn  Zn144  1  0.68448737  0.93736721  0.43836919  1
  Zn  Zn145  1  0.68801205  0.93772723  0.93395165  1
  Zn  Zn146  1  0.31126706  0.06375837  0.05618890  1
  Zn  Zn147  1  0.30845284  0.06161150  0.55848858  1
  Zn  Zn148  1  0.31139438  0.56412882  0.06208544  1
  Zn  Zn149  1  0.31359981  0.56340654  0.56311250  1
  Zn  Zn150  1  0.81495325  0.06242178  0.05927892  1
  Zn  Zn151  1  0.81097996  0.06307104  0.56205073  1
  Zn  Zn152  1  0.81111860  0.56182011  0.06314149  1
  Zn  Zn153  1  0.81408714  0.56535710  0.56289082  1
  Zn  Zn154  1  0.43761936  0.43701601  0.18634676  1
  Zn  Zn155  1  0.43695434  0.43408080  0.68920218  1
  Zn  Zn156  1  0.45292737  0.93309030  0.17950251  1
  Zn  Zn157  1  0.43847739  0.93449124  0.68294907  1
  Zn  Zn158  1  0.93840840  0.43963258  0.18791309  1
  Zn  Zn159  1  0.93790698  0.43717377  0.68842090  1
  Zn  Zn160  1  0.94107590  0.93714792  0.18969089  1
  Zn  Zn161  1  0.93783087  0.93789211  0.69070849  1
  Zn  Zn162  1  0.06393012  0.06076356  0.30952604  1
  Zn  Zn163  1  0.06619649  0.06261632  0.81128361  1
  Zn  Zn164  1  0.06231293  0.56194589  0.31233204  1
  Zn  Zn165  1  0.06169078  0.56291539  0.81297783  1
  Zn  Zn166  1  0.56399638  0.06127164  0.31247941  1
  Zn  Zn167  1  0.56255405  0.06158158  0.81425053  1
  Zn  Zn168  1  0.56253592  0.56141481  0.31109447  1
  Zn  Zn169  1  0.56088459  0.56258890  0.81407497  1
  Zn  Zn170  1  0.43526970  0.18720330  0.43930811  1
  Zn  Zn171  1  0.43868570  0.18842665  0.93772955  1
  Zn  Zn172  1  0.43865678  0.68749703  0.43694687  1
  Zn  Zn173  1  0.43595735  0.69004620  0.93809963  1
  Zn  Zn174  1  0.93543123  0.18681207  0.43800664  1
  Zn  Zn175  1  0.93585782  0.18999485  0.93722080  1
  Zn  Zn176  1  0.94094426  0.68766091  0.43791366  1
  Zn  Zn177  1  0.93902496  0.68772893  0.93831939  1
  Zn  Zn178  1  0.06076659  0.31303585  0.06257595  1
  Zn  Zn179  1  0.06182479  0.31241935  0.56290812  1
  Zn  Zn180  1  0.06406235  0.81297943  0.06262141  1
  Zn  Zn181  1  0.06206226  0.81266793  0.56157890  1
  Zn  Zn182  1  0.56159381  0.30962771  0.06418698  1
  Zn  Zn183  1  0.56024955  0.31118413  0.56493962  1
  Zn  Zn184  1  0.55928036  0.81287725  0.06168076  1
  Zn  Zn185  1  0.56359699  0.81348759  0.56080397  1
  O  O186  1  0.11427225  0.11104797  0.13435109  1
  O  O187  1  0.11901502  0.12057919  0.61960484  1
  O  O188  1  0.12127957  0.62030036  0.12188021  1
  O  O189  1  0.12155818  0.62086542  0.61993748  1
  O  O190  1  0.62786616  0.12030330  0.11571370  1
  O  O191  1  0.62203617  0.11935727  0.61450834  1
  O  O192  1  0.62026429  0.62068063  0.11714186  1
  O  O193  1  0.61975232  0.61938627  0.61916121  1
  O  O194  1  0.37920182  0.37983491  0.38138387  1
  O  O195  1  0.37292541  0.37962492  0.88577914  1
  O  O196  1  0.38950421  0.86446170  0.37748604  1
  O  O197  1  0.37699156  0.87681136  0.88378876  1
  O  O198  1  0.88148214  0.37627566  0.38095785  1
  O  O199  1  0.87463964  0.38265889  0.88373508  1
  O  O200  1  0.88740569  0.87960886  0.36684851  1
  O  O201  1  0.88791154  0.87624534  0.87279798  1
  O  O202  1  0.24320332  0.01477874  0.38057393  1
  O  O203  1  0.24772033  0.01004769  0.86547467  1
  O  O204  1  0.25419366  0.50563444  0.37055123  1
  O  O205  1  0.25439928  0.50506296  0.86995494  1
  O  O206  1  0.75419661  0.00441508  0.36859691  1
  O  O207  1  0.75109751  0.00798613  0.86586890  1
  O  O208  1  0.75170644  0.51302640  0.37312011  1
  O  O209  1  0.75995091  0.50065521  0.86928270  1
  O  O210  1  0.24515302  0.49392330  0.13141157  1
  O  O211  1  0.24485031  0.49503231  0.62988604  1
  O  O212  1  0.23196744  1.00823933  0.12069692  1
  O  O213  1  0.24438620  0.99449663  0.63086864  1
  O  O214  1  0.74277834  0.49313912  0.12779454  1
  O  O215  1  0.74416526  0.49565594  0.62968090  1
  O  O216  1  0.74821176  0.99416294  0.13088694  1
  O  O217  1  0.74277296  1.00079399  0.63183790  1
  O  O218  1  0.00487891  0.36921945  0.25501757  1
  O  O219  1  0.00707233  0.36756508  0.75096659  1
  O  O220  1  0.01003968  0.87365583  0.26193914  1
  O  O221  1  0.00739052  0.87067698  0.75783721  1
  O  O222  1  0.50366316  0.36667616  0.25447726  1
  O  O223  1  0.50677908  0.36411038  0.75042485  1
  O  O224  1  0.50885478  0.86721839  0.25672729  1
  O  O225  1  0.50883321  0.86620792  0.74776937  1
  O  O226  1  0.49517385  0.13380367  0.25077407  1
  O  O227  1  0.50592756  0.13932974  0.74724106  1
  O  O228  1  0.49878825  0.63044283  0.24342425  1
  O  O229  1  0.50066329  0.63438122  0.74285595  1
  O  O230  1  0.99423711  0.13043043  0.24315789  1
  O  O231  1  0.99560873  0.13050223  0.74431376  1
  O  O232  1  0.99118499  0.62614619  0.24541281  1
  O  O233  1  1.00060147  0.63199059  0.74287242  1
  O  O234  1  0.36638972  0.25658445  0.00742694  1
  O  O235  1  0.36961627  0.25669417  0.50896599  1
  O  O236  1  0.37285848  0.75747814  0.00887321  1
  O  O237  1  0.38201776  0.75285875  0.51412926  1
  O  O238  1  0.87323778  0.26070752  0.00625258  1
  O  O239  1  0.87388501  0.25670791  0.50749718  1
  O  O240  1  0.86470089  0.74998822  0.00559344  1
  O  O241  1  0.87808243  0.74618974  0.51489783  1
  O  O242  1  0.12901616  0.24513515  0.49523067  1
  O  O243  1  0.13526021  0.25962112  0.99067181  1
  O  O244  1  0.12010290  0.74381262  0.48686006  1
  O  O245  1  0.12799564  0.74398529  0.99397555  1
  O  O246  1  0.62281776  0.23833843  0.49895257  1
  O  O247  1  0.62637707  0.24229849  0.99480808  1
  O  O248  1  0.62364023  0.74086572  0.49299791  1
  O  O249  1  0.63382287  0.74271441  1.00078184  1
  O  O250  1  0.49043196  0.24805021  0.13464381  1
  O  O251  1  0.48973388  0.24833439  0.63239245  1
  O  O252  1  0.49149475  0.74498912  0.13063853  1
  O  O253  1  0.49383774  0.74586016  0.63186288  1
  O  O254  1  0.99657967  0.24329318  0.13119037  1
  O  O255  1  0.99496963  0.24419433  0.63051211  1
  O  O256  1  0.99422319  0.74320289  0.12677192  1
  O  O257  1  0.99326295  0.74625174  0.62912577  1
  O  O258  1  0.00541560  0.25438166  0.36990834  1
  O  O259  1  0.00919461  0.25084909  0.86986048  1
  O  O260  1  0.00818010  0.75790541  0.37374924  1
  O  O261  1  0.00591133  0.75677235  0.86937389  1
  O  O262  1  0.49733127  0.25592056  0.36564482  1
  O  O263  1  0.50457623  0.25254950  0.86634031  1
  O  O264  1  0.50618183  0.75521349  0.36907829  1
  O  O265  1  0.50190102  0.75010468  0.86043616  1
  O  O266  1  0.24207220  0.13087632  0.49155928  1
  O  O267  1  0.24960989  0.13865632  0.99061195  1
  O  O268  1  0.24309791  0.61623428  0.48731761  1
  O  O269  1  0.24295271  0.62746094  0.99268259  1
  O  O270  1  0.73842956  0.12481161  0.49431409  1
  O  O271  1  0.74091599  0.12785108  0.99391864  1
  O  O272  1  0.74542381  0.62815099  0.49015448  1
  O  O273  1  0.74098702  0.63455754  1.00176495  1
  O  O274  1  0.25833782  0.36529397  0.00559447  1
  O  O275  1  0.25426364  0.37009131  0.50548604  1
  O  O276  1  0.26214230  0.87276941  -0.00415229  1
  O  O277  1  0.24886446  0.88304626  0.51438250  1
  O  O278  1  0.76050849  0.37399920  0.00702865  1
  O  O279  1  0.75559672  0.37474739  0.50590227  1
  O  O280  1  0.74960656  0.86539162  0.00510401  1
  O  O281  1  0.74316115  0.87071912  0.50405543  1
  O  O282  1  0.13032983  0.49337295  0.24501634  1
  O  O283  1  0.13037014  0.49461858  0.74473645  1
  O  O284  1  0.12124805  0.98976345  0.23955041  1
  O  O285  1  0.13398531  0.99515046  0.74278251  1
  O  O286  1  0.62514572  0.49201820  0.24289627  1
  O  O287  1  0.62865569  0.49480183  0.74461810  1
  O  O288  1  0.63234694  0.99462663  0.24351331  1
  O  O289  1  0.62905473  0.99343998  0.74373072  1
  O  O290  1  0.37658346  -0.00708057  0.23397014  1
  O  O291  1  0.36155466  -0.00575627  0.74834614  1
  O  O292  1  0.36840000  0.49967806  0.25672861  1
  O  O293  1  0.36838348  0.49984230  0.75646136  1
  O  O294  1  0.86988150  0.00494572  0.25676286  1
  O  O295  1  0.86840017  0.00826215  0.75074112  1
  O  O296  1  0.87301560  0.51240711  0.25234172  1
  O  O297  1  0.86938533  0.49911116  0.75882783  1
  O  O298  1  0.11941520  0.36958481  0.36993843  1
  O  O299  1  0.12599772  0.36416550  0.86880940  1
  O  O300  1  0.11805892  0.86858804  0.36965619  1
  O  O301  1  0.11868225  0.86996297  0.86980723  1
  O  O302  1  0.61731686  0.37346556  0.36902489  1
  O  O303  1  0.62442870  0.36914264  0.86916964  1
  O  O304  1  0.61615980  0.86870623  0.36774564  1
  O  O305  1  0.62360290  0.87263198  0.86004420  1
  O  O306  1  0.37422971  0.13838740  0.12228998  1
  O  O307  1  0.37268730  0.13944042  0.61834647  1
  O  O308  1  0.38164194  0.63247787  0.12480949  1
  O  O309  1  0.38030594  0.63310287  0.62685341  1
  O  O310  1  0.88220020  0.13018792  0.13136440  1
  O  O311  1  0.88025481  0.13125710  0.63063893  1
  O  O312  1  0.87939347  0.62884283  0.13219193  1
  O  O313  1  0.88341580  0.63419166  0.62731454  1
  O  O314  1  0.25348880  0.25225331  0.11893549  1
  O  O315  1  0.25491222  0.25522636  0.62117048  1
  O  O316  1  0.26331899  0.74228890  0.12689513  1
  O  O317  1  0.25910917  0.76049993  0.63316364  1
  O  O318  1  0.75826775  0.25709036  0.12475697  1
  O  O319  1  0.75585461  0.25748862  0.62369074  1
  O  O320  1  0.75501619  0.75481244  0.11700284  1
  O  O321  1  0.76656442  0.74822516  0.62423570  1
  O  O322  1  0.24290038  0.24487692  0.38225959  1
  O  O323  1  0.24419401  0.24470952  0.87981346  1
  O  O324  1  0.24052416  0.73776282  0.37201147  1
  O  O325  1  0.24261846  0.74329441  0.87177929  1
  O  O326  1  0.74637680  0.24075947  0.37774545  1
  O  O327  1  0.74215827  0.24387198  0.87520276  1
  O  O328  1  0.74448383  0.73963797  0.37414716  1
  O  O329  1  0.74963098  0.74900190  0.88551414  1
  O  O330  1  -0.00360050  0.12814852  0.01472404  1
  O  O331  1  0.00481317  0.12001064  0.50573085  1
  O  O332  1  0.00795728  0.62323743  0.00704189  1
  O  O333  1  0.00780910  0.61866248  0.50540435  1
  O  O334  1  0.51380036  0.12598948  0.00206414  1
  O  O335  1  0.50689376  0.11682221  0.49814185  1
  O  O336  1  0.51086954  0.62688405  0.00531659  1
  O  O337  1  0.50558610  0.61786271  0.50467864  1
  O  O338  1  0.49502150  0.38007058  0.49533990  1
  O  O339  1  0.48612028  0.37326966  1.00012489  1
  O  O340  1  0.50244895  0.88376673  0.49026665  1
  O  O341  1  0.48781226  0.87494251  0.99767188  1
  O  O342  1  0.99515551  0.37979104  0.49547113  1
  O  O343  1  0.98713258  0.37730607  0.99942532  1
  O  O344  1  1.00811718  0.88304728  0.48693842  1
  O  O345  1  0.99888260  0.87262157  0.98643460  1
  O  O346  1  0.49413947  0.49483809  0.38060765  1
  O  O347  1  0.49117385  0.49622294  0.87858645  1
  O  O348  1  0.50541229  0.98858854  0.38173997  1
  O  O349  1  0.49580937  0.99759015  0.87791543  1
  O  O350  1  1.00005460  0.49288883  0.38203567  1
  O  O351  1  0.98953787  0.49617783  0.87633202  1
  O  O352  1  0.99540384  0.99345543  0.37957285  1
  O  O353  1  1.00297756  0.99024200  0.87491147  1
  O  O354  1  0.00680673  0.00843400  0.12442146  1
  O  O355  1  0.00456627  0.00516959  0.62149407  1
  O  O356  1  0.00782415  0.50684807  0.12376731  1
  O  O357  1  0.00673808  0.50483469  0.62079004  1
  O  O358  1  0.51541395  0.00421152  0.11699093  1
  O  O359  1  0.50548493  0.00157364  0.61565745  1
  O  O360  1  0.50565818  0.50588942  0.12128756  1
  O  O361  1  0.50432613  0.50425480  0.62038549  1
  O  O362  1  0.24377862  0.37814662  0.24558975  1
  O  O363  1  0.24415506  0.38043186  0.74424314  1
  O  O364  1  0.23518176  0.86957355  0.25660053  1
  O  O365  1  0.24445322  0.88401575  0.74080097  1
  O  O366  1  0.74292061  0.37530407  0.24510639  1
  O  O367  1  0.74367625  0.38081418  0.74317685  1
  O  O368  1  0.74538528  0.87935281  0.24530280  1
  O  O369  1  0.74146773  0.88065233  0.74511537  1
  O  O370  1  0.25242459  0.12816449  0.26616071  1
  O  O371  1  0.24563475  0.11593216  0.75698342  1
  O  O372  1  0.25021933  0.61678930  0.26312360  1
  O  O373  1  0.25109972  0.61736987  0.75669665  1
  O  O374  1  0.75554839  0.11916680  0.25466640  1
  O  O375  1  0.75389420  0.12105760  0.75416693  1
  O  O376  1  0.75831722  0.62453270  0.25789093  1
  O  O377  1  0.75158748  0.61627396  0.75287821  1
  O  O378  1  0.35815767  0.12835742  0.37781587  1
  O  O379  1  0.36030333  0.12519663  0.87948501  1
  O  O380  1  0.36644099  0.61940812  0.37514828  1
  O  O381  1  0.36852025  0.61855786  0.87427051  1
  O  O382  1  0.86982736  0.11855867  0.36913298  1
  O  O383  1  0.86869616  0.12686389  0.86738763  1
  O  O384  1  0.86836604  0.62657036  0.36780548  1
  O  O385  1  0.87401176  0.61305744  0.87473316  1
  O  O386  1  0.12981562  0.37943273  0.13049782  1
  O  O387  1  0.13071431  0.38031357  0.62984614  1
  O  O388  1  0.11705148  0.88730956  0.13515337  1
  O  O389  1  0.13133774  0.87893065  0.62982576  1
  O  O390  1  0.62947193  0.37878598  0.12910267  1
  O  O391  1  0.62955512  0.38096905  0.62931294  1
  O  O392  1  0.63200568  0.87953845  0.12993207  1
  O  O393  1  0.62436092  0.88085652  0.63540658  1
  O  O394  1  0.11965406  0.25543155  0.25430561  1
  O  O395  1  0.12061991  0.25521750  0.75716947  1
  O  O396  1  0.12187449  0.75697707  0.26172910  1
  O  O397  1  0.11917111  0.75637801  0.75475069  1
  O  O398  1  0.61204521  0.25432141  0.24963459  1
  O  O399  1  0.61693019  0.25546346  0.75383750  1
  O  O400  1  0.62084536  0.75424294  0.25445728  1
  O  O401  1  0.61810800  0.75739543  0.74659912  1
  O  O402  1  0.38267310  0.25317513  0.24093529  1
  O  O403  1  0.38300500  0.25752526  0.74034628  1
  O  O404  1  0.38190315  0.74762722  0.24097917  1
  O  O405  1  0.38545848  0.75057376  0.73930181  1
  O  O406  1  0.88136385  0.24453567  0.24499815  1
  O  O407  1  0.88053887  0.24596380  0.74450558  1
  O  O408  1  0.87608208  0.73826074  0.24353124  1
  O  O409  1  0.88234216  0.74669078  0.74043158  1
  O  O410  1  0.38059161  0.49387837  0.49552375  1
  O  O411  1  0.37302785  0.48873115  0.99611230  1
  O  O412  1  0.38849655  0.99759477  0.50514288  1
  O  O413  1  0.37577308  0.99039946  0.99911841  1
  O  O414  1  0.88265252  0.49392311  0.49987455  1
  O  O415  1  0.87470157  0.49238946  0.99256915  1
  O  O416  1  0.88293479  1.00719752  0.49215121  1
  O  O417  1  0.88071607  0.99637179  0.99416296  1
  O  O418  1  0.11901227  -0.00753711  0.01587905  1
  O  O419  1  0.11575108  0.00669926  0.50697951  1
  O  O420  1  0.12528469  0.50496959  0.00684656  1
  O  O421  1  0.11961439  0.50496628  0.50687671  1
  O  O422  1  0.62919664  0.01007127  0.00395047  1
  O  O423  1  0.61498731  0.00938908  0.50397840  1
  O  O424  1  0.62537614  0.50960443  0.00552447  1
  O  O425  1  0.61907784  0.50532476  0.50581693  1
  O  O426  1  0.36854520  0.36530967  0.11838688  1
  O  O427  1  0.36834250  0.36711333  0.61939122  1
  O  O428  1  0.37337962  0.86638070  0.11848594  1
  O  O429  1  0.36601468  0.86725761  0.62181677  1
  O  O430  1  0.87131353  0.37168194  0.11917630  1
  O  O431  1  0.86974812  0.37054331  0.62016505  1
  O  O432  1  0.86974988  0.86800297  0.12599124  1
  O  O433  1  0.87783557  0.85985566  0.62997939  1
  O  O434  1  0.13219462  0.13041131  0.37876407  1
  O  O435  1  0.13446722  0.13915351  0.87040272  1
  O  O436  1  0.13072402  0.63148209  0.37885972  1
  O  O437  1  0.12923880  0.62984612  0.88060707  1
  O  O438  1  0.63031331  0.12502710  0.38389946  1
  O  O439  1  0.63053748  0.13097827  0.88257556  1
  O  O440  1  0.63251164  0.62867644  0.37836030  1
  O  O441  1  0.62721562  0.62677032  0.88713883  1
