# generated using pymatgen
data_V93Zn93O256
_symmetry_space_group_name_H-M   'P 1'
_cell_length_a   17.04996012
_cell_length_b   17.04907133
_cell_length_c   17.05075395
_cell_angle_alpha   89.95481780
_cell_angle_beta   89.98286115
_cell_angle_gamma   89.92843883
_symmetry_Int_Tables_number   1
_chemical_formula_structural   V93Zn93O256
_chemical_formula_sum   'V93 Zn93 O256'
_cell_volume   4956.40960315
_cell_formula_units_Z   1
loop_
 _symmetry_equiv_pos_site_id
 _symmetry_equiv_pos_as_xyz
  1  'x, y, z'
loop_
 _atom_site_type_symbol
 _atom_site_label
 _atom_site_symmetry_multiplicity
 _atom_site_fract_x
 _atom_site_fract_y
 _atom_site_fract_z
 _atom_site_occupancy
  V  V0  1  0.37484780  0.12327377  0.74858653  1
  V  V1  1  0.87655573  0.37504162  0.49754368  1
  V  V2  1  0.00033228  0.25037626  0.74934112  1
  V  V3  1  0.12327074  0.63000349  -0.00390640  1
  V  V4  1  0.12644122  0.61866502  0.50667681  1
  V  V5  1  0.12606413  0.37730492  0.74253436  1
  V  V6  1  0.37383279  0.25046594  0.62348642  1
  V  V7  1  0.75063483  0.62804441  0.87205477  1
  V  V8  1  0.74945009  0.25035945  0.00030023  1
  V  V9  1  0.87432807  0.12486408  0.25034434  1
  V  V10  1  0.62058939  0.87544210  0.25576959  1
  V  V11  1  0.12566028  -0.00055242  0.62512279  1
  V  V12  1  0.87279063  0.86749253  0.51059233  1
  V  V13  1  0.12561385  0.37497068  0.24860576  1
  V  V14  1  0.87420065  0.50615556  0.86824560  1
  V  V15  1  0.62702421  -0.00082785  0.62732548  1
  V  V16  1  0.49921566  0.49898123  0.49958423  1
  V  V17  1  0.87547816  0.37531169  -0.00149872  1
  V  V18  1  0.75146583  0.24988731  0.50020651  1
  V  V19  1  0.12546838  0.12606980  -0.00208605  1
  V  V20  1  0.24478542  0.62935919  0.87430736  1
  V  V21  1  0.49903135  0.49984982  0.00064637  1
  V  V22  1  0.00070106  0.00006180  0.00094904  1
  V  V23  1  0.75683469  0.50466835  0.24977749  1
  V  V24  1  0.62497044  0.62399784  0.49963946  1
  V  V25  1  0.24639594  0.49947452  0.74225010  1
  V  V26  1  0.12391229  0.86663930  0.75443678  1
  V  V27  1  0.87571828  0.24946101  0.62544330  1
  V  V28  1  0.62315922  0.12393485  0.00191595  1
  V  V29  1  0.74894037  0.75131595  0.00268404  1
  V  V30  1  0.75004966  0.37580316  0.62519263  1
  V  V31  1  0.75052381  0.50414011  0.74821300  1
  V  V32  1  -0.00734974  0.74555137  0.25171967  1
  V  V33  1  0.37834589  0.75082166  0.62580663  1
  V  V34  1  0.74983929  0.37670469  0.12555934  1
  V  V35  1  0.37309090  0.37411013  -0.00051248  1
  V  V36  1  0.87520403  0.87535154  0.00399831  1
  V  V37  1  -0.00481692  0.63042530  0.62907577  1
  V  V38  1  0.49876043  0.24801606  0.24735770  1
  V  V39  1  0.25221973  0.12236726  0.37079464  1
  V  V40  1  0.24983586  0.25066645  -0.00213298  1
  V  V41  1  0.24845286  0.87546675  0.12457519  1
  V  V42  1  0.37343103  0.62483785  0.25013148  1
  V  V43  1  0.75096409  -0.00110342  0.75153566  1
  V  V44  1  0.37432527  0.62577707  0.75039718  1
  V  V45  1  0.25097643  0.24984511  0.49888093  1
  V  V46  1  0.00525373  0.86755105  0.87742000  1
  V  V47  1  0.50076602  -0.00542623  -0.00260703  1
  V  V48  1  0.37746510  0.87420231  -0.00189114  1
  V  V49  1  0.75182756  0.12541926  0.37498693  1
  V  V50  1  0.12474035  0.50007717  0.12463812  1
  V  V51  1  0.38233680  -0.00719343  0.37570862  1
  V  V52  1  0.49926930  0.62460898  0.12643685  1
  V  V53  1  0.61554701  0.75595024  0.87884952  1
  V  V54  1  0.24946649  0.62475781  0.37382755  1
  V  V55  1  -0.00613793  0.62541506  0.12945825  1
  V  V56  1  0.25070075  0.74975894  0.50023631  1
  V  V57  1  0.62539118  0.24922186  0.37516455  1
  V  V58  1  0.37403069  0.50028569  0.87482717  1
  V  V59  1  0.75002290  0.00006615  0.25098605  1
  V  V60  1  0.00052462  0.37577334  0.87271476  1
  V  V61  1  0.24811271  0.74992882  -0.00155219  1
  V  V62  1  0.24914581  0.50052053  0.24890784  1
  V  V63  1  0.75053029  0.87493510  0.12815995  1
  V  V64  1  0.25043013  0.87401987  0.62380333  1
  V  V65  1  0.12427714  0.74912383  0.37587722  1
  V  V66  1  0.49996345  0.37525199  0.87450512  1
  V  V67  1  0.87484403  0.25009685  0.12442886  1
  V  V68  1  0.37871699  -0.00550447  0.87339919  1
  V  V69  1  0.00077192  0.25070272  0.24963092  1
  V  V70  1  0.50152063  0.12379741  0.62371150  1
  V  V71  1  0.12660416  -0.00104538  0.12518213  1
  V  V72  1  0.00088684  -0.00136522  0.50146908  1
  V  V73  1  -0.00102336  0.87433942  0.37574758  1
  V  V74  1  0.75629375  0.62493128  0.37226947  1
  V  V75  1  0.25036915  -0.00056027  0.74964352  1
  V  V76  1  0.62383474  0.25146371  0.87405627  1
  V  V77  1  0.50006282  0.75168002  0.25307626  1
  V  V78  1  0.00323219  0.49780025  0.50507890  1
  V  V79  1  -0.00032250  0.50100844  -0.00122895  1
  V  V80  1  0.87670347  0.00114101  0.87655974  1
  V  V81  1  0.49948832  0.37453981  0.37430949  1
  V  V82  1  0.62201006  0.75260436  0.37941636  1
  V  V83  1  0.62591673  0.50072175  0.12545334  1
  V  V84  1  0.61603457  0.87723861  0.75642612  1
  V  V85  1  0.12523605  0.24972375  0.37306719  1
  V  V86  1  0.87651459  0.12487054  0.75017392  1
  V  V87  1  0.62758833  0.12324614  0.50216644  1
  V  V88  1  0.12476295  0.12333667  0.49948272  1
  V  V89  1  0.62423863  0.62612283  0.00037100  1
  V  V90  1  -0.00007838  0.12448806  0.12458772  1
  V  V91  1  0.62448196  0.49798585  0.62527495  1
  V  V92  1  0.37363991  0.75038129  0.12575080  1
  Zn  Zn93  1  0.25103702  -0.00283151  0.24894948  1
  Zn  Zn94  1  0.62579298  0.37598694  0.24946162  1
  Zn  Zn95  1  0.62460458  0.37542681  0.74966507  1
  Zn  Zn96  1  0.37564990  0.12263024  0.24649377  1
  Zn  Zn97  1  0.75312350  0.74295223  0.50900509  1
  Zn  Zn98  1  0.83065330  0.69078831  0.68845123  1
  Zn  Zn99  1  0.00092121  0.12437480  0.62497837  1
  Zn  Zn100  1  0.24735900  0.37947780  0.61902905  1
  Zn  Zn101  1  0.49852338  0.62369851  0.62742116  1
  Zn  Zn102  1  0.75250182  0.86198078  0.63409866  1
  Zn  Zn103  1  0.12442258  0.87523892  0.24935561  1
  Zn  Zn104  1  0.37423083  0.24875411  0.12463457  1
  Zn  Zn105  1  0.38646406  0.86959463  0.49488503  1
  Zn  Zn106  1  0.12532295  0.24882501  0.87234761  1
  Zn  Zn107  1  0.50783526  -0.00769073  0.49588351  1
  Zn  Zn108  1  0.24927844  0.12433575  0.87369777  1
  Zn  Zn109  1  0.25097776  0.37542640  0.12389134  1
  Zn  Zn110  1  0.62198374  -0.00052923  0.12713243  1
  Zn  Zn111  1  0.49950165  0.25128630  0.74895552  1
  Zn  Zn112  1  0.49531500  0.75254148  0.75630092  1
  Zn  Zn113  1  0.37468379  0.49984800  0.37398820  1
  Zn  Zn114  1  0.87921042  0.50255540  0.37150600  1
  Zn  Zn115  1  0.87124229  0.74629684  0.13067072  1
  Zn  Zn116  1  0.87529233  0.00001859  0.37734374  1
  Zn  Zn117  1  0.37281071  0.37588188  0.49980043  1
  Zn  Zn118  1  -0.00608827  0.74575289  0.75451359  1
  Zn  Zn119  1  -0.00002031  0.37782817  0.37375435  1
  Zn  Zn120  1  0.75125699  0.12657448  0.87630565  1
  Zn  Zn121  1  0.49532371  0.12428745  0.12421858  1
  Zn  Zn122  1  0.18780070  0.18769685  0.18436955  1
  Zn  Zn123  1  0.18759714  0.18753650  0.68715010  1
  Zn  Zn124  1  0.18238937  0.68899231  0.18711581  1
  Zn  Zn125  1  0.18646417  0.68722631  0.68572432  1
  Zn  Zn126  1  0.68545809  0.18836066  0.18744327  1
  Zn  Zn127  1  0.68986783  0.18668423  0.68889482  1
  Zn  Zn128  1  0.68687482  0.68787753  0.19017537  1
  Zn  Zn129  1  0.67127748  0.68746239  0.68970148  1
  Zn  Zn130  1  0.31352854  0.31298495  0.31162225  1
  Zn  Zn131  1  0.31168893  0.31227976  0.81168907  1
  Zn  Zn132  1  0.31006527  0.81271555  0.31064641  1
  Zn  Zn133  1  0.31108488  0.81364247  0.81224710  1
  Zn  Zn134  1  0.81316310  0.31547375  0.31204365  1
  Zn  Zn135  1  0.81181205  0.31534344  0.81163643  1
  Zn  Zn136  1  0.81065111  0.81209944  0.31798398  1
  Zn  Zn137  1  0.81140908  0.81614699  0.82099797  1
  Zn  Zn138  1  0.18717986  0.43647029  0.43447900  1
  Zn  Zn139  1  0.18601613  0.43851853  0.93282196  1
  Zn  Zn140  1  0.19049476  0.93670587  0.43814909  1
  Zn  Zn141  1  0.18942969  0.93875518  0.93705364  1
  Zn  Zn142  1  0.68761911  0.43780662  0.43595913  1
  Zn  Zn143  1  0.68810212  0.43839331  0.93747600  1
  Zn  Zn144  1  0.69150320  0.93736659  0.43861729  1
  Zn  Zn145  1  0.68904524  0.93729942  0.93789189  1
  Zn  Zn146  1  0.31334976  0.06481477  0.06240177  1
  Zn  Zn147  1  0.31316758  0.06162653  0.55917679  1
  Zn  Zn148  1  0.31135444  0.56220560  0.06286858  1
  Zn  Zn149  1  0.31571942  0.56481054  0.56101104  1
  Zn  Zn150  1  0.81015830  0.06159328  0.06423866  1
  Zn  Zn151  1  0.81503296  0.05892519  0.56413016  1
  Zn  Zn152  1  0.81185792  0.56212189  0.05876989  1
  Zn  Zn153  1  0.81356741  0.55827270  0.55733224  1
  Zn  Zn154  1  0.43535273  0.43524761  0.18675931  1
  Zn  Zn155  1  0.43616302  0.43543539  0.68904685  1
  Zn  Zn156  1  0.43707901  0.93943628  0.18670490  1
  Zn  Zn157  1  0.43894462  0.93794633  0.68295135  1
  Zn  Zn158  1  0.93838101  0.43715296  0.18627125  1
  Zn  Zn159  1  0.93900922  0.43935594  0.68430504  1
  Zn  Zn160  1  0.93720825  0.93704036  0.18948812  1
  Zn  Zn161  1  0.94041957  0.93598537  0.69017033  1
  Zn  Zn162  1  0.06355218  0.06090874  0.31123205  1
  Zn  Zn163  1  0.06310040  0.06026802  0.81249303  1
  Zn  Zn164  1  0.06312357  0.56206455  0.31511975  1
  Zn  Zn165  1  0.06406349  0.55947958  0.81022551  1
  Zn  Zn166  1  0.56407216  0.06426046  0.31284577  1
  Zn  Zn167  1  0.56017719  0.06519301  0.81341480  1
  Zn  Zn168  1  0.56666006  0.56351052  0.31231080  1
  Zn  Zn169  1  0.56279985  0.56447142  0.81196137  1
  Zn  Zn170  1  0.43865411  0.18256654  0.43785831  1
  Zn  Zn171  1  0.43633207  0.18456153  0.93585418  1
  Zn  Zn172  1  0.43777256  0.68637596  0.43714519  1
  Zn  Zn173  1  0.43398828  0.68522167  0.93919051  1
  Zn  Zn174  1  0.93922994  0.18769344  0.43667582  1
  Zn  Zn175  1  0.93863749  0.18814611  0.93566839  1
  Zn  Zn176  1  0.93937394  0.68633366  0.44134285  1
  Zn  Zn177  1  0.93436302  0.68903060  0.94033842  1
  Zn  Zn178  1  0.06397355  0.31293229  0.06150413  1
  Zn  Zn179  1  0.06319009  0.31062258  0.56195865  1
  Zn  Zn180  1  0.06160308  0.81113578  0.06481021  1
  Zn  Zn181  1  0.06404831  0.81047680  0.56373886  1
  Zn  Zn182  1  0.56203094  0.31422105  0.06253112  1
  Zn  Zn183  1  0.56252666  0.31159650  0.56187402  1
  Zn  Zn184  1  0.56233569  0.81420811  0.06792883  1
  Zn  Zn185  1  0.56406553  0.81626940  0.56525379  1
  O  O186  1  0.11852520  0.11957093  0.11825661  1
  O  O187  1  0.12517015  0.11767811  0.61725810  1
  O  O188  1  0.11529945  0.61971433  0.11574185  1
  O  O189  1  0.11792395  0.62752634  0.61216753  1
  O  O190  1  0.62325945  0.12396441  0.11156862  1
  O  O191  1  0.62211753  0.12042522  0.62156506  1
  O  O192  1  0.61874340  0.62106769  0.11968157  1
  O  O193  1  0.61865141  0.61587272  0.61768251  1
  O  O194  1  0.38813550  0.37668390  0.37716101  1
  O  O195  1  0.38014961  0.38118588  0.87929775  1
  O  O196  1  0.36849673  0.88932925  0.37473336  1
  O  O197  1  0.37047873  0.88589115  0.88090552  1
  O  O198  1  0.87891324  0.37685125  0.38315955  1
  O  O199  1  0.87979024  0.38468650  0.87982250  1
  O  O200  1  0.88599568  0.87582851  0.38533624  1
  O  O201  1  0.88449238  0.88335455  0.88522633  1
  O  O202  1  0.25715404  0.00845780  0.37363899  1
  O  O203  1  0.26121425  0.00113584  0.86864497  1
  O  O204  1  0.25131520  0.50735849  0.36717860  1
  O  O205  1  0.25478640  0.51046021  0.86671083  1
  O  O206  1  0.75264802  0.00784450  0.36867372  1
  O  O207  1  0.75729664  0.00149065  0.86719864  1
  O  O208  1  0.74900721  0.50762848  0.36611201  1
  O  O209  1  0.75607310  0.50648223  0.86974276  1
  O  O210  1  0.24187601  0.50051522  0.13074296  1
  O  O211  1  0.25823765  0.49980308  0.63844648  1
  O  O212  1  0.24452916  0.99319904  0.12380683  1
  O  O213  1  0.24636627  0.99363382  0.62947069  1
  O  O214  1  0.74623406  0.49770560  0.13045663  1
  O  O215  1  0.74484384  0.49577054  0.62853363  1
  O  O216  1  0.74605529  0.99341348  0.13314586  1
  O  O217  1  0.74592297  0.99876215  0.63919822  1
  O  O218  1  0.00667257  0.36850258  0.24979394  1
  O  O219  1  0.00733029  0.37212772  0.75212373  1
  O  O220  1  0.00106652  0.86718996  0.26077841  1
  O  O221  1  0.00897608  0.87624059  0.76107414  1
  O  O222  1  0.50223482  0.36836776  0.25859541  1
  O  O223  1  0.50356771  0.37211976  0.75883914  1
  O  O224  1  0.51290141  0.86857062  0.24376604  1
  O  O225  1  0.51275823  0.87625380  0.74929971  1
  O  O226  1  0.50142663  0.13698281  0.24876308  1
  O  O227  1  0.49295222  0.12792266  0.74250217  1
  O  O228  1  0.49474083  0.63003520  0.24497542  1
  O  O229  1  0.48995204  0.62770806  0.74890400  1
  O  O230  1  0.99480032  0.13025485  0.24389533  1
  O  O231  1  0.99436002  0.13113218  0.74873706  1
  O  O232  1  1.00651628  0.63233195  0.24027618  1
  O  O233  1  1.01070944  0.62419815  0.73262975  1
  O  O234  1  0.36634581  0.25551902  -0.00280816  1
  O  O235  1  0.37029954  0.24796411  0.50825681  1
  O  O236  1  0.36885405  0.75392972  0.00626433  1
  O  O237  1  0.36939065  0.74812662  0.50871947  1
  O  O238  1  0.87007993  0.25518070  0.00463169  1
  O  O239  1  0.87091076  0.25467035  0.50528792  1
  O  O240  1  0.86611660  0.75815083  0.00282538  1
  O  O241  1  0.87550151  0.76425189  0.49858676  1
  O  O242  1  0.13063936  0.24366603  0.49347840  1
  O  O243  1  0.13227191  0.24522619  0.99673391  1
  O  O244  1  0.13098714  0.74034881  0.49551532  1
  O  O245  1  0.13061855  0.73663304  1.00603588  1
  O  O246  1  0.63238610  0.24343456  0.49561342  1
  O  O247  1  0.62848347  0.24335285  0.99307923  1
  O  O248  1  0.62659341  0.74403818  0.49368468  1
  O  O249  1  0.62816765  0.74666499  0.99670312  1
  O  O250  1  0.50070214  0.25086396  0.13606910  1
  O  O251  1  0.49086700  0.24338031  0.62437156  1
  O  O252  1  0.49345538  0.74367345  0.13173147  1
  O  O253  1  0.48756381  0.74812192  0.62805832  1
  O  O254  1  0.99441297  0.24435839  0.12902250  1
  O  O255  1  0.99280784  0.24822625  0.63144546  1
  O  O256  1  0.99848367  0.74240734  0.13455100  1
  O  O257  1  1.00116459  0.73336745  0.62314298  1
  O  O258  1  0.00798994  0.25007012  0.36680035  1
  O  O259  1  -0.00056115  0.25891536  0.86716702  1
  O  O260  1  0.00407435  0.75442030  0.37048776  1
  O  O261  1  -0.00117817  0.76465041  0.87972429  1
  O  O262  1  0.50502798  0.25587594  0.36958566  1
  O  O263  1  0.50910287  0.25561338  0.87573408  1
  O  O264  1  0.51390528  0.74233336  0.36922897  1
  O  O265  1  0.51170023  0.74560815  0.87883125  1
  O  O266  1  0.24448559  0.12938091  0.48959465  1
  O  O267  1  0.24381143  0.13425193  0.99806469  1
  O  O268  1  0.24356939  0.62832520  0.49518932  1
  O  O269  1  0.24237019  0.62819769  0.99292480  1
  O  O270  1  0.74788090  0.13048287  0.49577132  1
  O  O271  1  0.74074362  0.13061145  0.99876610  1
  O  O272  1  0.74203663  0.62224718  0.49116545  1
  O  O273  1  0.74246353  0.63088424  0.99489456  1
  O  O274  1  0.25405314  0.36813775  -0.00281455  1
  O  O275  1  0.25232090  0.36742552  0.50034925  1
  O  O276  1  0.25603205  0.86876242  0.00421785  1
  O  O277  1  0.25199635  0.86614289  0.50706952  1
  O  O278  1  0.75592043  0.37091341  0.00564753  1
  O  O279  1  0.75559821  0.36958008  0.50464172  1
  O  O280  1  0.75451552  0.87132408  0.00790655  1
  O  O281  1  0.76529586  0.87294856  0.50236656  1
  O  O282  1  0.12945749  0.49544466  0.24480641  1
  O  O283  1  0.13619286  0.49015042  0.75382334  1
  O  O284  1  0.12722219  0.99674294  0.24031635  1
  O  O285  1  0.13083640  0.99142989  0.74407470  1
  O  O286  1  0.63504502  0.49860494  0.24254920  1
  O  O287  1  0.63185693  0.49927808  0.74366807  1
  O  O288  1  0.62985130  0.99096893  0.25169821  1
  O  O289  1  0.63219474  0.99576883  0.75051476  1
  O  O290  1  0.37236304  0.00181675  0.26192290  1
  O  O291  1  0.37120422  0.00181233  0.75543081  1
  O  O292  1  0.36830690  0.50741426  0.24988020  1
  O  O293  1  0.36661473  0.50510255  0.75602135  1
  O  O294  1  0.86902685  0.00746301  0.25243645  1
  O  O295  1  0.86875590  0.00332873  0.75546952  1
  O  O296  1  0.86154293  0.49597825  0.25040009  1
  O  O297  1  0.86929127  0.49549432  0.76146213  1
  O  O298  1  0.12329776  0.36684313  0.36639075  1
  O  O299  1  0.11724415  0.37468155  0.86343372  1
  O  O300  1  0.11302196  0.86813504  0.37895564  1
  O  O301  1  0.11691883  0.88203419  0.86664995  1
  O  O302  1  0.61478642  0.36813926  0.37503342  1
  O  O303  1  0.61943863  0.36581585  0.87758869  1
  O  O304  1  0.63387066  0.86467986  0.36642553  1
  O  O305  1  0.62915821  0.86590523  0.86942591  1
  O  O306  1  0.37776753  0.13045665  0.12901324  1
  O  O307  1  0.38031326  0.13077333  0.62798305  1
  O  O308  1  0.37941118  0.63088079  0.12984253  1
  O  O309  1  0.37459764  0.63560325  0.63144758  1
  O  O310  1  0.87978606  0.13095147  0.12984385  1
  O  O311  1  0.87677460  0.13145443  0.63198231  1
  O  O312  1  0.89022882  0.62597352  0.11597997  1
  O  O313  1  0.88958362  0.62033216  0.62074731  1
  O  O314  1  0.24967485  0.25327702  0.11021825  1
  O  O315  1  0.26010782  0.24797132  0.61742984  1
  O  O316  1  0.25448020  0.75382820  0.11865788  1
  O  O317  1  0.25883138  0.75347390  0.62065808  1
  O  O318  1  0.75515077  0.25596448  0.11998707  1
  O  O319  1  0.75576514  0.25536475  0.61980956  1
  O  O320  1  0.75094166  0.75502530  0.12115709  1
  O  O321  1  0.74881031  0.74550893  0.62638707  1
  O  O322  1  0.24609266  0.24150624  0.37871040  1
  O  O323  1  0.24835875  0.24741694  0.88543897  1
  O  O324  1  0.24448183  0.74432243  0.38002241  1
  O  O325  1  0.25535612  0.73640922  0.88079204  1
  O  O326  1  0.74548034  0.24555844  0.38030411  1
  O  O327  1  0.74106925  0.25103688  0.88190062  1
  O  O328  1  0.73948127  0.74112179  0.37748220  1
  O  O329  1  0.73860339  0.74665942  0.88388845  1
  O  O330  1  0.00424080  0.12023189  0.00570445  1
  O  O331  1  0.00704673  0.11720687  0.49997732  1
  O  O332  1  0.00738961  0.62166442  0.00523389  1
  O  O333  1  0.00768888  0.61834024  0.50786475  1
  O  O334  1  0.50830142  0.11608190  -0.00037343  1
  O  O335  1  0.51062539  0.12025490  0.50568596  1
  O  O336  1  0.50354308  0.61904030  0.00696675  1
  O  O337  1  0.50564014  0.61263083  0.49892062  1
  O  O338  1  0.50010709  0.38241586  0.49100367  1
  O  O339  1  0.49382726  0.38146156  0.99427068  1
  O  O340  1  0.49863146  0.88034274  0.50318371  1
  O  O341  1  0.49406068  0.88579271  1.00654858  1
  O  O342  1  0.99707645  0.38256935  0.50009981  1
  O  O343  1  0.99538890  0.38145017  0.99414373  1
  O  O344  1  0.99217781  0.87690832  0.49514431  1
  O  O345  1  0.99694384  0.88053397  0.99587310  1
  O  O346  1  0.50248693  0.49161666  0.38197423  1
  O  O347  1  0.49467084  0.49661797  0.88156044  1
  O  O348  1  0.48496076  1.00648786  0.37460588  1
  O  O349  1  0.48995869  1.00388945  0.88473411  1
  O  O350  1  0.99779299  0.50057447  0.38739750  1
  O  O351  1  0.99190457  0.49702798  0.87839018  1
  O  O352  1  1.00077515  0.98931479  0.38117271  1
  O  O353  1  0.99549003  0.99164635  0.88244363  1
  O  O354  1  0.00488076  0.00507339  0.11991791  1
  O  O355  1  0.00794058  0.00040206  0.61917571  1
  O  O356  1  0.00411978  0.50740908  0.11922451  1
  O  O357  1  -0.00127470  0.51006114  0.61252950  1
  O  O358  1  0.50218842  0.00331599  0.11258188  1
  O  O359  1  0.50994935  0.00816773  0.62531582  1
  O  O360  1  0.50498321  0.50496720  0.12020902  1
  O  O361  1  0.50384560  0.49720080  0.61439632  1
  O  O362  1  0.24380820  0.38134859  0.24792943  1
  O  O363  1  0.24293672  0.38350812  0.74998005  1
  O  O364  1  0.24477628  0.87482441  0.23977486  1
  O  O365  1  0.24150819  0.87932187  0.74533641  1
  O  O366  1  0.74741599  0.38407406  0.24351006  1
  O  O367  1  0.74785460  0.38355937  0.74251862  1
  O  O368  1  0.74307491  0.87947233  0.24811403  1
  O  O369  1  0.74170763  0.88633257  0.75407936  1
  O  O370  1  0.24978901  0.12493048  0.26149839  1
  O  O371  1  0.25670135  0.11667810  0.74976611  1
  O  O372  1  0.25297257  0.62146479  0.25390614  1
  O  O373  1  0.25124681  0.61931344  0.75646376  1
  O  O374  1  0.75432000  0.12110979  0.25461614  1
  O  O375  1  0.75627348  0.11476260  0.75364055  1
  O  O376  1  0.74419763  0.61612577  0.25943673  1
  O  O377  1  0.74815604  0.62116969  0.75490800  1
  O  O378  1  0.36546725  0.11594130  0.37376597  1
  O  O379  1  0.37366725  0.11285593  0.86730743  1
  O  O380  1  0.36745511  0.62484110  0.36729263  1
  O  O381  1  0.36474885  0.61959838  0.87103173  1
  O  O382  1  0.86932387  0.12471721  0.36817507  1
  O  O383  1  0.87434262  0.11866548  0.86880740  1
  O  O384  1  0.86010130  0.62476499  0.38339262  1
  O  O385  1  0.86807289  0.61335102  0.88251232  1
  O  O386  1  0.12563086  0.38312584  0.13010790  1
  O  O387  1  0.12834018  0.37000737  0.63803016  1
  O  O388  1  0.13107672  0.88149340  0.12292109  1
  O  O389  1  0.12986474  0.87960863  0.63268690  1
  O  O390  1  0.63270402  0.38320188  0.12359786  1
  O  O391  1  0.63230572  0.37983097  0.62523785  1
  O  O392  1  0.63273551  0.87493388  0.13832021  1
  O  O393  1  0.63110856  0.88055403  0.63909469  1
  O  O394  1  0.12011489  0.25452013  0.25280503  1
  O  O395  1  0.12000807  0.25812143  0.75165367  1
  O  O396  1  0.11290452  0.75205494  0.25741984  1
  O  O397  1  0.12092557  0.76375054  0.74473964  1
  O  O398  1  0.61687694  0.25259968  0.25678544  1
  O  O399  1  0.62514991  0.25029694  0.76323655  1
  O  O400  1  0.62056415  0.75673599  0.25907060  1
  O  O401  1  0.62026914  0.75986506  0.76216983  1
  O  O402  1  0.38740356  0.24865274  0.24993582  1
  O  O403  1  0.37412547  0.24298740  0.73970133  1
  O  O404  1  0.37979874  0.74501382  0.24499763  1
  O  O405  1  0.37408864  0.74554410  0.74275813  1
  O  O406  1  0.87976146  0.24523994  0.24331397  1
  O  O407  1  0.87917222  0.24587387  0.74517135  1
  O  O408  1  0.88852670  0.75324976  0.25221369  1
  O  O409  1  0.88142760  0.75710727  0.75862462  1
  O  O410  1  0.38651143  0.49860263  0.49691051  1
  O  O411  1  0.37927266  0.49587445  0.99446149  1
  O  O412  1  0.37550161  0.99862327  0.48505109  1
  O  O413  1  0.38174623  0.99524009  0.99205248  1
  O  O414  1  0.88521512  0.49149948  0.49708128  1
  O  O415  1  0.87985911  0.49407468  0.99035434  1
  O  O416  1  0.88175889  0.98840066  0.49845890  1
  O  O417  1  0.88080376  0.99582205  0.99744158  1
  O  O418  1  0.12006676  0.00589466  0.00546897  1
  O  O419  1  0.12116689  0.00334563  0.50558194  1
  O  O420  1  0.11923321  0.50932421  0.00352493  1
  O  O421  1  0.11773705  0.50937804  0.49387580  1
  O  O422  1  0.61748236  0.00722438  -0.00247736  1
  O  O423  1  0.63081080  0.00605071  0.50872551  1
  O  O424  1  0.61944211  0.50671311  0.00471173  1
  O  O425  1  0.61695223  0.50322082  0.50471498  1
  O  O426  1  0.37170176  0.37184581  0.11467484  1
  O  O427  1  0.37271606  0.36180386  0.62313238  1
  O  O428  1  0.36885759  0.86890745  0.11905273  1
  O  O429  1  0.36786014  0.86496177  0.62663133  1
  O  O430  1  0.87027644  0.36961828  0.11796384  1
  O  O431  1  0.86962773  0.36973992  0.61813570  1
  O  O432  1  0.86903282  0.87288672  0.12076214  1
  O  O433  1  0.87545694  0.87751128  0.61351417  1
  O  O434  1  0.13328296  0.12870698  0.37912222  1
  O  O435  1  0.12686114  0.12597735  0.88273795  1
  O  O436  1  0.12997513  0.63059985  0.38474437  1
  O  O437  1  0.13326217  0.61839255  0.88474745  1
  O  O438  1  0.63273997  0.13003845  0.38169379  1
  O  O439  1  0.62543850  0.13450455  0.88497919  1
  O  O440  1  0.63347595  0.63300352  0.38024999  1
  O  O441  1  0.63040285  0.63408210  0.88112273  1
