# generated using pymatgen
data_V93Zn93O256
_symmetry_space_group_name_H-M   'P 1'
_cell_length_a   17.04955511
_cell_length_b   17.04799963
_cell_length_c   17.04837936
_cell_angle_alpha   89.95882107
_cell_angle_beta   90.03398438
_cell_angle_gamma   89.95379150
_symmetry_Int_Tables_number   1
_chemical_formula_structural   V93Zn93O256
_chemical_formula_sum   'V93 Zn93 O256'
_cell_volume   4955.29197611
_cell_formula_units_Z   1
loop_
 _symmetry_equiv_pos_site_id
 _symmetry_equiv_pos_as_xyz
  1  'x, y, z'
loop_
 _atom_site_type_symbol
 _atom_site_label
 _atom_site_symmetry_multiplicity
 _atom_site_fract_x
 _atom_site_fract_y
 _atom_site_fract_z
 _atom_site_occupancy
  V  V0  1  0.87581598  0.24962891  0.12655574  1
  V  V1  1  0.49983574  0.62439200  0.62527242  1
  V  V2  1  0.50119865  0.25176074  0.24989531  1
  V  V3  1  0.86790915  0.87345364  0.50482727  1
  V  V4  1  0.12345210  0.62791948  -0.00395971  1
  V  V5  1  0.62906546  0.88350681  0.25001606  1
  V  V6  1  0.49931594  0.75170762  0.24786248  1
  V  V7  1  0.75157681  0.12391293  0.87487187  1
  V  V8  1  0.50078478  0.24986520  0.75001201  1
  V  V9  1  0.12492131  0.37319951  0.75058813  1
  V  V10  1  0.50108604  0.37502944  0.87476532  1
  V  V11  1  0.62491214  0.75045814  0.37538740  1
  V  V12  1  0.24995347  0.62633186  0.37372631  1
  V  V13  1  0.00413832  0.24932238  0.25676335  1
  V  V14  1  0.00102651  0.37330738  0.87574105  1
  V  V15  1  0.74379364  0.62557577  0.88031965  1
  V  V16  1  0.00031707  0.49994187  0.00159552  1
  V  V17  1  0.24704271  0.24924570  0.49379876  1
  V  V18  1  0.75054365  0.50022962  0.24971768  1
  V  V19  1  0.62822921  -0.00718502  0.62499521  1
  V  V20  1  0.74227235  0.74772467  0.00095514  1
  V  V21  1  -0.00114698  0.87323244  0.37548619  1
  V  V22  1  0.62438915  0.87194736  0.75417267  1
  V  V23  1  0.49919982  0.00073721  0.49991523  1
  V  V24  1  0.87616877  0.24790801  0.62568104  1
  V  V25  1  -0.00017908  0.12408845  0.62615862  1
  V  V26  1  -0.00055920  0.75009615  0.25098341  1
  V  V27  1  0.37456987  0.75063632  0.62366375  1
  V  V28  1  0.00058108  -0.00114586  -0.00028464  1
  V  V29  1  0.12588498  0.12719961  0.49332619  1
  V  V30  1  0.12633740  0.24893329  0.87510725  1
  V  V31  1  0.37633288  0.37590906  -0.00099292  1
  V  V32  1  0.37579958  0.50290483  0.37260660  1
  V  V33  1  0.12317148  0.74971071  0.37563416  1
  V  V34  1  0.87546586  0.12248733  0.74961652  1
  V  V35  1  0.87498200  0.62491497  0.75057004  1
  V  V36  1  0.87631353  0.37388543  0.00043596  1
  V  V37  1  0.50305802  0.50577844  -0.00199089  1
  V  V38  1  0.37393406  0.62479169  0.74893734  1
  V  V39  1  0.87511906  0.62472365  0.25096557  1
  V  V40  1  0.87439127  0.75047109  0.12604776  1
  V  V41  1  0.12629275  0.37227759  0.25534305  1
  V  V42  1  0.62584495  0.50559769  0.12189596  1
  V  V43  1  0.50178034  0.12617369  0.12514871  1
  V  V44  1  0.75032484  -0.00584771  0.74763997  1
  V  V45  1  0.24992099  0.25084207  -0.00071174  1
  V  V46  1  0.00005033  0.62515350  0.12460489  1
  V  V47  1  0.12624507  -0.00230136  0.62627961  1
  V  V48  1  0.87213649  0.12087434  0.24980437  1
  V  V49  1  0.37489709  0.24962561  0.62426061  1
  V  V50  1  0.12378870  0.86758800  0.75294750  1
  V  V51  1  0.49969092  0.87622791  0.37345719  1
  V  V52  1  0.74857070  0.37645561  0.62752744  1
  V  V53  1  0.25059794  0.00195193  0.25052605  1
  V  V54  1  0.75014478  0.12110564  0.37258517  1
  V  V55  1  0.25020153  0.37355959  0.62464837  1
  V  V56  1  0.74902877  0.62564768  0.37645175  1
  V  V57  1  0.75074953  0.37662866  0.12572155  1
  V  V58  1  0.25117199  0.87441652  0.12388981  1
  V  V59  1  0.87004700  0.75208774  0.62660361  1
  V  V60  1  0.62467520  0.62597436  0.50085824  1
  V  V61  1  0.50103124  0.50095007  0.50012351  1
  V  V62  1  0.37446167  0.12005431  0.75579864  1
  V  V63  1  0.12464794  0.12545137  -0.00086231  1
  V  V64  1  0.50075684  0.62796370  0.12232900  1
  V  V65  1  0.87569571  0.49848053  0.37573644  1
  V  V66  1  0.37417103  0.87558917  0.50080204  1
  V  V67  1  -0.00027384  0.49880885  0.50008034  1
  V  V68  1  0.75073304  0.24841855  0.50009359  1
  V  V69  1  0.24972685  0.37736433  0.12507717  1
  V  V70  1  0.49417873  -0.00159035  -0.00674197  1
  V  V71  1  0.24874284  0.74967447  -0.00225496  1
  V  V72  1  0.37324091  0.00142220  0.37468091  1
  V  V73  1  0.37683716  0.25207068  0.12422211  1
  V  V74  1  0.87373446  -0.00119149  0.37362503  1
  V  V75  1  0.87430353  0.49925087  0.87554450  1
  V  V76  1  0.62594154  0.25088021  0.87438100  1
  V  V77  1  0.12521067  0.00154654  0.12387755  1
  V  V78  1  0.62612589  0.12441757  0.00113013  1
  V  V79  1  0.87491860  0.87514593  0.00007758  1
  V  V80  1  0.25331445  -0.00168932  0.75634813  1
  V  V81  1  0.50208174  0.37559601  0.37518604  1
  V  V82  1  0.12334666  0.62407100  0.49963966  1
  V  V83  1  0.87584352  0.37469403  0.49984843  1
  V  V84  1  0.74992408  0.88182142  0.12879666  1
  V  V85  1  -0.00018505  -0.00146062  0.50012475  1
  V  V86  1  0.62566718  0.12462137  0.49970145  1
  V  V87  1  0.75107372  0.24949700  0.00042269  1
  V  V88  1  0.24962870  0.49967321  0.74997401  1
  V  V89  1  0.00199273  0.86658008  0.87506934  1
  V  V90  1  0.24632268  0.62858267  0.87366920  1
  V  V91  1  0.50045186  0.12492420  0.62485888  1
  V  V92  1  0.12426566  0.49917753  0.62410921  1
  Zn  Zn93  1  0.49026540  0.87263056  0.87226246  1
  Zn  Zn94  1  0.62722391  0.37644074  0.25009906  1
  Zn  Zn95  1  0.74724006  0.49903909  0.75261509  1
  Zn  Zn96  1  -0.00018529  0.12451590  0.12551680  1
  Zn  Zn97  1  -0.00048199  0.62442786  0.62639433  1
  Zn  Zn98  1  0.00148544  0.24717668  0.75102991  1
  Zn  Zn99  1  0.62659248  0.00284455  0.12683684  1
  Zn  Zn100  1  0.37464649  0.37385277  0.49980721  1
  Zn  Zn101  1  0.61986795  0.74729138  0.87976155  1
  Zn  Zn102  1  0.37505560  0.12661223  0.25098211  1
  Zn  Zn103  1  0.00575607  0.37130388  0.37805398  1
  Zn  Zn104  1  0.37549864  0.75252055  0.12336887  1
  Zn  Zn105  1  0.62634059  0.25042039  0.37470601  1
  Zn  Zn106  1  0.24901684  0.87326717  0.62480222  1
  Zn  Zn107  1  0.74647874  0.75298659  0.50419253  1
  Zn  Zn108  1  0.62530471  0.50107377  0.62715145  1
  Zn  Zn109  1  0.87542288  -0.00188950  0.87470779  1
  Zn  Zn110  1  0.00297017  0.74643822  0.75160733  1
  Zn  Zn111  1  0.37299776  0.62946808  0.24769087  1
  Zn  Zn112  1  0.12364304  0.87608637  0.25140563  1
  Zn  Zn113  1  0.25356064  0.12134982  0.87781704  1
  Zn  Zn114  1  0.49935051  0.74963672  0.75504707  1
  Zn  Zn115  1  0.24737986  0.75353730  0.49875590  1
  Zn  Zn116  1  0.24837306  0.12990470  0.37158323  1
  Zn  Zn117  1  0.24811893  0.50114818  0.24818209  1
  Zn  Zn118  1  0.37575371  0.50066664  0.87394229  1
  Zn  Zn119  1  0.12711629  0.50105109  0.12615402  1
  Zn  Zn120  1  0.62461051  0.37648628  0.74934226  1
  Zn  Zn121  1  0.36432035  0.88593434  -0.01239203  1
  Zn  Zn122  1  0.18673942  0.18896988  0.18532710  1
  Zn  Zn123  1  0.18895325  0.18617575  0.68611184  1
  Zn  Zn124  1  0.18471299  0.68844206  0.18703892  1
  Zn  Zn125  1  0.18919727  0.68617900  0.68371473  1
  Zn  Zn126  1  0.68732904  0.18901346  0.18817032  1
  Zn  Zn127  1  0.68774616  0.18576067  0.68757761  1
  Zn  Zn128  1  0.68608934  0.69052043  0.18858503  1
  Zn  Zn129  1  0.68920275  0.68705516  0.68870710  1
  Zn  Zn130  1  0.31463218  0.31565638  0.31160886  1
  Zn  Zn131  1  0.31388030  0.31092599  0.81280956  1
  Zn  Zn132  1  0.31313202  0.81356190  0.31122107  1
  Zn  Zn133  1  0.31221313  0.81270636  0.81254128  1
  Zn  Zn134  1  0.81464659  0.31074927  0.31316947  1
  Zn  Zn135  1  0.81448686  0.30994939  0.81144766  1
  Zn  Zn136  1  0.81148939  0.81194636  0.31423366  1
  Zn  Zn137  1  0.81260207  0.81121248  0.81462367  1
  Zn  Zn138  1  0.18889519  0.43761578  0.43718219  1
  Zn  Zn139  1  0.18719708  0.43994137  0.93745359  1
  Zn  Zn140  1  0.18749373  0.93670784  0.43743444  1
  Zn  Zn141  1  0.18287671  0.93602837  0.93495755  1
  Zn  Zn142  1  0.68741384  0.43870293  0.43972791  1
  Zn  Zn143  1  0.68700957  0.43794935  0.93808263  1
  Zn  Zn144  1  0.68717751  0.93895956  0.43583528  1
  Zn  Zn145  1  0.68441111  0.93776272  0.93764033  1
  Zn  Zn146  1  0.31372760  0.06711795  0.06522926  1
  Zn  Zn147  1  0.31144832  0.06318865  0.56543029  1
  Zn  Zn148  1  0.31565023  0.56210056  0.06209221  1
  Zn  Zn149  1  0.31215485  0.56237417  0.55990482  1
  Zn  Zn150  1  0.81484265  0.06196827  0.06213438  1
  Zn  Zn151  1  0.81209712  0.06066297  0.56234157  1
  Zn  Zn152  1  0.81393135  0.56340739  0.06188807  1
  Zn  Zn153  1  0.81203796  0.56292423  0.56300931  1
  Zn  Zn154  1  0.43731277  0.43918725  0.18728424  1
  Zn  Zn155  1  0.43638253  0.43721459  0.68725278  1
  Zn  Zn156  1  0.43720115  0.93984225  0.18276662  1
  Zn  Zn157  1  0.43931102  0.93636452  0.68819899  1
  Zn  Zn158  1  0.94026419  0.43659454  0.18855578  1
  Zn  Zn159  1  0.93738874  0.43722804  0.68837920  1
  Zn  Zn160  1  0.93802515  0.93775278  0.18702842  1
  Zn  Zn161  1  0.93840737  0.93525913  0.68775980  1
  Zn  Zn162  1  0.06020230  0.06088133  0.31116601  1
  Zn  Zn163  1  0.06295694  0.05868839  0.81505460  1
  Zn  Zn164  1  0.06283546  0.55893473  0.31213755  1
  Zn  Zn165  1  0.06194161  0.56002628  0.81356387  1
  Zn  Zn166  1  0.56139572  0.06436776  0.31329711  1
  Zn  Zn167  1  0.56461369  0.06382638  0.81277635  1
  Zn  Zn168  1  0.56323140  0.56465634  0.30926731  1
  Zn  Zn169  1  0.56319399  0.56106236  0.80808952  1
  Zn  Zn170  1  0.43432161  0.18705909  0.43660194  1
  Zn  Zn171  1  0.43934339  0.18741319  0.93771185  1
  Zn  Zn172  1  0.43834781  0.68921069  0.43758042  1
  Zn  Zn173  1  0.43336938  0.69021983  0.93551090  1
  Zn  Zn174  1  0.93761891  0.18682278  0.43811046  1
  Zn  Zn175  1  0.93888229  0.18556831  0.93653605  1
  Zn  Zn176  1  0.93652298  0.68651335  0.43977622  1
  Zn  Zn177  1  0.93257069  0.68823781  0.93839329  1
  Zn  Zn178  1  0.06339851  0.31136549  0.06723093  1
  Zn  Zn179  1  0.06291743  0.31083812  0.56304304  1
  Zn  Zn180  1  0.06481766  0.81239543  0.06281696  1
  Zn  Zn181  1  0.05591137  0.80896578  0.56403389  1
  Zn  Zn182  1  0.56511055  0.31607797  0.06179478  1
  Zn  Zn183  1  0.56364848  0.31174297  0.56098694  1
  Zn  Zn184  1  0.56300025  0.81693741  0.06365095  1
  Zn  Zn185  1  0.55999094  0.81208156  0.56370142  1
  O  O186  1  0.12340685  0.11886251  0.11708068  1
  O  O187  1  0.12043499  0.11449198  0.61849129  1
  O  O188  1  0.11834366  0.62383903  0.11476603  1
  O  O189  1  0.12389396  0.61685851  0.61839462  1
  O  O190  1  0.62097606  0.12488727  0.11969976  1
  O  O191  1  0.61973332  0.11566015  0.61979604  1
  O  O192  1  0.61529206  0.61568942  0.12920979  1
  O  O193  1  0.61824808  0.62586876  0.61901126  1
  O  O194  1  0.38548264  0.38506274  0.37604754  1
  O  O195  1  0.38272310  0.37676018  0.88100131  1
  O  O196  1  0.38089395  0.88135320  0.38016751  1
  O  O197  1  0.37671223  0.87529340  0.87706758  1
  O  O198  1  0.87468941  0.38149148  0.38289147  1
  O  O199  1  0.88024118  0.37826444  0.88126634  1
  O  O200  1  0.87964348  0.87897231  0.38213167  1
  O  O201  1  0.88291835  0.87700252  0.88169312  1
  O  O202  1  0.25430745  -0.00124844  0.36429467  1
  O  O203  1  0.24337485  0.00178611  0.86007486  1
  O  O204  1  0.25950599  0.50874087  0.37458238  1
  O  O205  1  0.25126816  0.51033609  0.86914922  1
  O  O206  1  0.75682694  0.01356917  0.38036891  1
  O  O207  1  0.75003187  0.00629421  0.86529382  1
  O  O208  1  0.75501110  0.50551167  0.36955630  1
  O  O209  1  0.75707466  0.50794191  0.87823288  1
  O  O210  1  0.25090944  0.49273640  0.12727888  1
  O  O211  1  0.24460367  0.49422636  0.62907276  1
  O  O212  1  0.24620427  0.99449185  0.13125129  1
  O  O213  1  0.23928263  0.99853631  0.63331709  1
  O  O214  1  0.74386501  0.49788148  0.12829364  1
  O  O215  1  0.75075030  0.48675110  0.62555292  1
  O  O216  1  0.74904063  0.98524714  0.11983014  1
  O  O217  1  0.73855528  1.00650887  0.63491793  1
  O  O218  1  0.00783336  0.36658755  0.25115064  1
  O  O219  1  0.00686007  0.37322309  0.75760262  1
  O  O220  1  -0.00061251  0.86804297  0.25718322  1
  O  O221  1  0.00694992  0.87469683  0.75850182  1
  O  O222  1  0.50125324  0.36901911  0.25790876  1
  O  O223  1  0.49989770  0.36741599  0.75612070  1
  O  O224  1  0.50746560  0.87156777  0.25294782  1
  O  O225  1  0.51114077  0.87428414  0.75172709  1
  O  O226  1  0.50007911  0.13622513  0.24528792  1
  O  O227  1  0.49366783  0.12849649  0.74474944  1
  O  O228  1  0.49968583  0.63325677  0.24000279  1
  O  O229  1  0.49181225  0.62601178  0.74288060  1
  O  O230  1  0.99139928  0.13218483  0.24948234  1
  O  O231  1  0.99401688  0.12207832  0.74385315  1
  O  O232  1  0.99444194  0.62996476  0.24519849  1
  O  O233  1  0.98777597  0.62572166  0.75308388  1
  O  O234  1  0.37110485  0.25599090  0.00459304  1
  O  O235  1  0.36600368  0.24952848  0.50744302  1
  O  O236  1  0.35728346  0.74907169  0.00368125  1
  O  O237  1  0.37518759  0.75655730  0.50805249  1
  O  O238  1  0.87061277  0.25404691  0.00588197  1
  O  O239  1  0.87036605  0.25384603  0.50631595  1
  O  O240  1  0.86641923  0.75656500  0.00775086  1
  O  O241  1  0.87417243  0.75728779  0.50743992  1
  O  O242  1  0.13441235  0.23818421  0.50763046  1
  O  O243  1  0.13039942  0.24563017  0.99582586  1
  O  O244  1  0.12390101  0.74281772  0.49407117  1
  O  O245  1  0.13511236  0.73820187  1.00470026  1
  O  O246  1  0.63192297  0.24137735  0.49773545  1
  O  O247  1  0.63171580  0.24514789  0.99537202  1
  O  O248  1  0.62521040  0.74584106  0.49401091  1
  O  O249  1  0.63922142  0.75544870  1.00138489  1
  O  O250  1  0.49736982  0.24854863  0.13156421  1
  O  O251  1  0.49580569  0.24426954  0.62937039  1
  O  O252  1  0.50076317  0.74258081  0.12661342  1
  O  O253  1  0.48862720  0.74335681  0.62631790  1
  O  O254  1  0.99243123  0.24778839  0.13567080  1
  O  O255  1  0.99394372  0.24189461  0.62707977  1
  O  O256  1  0.99432421  0.74561347  0.13013275  1
  O  O257  1  0.98637274  0.74383322  0.62941417  1
  O  O258  1  -0.00565580  0.25154986  0.36156943  1
  O  O259  1  0.00750240  0.25629341  0.87420373  1
  O  O260  1  0.00320098  0.75328197  0.37004229  1
  O  O261  1  -0.00550451  0.76243208  0.87420915  1
  O  O262  1  0.49883304  0.25898024  0.36784797  1
  O  O263  1  0.50661521  0.25515788  0.87043927  1
  O  O264  1  0.50538056  0.75725995  0.36907206  1
  O  O265  1  0.50479665  0.75119208  0.87344401  1
  O  O266  1  0.24191440  0.13174889  0.50061673  1
  O  O267  1  0.24440511  0.13214220  0.99862570  1
  O  O268  1  0.24332615  0.62584445  0.48791896  1
  O  O269  1  0.24292857  0.62913874  0.99391940  1
  O  O270  1  0.74643013  0.12895488  0.49266876  1
  O  O271  1  0.74686357  0.13025241  0.99559181  1
  O  O272  1  0.74291909  0.62585971  0.49324108  1
  O  O273  1  0.75843654  0.63584060  0.99189848  1
  O  O274  1  0.25562796  0.37103739  0.00448186  1
  O  O275  1  0.24997569  0.36608595  0.50596973  1
  O  O276  1  0.24400231  0.86686027  0.00556998  1
  O  O277  1  0.25811319  0.87409017  0.50374579  1
  O  O278  1  0.75675467  0.36928275  0.00564537  1
  O  O279  1  0.75563633  0.36886951  0.50744018  1
  O  O280  1  0.75456745  0.86773528  0.00769707  1
  O  O281  1  0.76386583  0.87481309  0.49425293  1
  O  O282  1  0.12649328  0.48957707  0.24533153  1
  O  O283  1  0.13028312  0.49366598  0.74464599  1
  O  O284  1  0.13398409  0.99903771  0.24431854  1
  O  O285  1  0.13131690  0.99265762  0.74179370  1
  O  O286  1  0.63164346  0.49927524  0.23956282  1
  O  O287  1  0.63006135  0.49430161  0.74449581  1
  O  O288  1  0.62096464  0.98692872  0.25004577  1
  O  O289  1  0.63092242  0.99437396  0.74339264  1
  O  O290  1  0.36543479  0.00048839  0.25392059  1
  O  O291  1  0.36497816  0.00910064  0.73917975  1
  O  O292  1  0.37480650  0.50360351  0.26298991  1
  O  O293  1  0.36674912  0.50688626  0.75025773  1
  O  O294  1  0.88205466  0.01330464  0.25622413  1
  O  O295  1  0.86480751  0.00312328  0.74814115  1
  O  O296  1  0.87022166  0.50567772  0.25473446  1
  O  O297  1  0.87321432  0.50813734  0.75707322  1
  O  O298  1  0.12575275  0.37894288  0.36061391  1
  O  O299  1  0.12062668  0.36983081  0.87052509  1
  O  O300  1  0.11659919  0.86839279  0.37531801  1
  O  O301  1  0.11475306  0.87772142  0.86357350  1
  O  O302  1  0.61367885  0.37481473  0.37349456  1
  O  O303  1  0.61947548  0.36769547  0.87492634  1
  O  O304  1  0.62027036  0.87169522  0.36840296  1
  O  O305  1  0.62046092  0.87391291  0.86463842  1
  O  O306  1  0.38333259  0.13541444  0.12835534  1
  O  O307  1  0.38149107  0.12988347  0.63301009  1
  O  O308  1  0.38782440  0.62618897  0.12790506  1
  O  O309  1  0.37844184  0.63183857  0.62757924  1
  O  O310  1  0.87429253  0.12990218  0.13508035  1
  O  O311  1  0.88031592  0.12788411  0.62902203  1
  O  O312  1  0.88014462  0.63105442  0.13109223  1
  O  O313  1  0.87553893  0.62966600  0.63540273  1
  O  O314  1  0.25691971  0.25689377  0.11868934  1
  O  O315  1  0.25506239  0.25431457  0.61683798  1
  O  O316  1  0.24890863  0.75892247  0.11855627  1
  O  O317  1  0.26238424  0.75031708  0.62006336  1
  O  O318  1  0.75567633  0.25637187  0.12017912  1
  O  O319  1  0.75610605  0.25512338  0.61989184  1
  O  O320  1  0.75506164  0.75682525  0.11927753  1
  O  O321  1  0.76508285  0.74523496  0.62257807  1
  O  O322  1  0.25793808  0.24994799  0.38933149  1
  O  O323  1  0.24382417  0.24875790  0.88207825  1
  O  O324  1  0.24413426  0.74229505  0.37535899  1
  O  O325  1  0.25038913  0.73674680  0.88253173  1
  O  O326  1  0.75034353  0.23915129  0.38156773  1
  O  O327  1  0.74647582  0.24455663  0.88134057  1
  O  O328  1  0.74255984  0.74272299  0.37684519  1
  O  O329  1  0.74948129  0.74276707  0.88519330  1
  O  O330  1  0.00582987  0.11747909  0.00218948  1
  O  O331  1  0.00686134  0.11928464  0.50527777  1
  O  O332  1  0.00560651  0.62215407  0.00301712  1
  O  O333  1  0.00611045  0.61613171  0.50065524  1
  O  O334  1  0.50617464  0.11934961  0.00533750  1
  O  O335  1  0.50556536  0.12004037  0.50411448  1
  O  O336  1  0.49361449  0.61491560  0.00843511  1
  O  O337  1  0.50530724  0.62057808  0.50465112  1
  O  O338  1  0.49871530  0.37996013  0.49028903  1
  O  O339  1  0.49593340  0.38394086  0.99516780  1
  O  O340  1  0.49501843  0.88190045  0.49340857  1
  O  O341  1  0.50010074  0.89194618  1.00223788  1
  O  O342  1  0.99439635  0.37918775  0.49865176  1
  O  O343  1  0.99544861  0.37916961  0.99624480  1
  O  O344  1  0.99030785  0.87971475  0.49420591  1
  O  O345  1  0.99682821  0.87762621  0.99401010  1
  O  O346  1  0.49475058  0.49521038  0.37813380  1
  O  O347  1  0.50122339  0.49619974  0.88422922  1
  O  O348  1  0.49409462  0.99549400  0.38023907  1
  O  O349  1  0.50500499  1.00382510  0.89105872  1
  O  O350  1  0.99249042  0.49697775  0.38170037  1
  O  O351  1  0.99442891  0.49288846  0.88240133  1
  O  O352  1  0.99354800  0.99387778  0.38132979  1
  O  O353  1  0.99826412  0.98789465  0.88227279  1
  O  O354  1  0.00763067  -0.00038370  0.11812040  1
  O  O355  1  0.00804368  0.00393593  0.62008719  1
  O  O356  1  -0.00110232  0.50815770  0.11796908  1
  O  O357  1  0.00669257  0.50013534  0.61855596  1
  O  O358  1  0.50365152  0.00882215  0.11656812  1
  O  O359  1  0.50857547  0.00576131  0.61927928  1
  O  O360  1  0.50693245  0.50687225  0.11903725  1
  O  O361  1  0.49858071  0.50638371  0.61717766  1
  O  O362  1  0.24303782  0.37447586  0.24354373  1
  O  O363  1  0.24505504  0.37962928  0.74505069  1
  O  O364  1  0.24843737  0.88440603  0.24097731  1
  O  O365  1  0.24065881  0.88161900  0.74686427  1
  O  O366  1  0.75081721  0.38152659  0.24388840  1
  O  O367  1  0.75077004  0.37390011  0.73910770  1
  O  O368  1  0.74117282  0.86817970  0.24084113  1
  O  O369  1  0.74187944  0.88703118  0.75625709  1
  O  O370  1  0.25075164  0.11502913  0.25033862  1
  O  O371  1  0.25813091  0.11628981  0.74930078  1
  O  O372  1  0.25009573  0.62445756  0.26165678  1
  O  O373  1  0.25174385  0.62017880  0.75665511  1
  O  O374  1  0.76095682  0.13324832  0.26028578  1
  O  O375  1  0.75468100  0.11555668  0.75492718  1
  O  O376  1  0.75536951  0.62024917  0.25510671  1
  O  O377  1  0.76144471  0.62411328  0.75970715  1
  O  O378  1  0.37131886  0.11630678  0.37132879  1
  O  O379  1  0.37461086  0.13071188  0.85933563  1
  O  O380  1  0.36765148  0.61963583  0.37438373  1
  O  O381  1  0.36324931  0.62280622  0.86792857  1
  O  O382  1  0.86856897  0.11965969  0.36963159  1
  O  O383  1  0.86931482  0.12162561  0.86840424  1
  O  O384  1  0.86937623  0.61900395  0.37007229  1
  O  O385  1  0.86724936  0.62003669  0.86905364  1
  O  O386  1  0.13243553  0.37710083  0.13349911  1
  O  O387  1  0.13066711  0.37946925  0.63075913  1
  O  O388  1  0.13604910  0.88153579  0.12638322  1
  O  O389  1  0.12109575  0.88524739  0.63096758  1
  O  O390  1  0.63203925  0.38729907  0.12627332  1
  O  O391  1  0.63756931  0.37389151  0.62459580  1
  O  O392  1  0.63397661  0.87589994  0.13470048  1
  O  O393  1  0.61911693  0.88723672  0.63255696  1
  O  O394  1  0.11513285  0.25807588  0.24343322  1
  O  O395  1  0.12499047  0.25540625  0.75543435  1
  O  O396  1  0.11667142  0.75206074  0.25714088  1
  O  O397  1  0.12372944  0.76388520  0.73919858  1
  O  O398  1  0.61347125  0.25438546  0.25232783  1
  O  O399  1  0.61826593  0.24932901  0.75632687  1
  O  O400  1  0.61847298  0.76011408  0.25577756  1
  O  O401  1  0.62618721  0.76283281  0.74874642  1
  O  O402  1  0.38654511  0.25170153  0.24388486  1
  O  O403  1  0.38010413  0.24123954  0.74324716  1
  O  O404  1  0.38419873  0.75123746  0.24508931  1
  O  O405  1  0.37332844  0.74304923  0.73840105  1
  O  O406  1  0.88253035  0.24118791  0.24583072  1
  O  O407  1  0.87763435  0.24034185  0.74334748  1
  O  O408  1  0.87973297  0.74381148  0.24592935  1
  O  O409  1  0.87482278  0.74208808  0.74418003  1
  O  O410  1  0.38125750  0.49918466  0.48782550  1
  O  O411  1  0.38716173  0.49404029  0.99824406  1
  O  O412  1  0.38022881  0.99622049  0.49665980  1
  O  O413  1  0.39013910  1.00554511  1.00395131  1
  O  O414  1  0.88004538  0.49460061  0.49549525  1
  O  O415  1  0.88081462  0.49358887  0.99546924  1
  O  O416  1  0.88040531  0.99250659  0.49626742  1
  O  O417  1  0.88226314  0.99215973  0.99969209  1
  O  O418  1  0.12057058  0.00545861  0.00453465  1
  O  O419  1  0.12079003  0.00529886  0.50891552  1
  O  O420  1  0.11856989  0.51052541  0.00217292  1
  O  O421  1  0.12002464  0.50377568  0.50455387  1
  O  O422  1  0.61615332  0.00765950  0.00362687  1
  O  O423  1  0.62035712  0.00359821  0.50714582  1
  O  O424  1  0.61478971  0.49637924  0.01059367  1
  O  O425  1  0.61797259  0.50793829  0.50219612  1
  O  O426  1  0.37110434  0.37104787  0.11893187  1
  O  O427  1  0.36809711  0.36799940  0.62282266  1
  O  O428  1  0.36031681  0.87702314  0.11643387  1
  O  O429  1  0.37596331  0.86580802  0.61993141  1
  O  O430  1  0.87011023  0.37045362  0.11979091  1
  O  O431  1  0.86811964  0.36850806  0.62004126  1
  O  O432  1  0.86774066  0.86969151  0.12217710  1
  O  O433  1  0.88161708  0.86628648  0.61498518  1
  O  O434  1  0.12649960  0.11643360  0.39016418  1
  O  O435  1  0.12656156  0.13099341  0.88153188  1
  O  O436  1  0.13179119  0.62877938  0.37914550  1
  O  O437  1  0.13312559  0.61968757  0.88497749  1
  O  O438  1  0.63428823  0.12490848  0.38020921  1
  O  O439  1  0.63217689  0.13191262  0.88077414  1
  O  O440  1  0.62865562  0.63080235  0.37990480  1
  O  O441  1  0.64107986  0.62597343  0.86769297  1
