# generated using pymatgen
data_V93Zn93O256
_symmetry_space_group_name_H-M   'P 1'
_cell_length_a   17.04997685
_cell_length_b   17.05217371
_cell_length_c   17.05295329
_cell_angle_alpha   89.97667696
_cell_angle_beta   90.03806850
_cell_angle_gamma   89.98428645
_symmetry_Int_Tables_number   1
_chemical_formula_structural   V93Zn93O256
_chemical_formula_sum   'V93 Zn93 O256'
_cell_volume   4957.95974219
_cell_formula_units_Z   1
loop_
 _symmetry_equiv_pos_site_id
 _symmetry_equiv_pos_as_xyz
  1  'x, y, z'
loop_
 _atom_site_type_symbol
 _atom_site_label
 _atom_site_symmetry_multiplicity
 _atom_site_fract_x
 _atom_site_fract_y
 _atom_site_fract_z
 _atom_site_occupancy
  V  V0  1  0.75545121  0.37007044  0.12586973  1
  V  V1  1  -0.00006812  0.00110740  0.00075477  1
  V  V2  1  0.87463619  0.75008302  0.62458024  1
  V  V3  1  0.49845249  0.49483367  -0.01620701  1
  V  V4  1  0.49548111  -0.00377396  0.49779476  1
  V  V5  1  0.87535343  0.87492503  0.00001967  1
  V  V6  1  0.62257675  0.49903599  0.12525231  1
  V  V7  1  0.00014597  0.62573106  0.12423442  1
  V  V8  1  0.37376554  0.62302093  0.24794201  1
  V  V9  1  0.00204616  0.00094608  0.50486309  1
  V  V10  1  0.49987939  0.12443760  0.62465612  1
  V  V11  1  0.37064273  0.61208337  0.75258952  1
  V  V12  1  0.62545773  0.25023581  0.37576939  1
  V  V13  1  -0.00617100  0.13022366  0.12572443  1
  V  V14  1  -0.00508861  0.25097405  0.24757769  1
  V  V15  1  0.13073273  0.63154752  0.50185158  1
  V  V16  1  0.25292335  0.61086818  0.87145488  1
  V  V17  1  0.62499644  0.37508713  0.25045772  1
  V  V18  1  0.50137772  0.25209144  0.75676729  1
  V  V19  1  0.75109443  0.12375310  0.37410350  1
  V  V20  1  0.49873061  0.87416374  0.87349692  1
  V  V21  1  0.75365146  0.37303327  0.62519649  1
  V  V22  1  0.37521120  0.25047377  0.62485281  1
  V  V23  1  0.74862399  0.74835758  -0.00043589  1
  V  V24  1  0.25100025  0.37703108  0.12587039  1
  V  V25  1  0.37573375  0.37532421  0.50062019  1
  V  V26  1  0.12502479  0.12493237  0.00042861  1
  V  V27  1  0.50000980  0.37481415  0.37600547  1
  V  V28  1  0.37387051  0.87312318  -0.00193250  1
  V  V29  1  0.75024016  0.62455792  0.87508772  1
  V  V30  1  0.62616253  0.50053033  0.62405297  1
  V  V31  1  0.24507830  0.00011495  0.74360701  1
  V  V32  1  0.50131913  0.49914755  0.49980206  1
  V  V33  1  0.62371788  -0.00012977  0.12394072  1
  V  V34  1  0.24891384  0.87279289  0.61940275  1
  V  V35  1  0.87582128  0.87648843  0.49813807  1
  V  V36  1  0.25112457  0.62723762  0.37720528  1
  V  V37  1  -0.00252939  0.37625957  0.87631046  1
  V  V38  1  0.62344732  0.87368891  0.24947324  1
  V  V39  1  0.62319857  0.37372715  0.75686524  1
  V  V40  1  0.87446994  0.74941024  0.12524743  1
  V  V41  1  0.37424509  -0.00120238  0.87318805  1
  V  V42  1  0.87416507  -0.00157367  0.87559002  1
  V  V43  1  0.00237202  0.37581459  0.37549204  1
  V  V44  1  0.37577502  0.25118402  0.12428146  1
  V  V45  1  0.87527163  0.50131545  0.37680089  1
  V  V46  1  -0.00146915  0.25010422  0.74759187  1
  V  V47  1  0.62483746  0.74957674  0.37465174  1
  V  V48  1  0.12530745  0.24911657  0.87568871  1
  V  V49  1  0.49942024  0.74843918  0.24761364  1
  V  V50  1  0.75585142  0.24980605  0.00308845  1
  V  V51  1  0.50054506  0.24948301  0.24981226  1
  V  V52  1  0.12614474  0.62576110  -0.00001084  1
  V  V53  1  0.62466745  0.62503349  0.50027952  1
  V  V54  1  0.75030648  0.00078485  0.25042432  1
  V  V55  1  0.49919446  0.12389237  0.12491386  1
  V  V56  1  0.24861532  0.12418320  0.87550852  1
  V  V57  1  0.37350614  0.12499017  0.25048137  1
  V  V58  1  0.87502942  0.12536455  0.74917744  1
  V  V59  1  0.24894882  0.87525031  0.12340559  1
  V  V60  1  0.25051424  0.74937674  -0.00303201  1
  V  V61  1  0.12384982  0.87816735  0.74551573  1
  V  V62  1  0.13232233  0.50175174  0.62947730  1
  V  V63  1  0.00152261  0.50116801  0.50040487  1
  V  V64  1  0.62324773  0.87379471  0.74933605  1
  V  V65  1  0.74954182  0.87486197  0.62451765  1
  V  V66  1  0.25045535  0.25188647  0.50162656  1
  V  V67  1  0.12424144  0.25212381  0.37537774  1
  V  V68  1  0.62433774  0.62284993  -0.00068591  1
  V  V69  1  0.12630626  0.75190333  0.37750426  1
  V  V70  1  0.00140679  0.62608622  0.62598547  1
  V  V71  1  0.37456729  0.12469805  0.74966922  1
  V  V72  1  0.00002891  0.75117001  0.75067373  1
  V  V73  1  0.74966492  0.87524207  0.12464397  1
  V  V74  1  0.62520088  0.12452026  0.49994200  1
  V  V75  1  0.49666471  0.74838656  0.74889212  1
  V  V76  1  0.13077039  0.38013622  0.75024051  1
  V  V77  1  0.74573174  0.12623607  0.87624744  1
  V  V78  1  0.12461107  0.87624332  0.24959175  1
  V  V79  1  0.12410102  0.12284225  0.50812570  1
  V  V80  1  0.75105699  0.24966466  0.50072335  1
  V  V81  1  0.12579059  0.75028311  0.87370725  1
  V  V82  1  0.75148071  0.49969068  0.75113703  1
  V  V83  1  0.37047419  0.74967748  0.61835372  1
  V  V84  1  0.87512084  0.62609988  0.25114164  1
  V  V85  1  0.49999842  -0.00056477  -0.00053480  1
  V  V86  1  0.00025971  0.50007947  0.00160849  1
  V  V87  1  0.74957934  -0.00052992  0.74962553  1
  V  V88  1  0.62449796  -0.00057996  0.62397679  1
  V  V89  1  0.74898232  0.74980530  0.49940349  1
  V  V90  1  0.25043758  0.12426921  0.37400685  1
  V  V91  1  0.38044536  0.37731950  -0.01174181  1
  V  V92  1  0.87489798  0.62489505  0.75064339  1
  Zn  Zn93  1  0.25070196  0.00040934  0.24890072  1
  Zn  Zn94  1  -0.00106984  0.87770273  0.37364327  1
  Zn  Zn95  1  0.12643311  0.37795637  0.24990501  1
  Zn  Zn96  1  0.49650488  0.62328759  0.62519248  1
  Zn  Zn97  1  0.25243383  0.25050070  0.00005433  1
  Zn  Zn98  1  0.87927073  0.37146241  0.00845706  1
  Zn  Zn99  1  0.12716376  0.50170504  0.12891950  1
  Zn  Zn100  1  0.62350179  0.74876747  0.87498175  1
  Zn  Zn101  1  0.87295183  0.12668294  0.24839059  1
  Zn  Zn102  1  0.37535478  0.74811936  0.12227892  1
  Zn  Zn103  1  0.12404123  0.00301262  0.12719756  1
  Zn  Zn104  1  0.37419550  0.49930477  0.37558595  1
  Zn  Zn105  1  0.25371631  0.37965705  0.62879923  1
  Zn  Zn106  1  0.49669564  0.62261344  0.12082974  1
  Zn  Zn107  1  0.24817169  0.49974780  0.25083931  1
  Zn  Zn108  1  0.87761864  0.37341161  0.50070754  1
  Zn  Zn109  1  0.74958192  0.62436267  0.37494645  1
  Zn  Zn110  1  0.87734225  0.00064771  0.37285765  1
  Zn  Zn111  1  -0.00070323  0.75279231  0.24996386  1
  Zn  Zn112  1  0.62355761  0.12765246  0.00111309  1
  Zn  Zn113  1  0.36734775  0.86956496  0.49470506  1
  Zn  Zn114  1  0.87480921  0.50031175  0.87661810  1
  Zn  Zn115  1  0.49460335  0.87413817  0.37422468  1
  Zn  Zn116  1  0.74997687  0.49878996  0.25058285  1
  Zn  Zn117  1  0.62129514  0.25416205  0.87989279  1
  Zn  Zn118  1  0.87716870  0.24763601  0.62159038  1
  Zn  Zn119  1  0.00200851  0.12194317  0.62751952  1
  Zn  Zn120  1  0.37380984  -0.00457199  0.37251214  1
  Zn  Zn121  1  0.00037133  0.87596889  0.87527914  1
  Zn  Zn122  1  0.18396396  0.19186140  0.18710015  1
  Zn  Zn123  1  0.18810799  0.19165976  0.68863253  1
  Zn  Zn124  1  0.18750017  0.68968173  0.18780268  1
  Zn  Zn125  1  0.19052602  0.68941392  0.69042231  1
  Zn  Zn126  1  0.68652539  0.18709695  0.18683284  1
  Zn  Zn127  1  0.68684499  0.18773864  0.68755373  1
  Zn  Zn128  1  0.68807583  0.68534795  0.18666570  1
  Zn  Zn129  1  0.68635599  0.68685404  0.68680383  1
  Zn  Zn130  1  0.31309013  0.31184733  0.31261929  1
  Zn  Zn131  1  0.31188978  0.31018348  0.81209062  1
  Zn  Zn132  1  0.31159287  0.81023427  0.31232456  1
  Zn  Zn133  1  0.31099088  0.80805499  0.80964811  1
  Zn  Zn134  1  0.81344926  0.31352104  0.31346999  1
  Zn  Zn135  1  0.81235111  0.31112308  0.81467794  1
  Zn  Zn136  1  0.81129436  0.81378443  0.31372385  1
  Zn  Zn137  1  0.81161131  0.81142543  0.81361402  1
  Zn  Zn138  1  0.18884298  0.44067132  0.43928897  1
  Zn  Zn139  1  0.18663577  0.43353014  0.94272154  1
  Zn  Zn140  1  0.18386427  0.94176422  0.43697437  1
  Zn  Zn141  1  0.18569923  0.93852014  0.93473605  1
  Zn  Zn142  1  0.68906042  0.43765690  0.43805777  1
  Zn  Zn143  1  0.68925947  0.43789497  0.94029964  1
  Zn  Zn144  1  0.68537834  0.93621458  0.43536213  1
  Zn  Zn145  1  0.68561649  0.93636556  0.93724243  1
  Zn  Zn146  1  0.31230012  0.06117153  0.06195869  1
  Zn  Zn147  1  0.31198636  0.06286204  0.56219925  1
  Zn  Zn148  1  0.31469577  0.55930398  0.05919226  1
  Zn  Zn149  1  0.31498628  0.56406329  0.56298833  1
  Zn  Zn150  1  0.81289511  0.06260157  0.06282236  1
  Zn  Zn151  1  0.81586789  0.06263644  0.56200541  1
  Zn  Zn152  1  0.81210936  0.55941530  0.06313278  1
  Zn  Zn153  1  0.81201907  0.56328625  0.56281911  1
  Zn  Zn154  1  0.43667529  0.43733239  0.18485358  1
  Zn  Zn155  1  0.44156589  0.43475606  0.68595809  1
  Zn  Zn156  1  0.43480643  0.93762441  0.18739199  1
  Zn  Zn157  1  0.43412561  0.93603921  0.68484297  1
  Zn  Zn158  1  0.93978856  0.43909249  0.19088808  1
  Zn  Zn159  1  0.94016736  0.43984748  0.68779916  1
  Zn  Zn160  1  0.93804686  0.94109450  0.18672339  1
  Zn  Zn161  1  0.93719294  0.93848636  0.68536998  1
  Zn  Zn162  1  0.06219867  0.06310467  0.31521924  1
  Zn  Zn163  1  0.06167467  0.06189136  0.81416085  1
  Zn  Zn164  1  0.06353362  0.56245745  0.31115082  1
  Zn  Zn165  1  0.06428073  0.56352670  0.81439290  1
  Zn  Zn166  1  0.56290906  0.06161731  0.31291818  1
  Zn  Zn167  1  0.56166406  0.06200517  0.81156110  1
  Zn  Zn168  1  0.56168810  0.56241774  0.31319473  1
  Zn  Zn169  1  0.56400435  0.56418344  0.80923189  1
  Zn  Zn170  1  0.43725729  0.18716303  0.43771740  1
  Zn  Zn171  1  0.43460954  0.18698133  0.93938054  1
  Zn  Zn172  1  0.44017987  0.68573455  0.43564529  1
  Zn  Zn173  1  0.43606223  0.68243467  0.93542183  1
  Zn  Zn174  1  0.93657985  0.18665194  0.43573541  1
  Zn  Zn175  1  0.93602745  0.18644702  0.93684549  1
  Zn  Zn176  1  0.94138885  0.68969047  0.43777420  1
  Zn  Zn177  1  0.93751514  0.68841984  0.93640920  1
  Zn  Zn178  1  0.06594272  0.31111306  0.06395170  1
  Zn  Zn179  1  0.06501534  0.31447893  0.56223965  1
  Zn  Zn180  1  0.06169478  0.81201951  0.06220578  1
  Zn  Zn181  1  0.06172818  0.81462043  0.56302924  1
  Zn  Zn182  1  0.56440746  0.31290028  0.06058446  1
  Zn  Zn183  1  0.56378186  0.31246183  0.56595791  1
  Zn  Zn184  1  0.56232184  0.81114982  0.06225814  1
  Zn  Zn185  1  0.56009161  0.81181409  0.56276109  1
  O  O186  1  0.11624025  0.12437410  0.11841772  1
  O  O187  1  0.12458603  0.13242160  0.61194278  1
  O  O188  1  0.11895691  0.62663394  0.11755167  1
  O  O189  1  0.12240867  0.62182665  0.62051755  1
  O  O190  1  0.61667679  0.11737310  0.12409475  1
  O  O191  1  0.62031128  0.11871998  0.61975350  1
  O  O192  1  0.62574344  0.61384560  0.11869333  1
  O  O193  1  0.62324625  0.61783833  0.61897888  1
  O  O194  1  0.38246163  0.37496503  0.38224584  1
  O  O195  1  0.36956752  0.36864191  0.88959003  1
  O  O196  1  0.37493711  0.87675152  0.37932500  1
  O  O197  1  0.37871482  0.87947392  0.87763208  1
  O  O198  1  0.88162963  0.38713222  0.37622544  1
  O  O199  1  0.88917887  0.37653368  0.87536809  1
  O  O200  1  0.87754099  0.87639855  0.38335361  1
  O  O201  1  0.87520351  0.88075623  0.88164332  1
  O  O202  1  0.25093613  0.01475478  0.37484208  1
  O  O203  1  0.25522163  0.00400017  0.86421051  1
  O  O204  1  0.25193562  0.51423685  0.37344033  1
  O  O205  1  0.24171015  0.51253337  0.88025467  1
  O  O206  1  0.74701462  0.00660986  0.36783066  1
  O  O207  1  0.75379139  0.00683446  0.87011903  1
  O  O208  1  0.76247074  0.50194831  0.37414034  1
  O  O209  1  0.75316036  0.50567557  0.86933053  1
  O  O210  1  0.25025872  0.48941645  0.12594502  1
  O  O211  1  0.23558511  0.50017185  0.62061587  1
  O  O212  1  0.24604434  0.98715892  0.12439236  1
  O  O213  1  0.25667661  0.99267481  0.63855938  1
  O  O214  1  0.73802869  0.49074414  0.12420464  1
  O  O215  1  0.74637692  0.49175517  0.63036133  1
  O  O216  1  0.74390200  0.99459382  0.12927196  1
  O  O217  1  0.74430491  0.99470830  0.62986001  1
  O  O218  1  0.00257349  0.36762903  0.25607734  1
  O  O219  1  0.00747401  0.36925044  0.75791899  1
  O  O220  1  0.01184372  0.87478804  0.25039687  1
  O  O221  1  0.00808729  0.87121603  0.74939863  1
  O  O222  1  0.50489191  0.36890983  0.25543533  1
  O  O223  1  0.51169007  0.36326875  0.74258477  1
  O  O224  1  0.50420264  0.86449721  0.24845663  1
  O  O225  1  0.50256227  0.86784343  0.75331077  1
  O  O226  1  0.49467012  0.13012170  0.24517891  1
  O  O227  1  0.49486952  0.13048379  0.74353334  1
  O  O228  1  0.49164817  0.63256331  0.24915554  1
  O  O229  1  0.49183630  0.63407384  0.74951607  1
  O  O230  1  1.00124239  0.13276304  0.24272471  1
  O  O231  1  0.99616355  0.13461073  0.75077418  1
  O  O232  1  0.98923490  0.62664963  0.24419436  1
  O  O233  1  0.99575795  0.63122514  0.74534498  1
  O  O234  1  0.37584515  0.25831395  0.00752976  1
  O  O235  1  0.37120972  0.25486680  0.50607560  1
  O  O236  1  0.36941319  0.75600040  -0.00022990  1
  O  O237  1  0.38318292  0.74922744  0.51474183  1
  O  O238  1  0.86118618  0.25277360  -0.00520677  1
  O  O239  1  0.86748223  0.25338434  0.50202450  1
  O  O240  1  0.86881424  0.75441513  0.00554615  1
  O  O241  1  0.87047834  0.75470078  0.50591552  1
  O  O242  1  0.12986583  0.24337571  0.49478045  1
  O  O243  1  0.12720409  0.24306207  0.99180899  1
  O  O244  1  0.11987867  0.73999072  0.49305748  1
  O  O245  1  0.12986701  0.74513331  0.99341023  1
  O  O246  1  0.62989086  0.24424965  0.49576870  1
  O  O247  1  0.63632884  0.24776363  0.99605578  1
  O  O248  1  0.62858979  0.74547858  0.49559951  1
  O  O249  1  0.63058694  0.74203342  0.99903416  1
  O  O250  1  0.49669245  0.24399127  0.13088102  1
  O  O251  1  0.49551162  0.24324288  0.63345894  1
  O  O252  1  0.49893930  0.74587288  0.13574804  1
  O  O253  1  0.49127877  0.74972776  0.63538755  1
  O  O254  1  1.00643771  0.24253889  0.13521295  1
  O  O255  1  0.99971469  0.25212917  0.63854320  1
  O  O256  1  0.99174764  0.74316092  0.12531005  1
  O  O257  1  0.99422352  0.74511158  0.63070591  1
  O  O258  1  0.00568746  0.25591379  0.36947450  1
  O  O259  1  0.00438135  0.25706732  0.86728358  1
  O  O260  1  0.01386292  0.75301113  0.37220097  1
  O  O261  1  0.00676297  0.75233027  0.86819991  1
  O  O262  1  0.50640661  0.25448554  0.37030558  1
  O  O263  1  0.50209671  0.24009534  0.86002956  1
  O  O264  1  0.50581269  0.75039581  0.36310579  1
  O  O265  1  0.49884150  0.75533302  0.86385132  1
  O  O266  1  0.24397007  0.13043196  0.49394976  1
  O  O267  1  0.24441905  0.12497317  0.99282090  1
  O  O268  1  0.23934014  0.62170010  0.49197534  1
  O  O269  1  0.24646831  0.62996943  0.99259207  1
  O  O270  1  0.74362123  0.12933717  0.49577924  1
  O  O271  1  0.74939062  0.13117081  0.99258858  1
  O  O272  1  0.74348894  0.63247621  0.49982012  1
  O  O273  1  0.74528760  0.62840150  0.99546855  1
  O  O274  1  0.25979178  0.37336589  0.00893189  1
  O  O275  1  0.25690931  0.36908342  0.50164213  1
  O  O276  1  0.25321776  0.87048224  0.00436438  1
  O  O277  1  0.24713392  0.88593506  0.51607364  1
  O  O278  1  0.75219844  0.36738305  0.00789091  1
  O  O279  1  0.75037155  0.36955506  0.51068840  1
  O  O280  1  0.75462708  0.86938520  0.00534609  1
  O  O281  1  0.75381837  0.86999836  0.50587206  1
  O  O282  1  0.12870266  0.49685567  0.24629186  1
  O  O283  1  0.11629984  0.49139472  0.74056322  1
  O  O284  1  0.12884330  0.98838860  0.25077396  1
  O  O285  1  0.13416074  0.99134127  0.75564512  1
  O  O286  1  0.62632894  0.49460897  0.24222965  1
  O  O287  1  0.63082022  0.49235665  0.74417264  1
  O  O288  1  0.62872514  0.99358925  0.24322014  1
  O  O289  1  0.62942800  0.99408269  0.74346086  1
  O  O290  1  0.37109371  0.00898988  0.25203268  1
  O  O291  1  0.36721773  0.00504492  0.75436968  1
  O  O292  1  0.37606028  0.51226233  0.25314368  1
  O  O293  1  0.38188077  0.51368318  0.74186747  1
  O  O294  1  0.86528210  0.00211575  0.25171482  1
  O  O295  1  0.86856015  0.00431504  0.75488398  1
  O  O296  1  0.87549448  0.50943593  0.26012752  1
  O  O297  1  0.87000104  0.50731667  0.75127613  1
  O  O298  1  0.11983836  0.36970699  0.37690950  1
  O  O299  1  0.11568429  0.37143732  0.86970022  1
  O  O300  1  0.12908143  0.86691019  0.36737327  1
  O  O301  1  0.12456265  0.86928971  0.86246580  1
  O  O302  1  0.62063920  0.36954910  0.37060524  1
  O  O303  1  0.63374384  0.37372688  0.85968279  1
  O  O304  1  0.62141449  0.86718962  0.36653377  1
  O  O305  1  0.61734004  0.87278042  0.86709133  1
  O  O306  1  0.37944194  0.13015796  0.12980756  1
  O  O307  1  0.37989063  0.13064339  0.63099245  1
  O  O308  1  0.37497202  0.62708305  0.13519099  1
  O  O309  1  0.37369747  0.63400781  0.63358312  1
  O  O310  1  0.88957896  0.12282114  0.12594732  1
  O  O311  1  0.87770194  0.12850034  0.63448647  1
  O  O312  1  0.87871401  0.62878026  0.13257863  1
  O  O313  1  0.88097175  0.63057218  0.63050384  1
  O  O314  1  0.25721705  0.25848262  0.12359870  1
  O  O315  1  0.25783412  0.25272123  0.61962743  1
  O  O316  1  0.25015472  0.76056648  0.11669670  1
  O  O317  1  0.25961260  0.76100173  0.63161301  1
  O  O318  1  0.74301988  0.25903993  0.11607983  1
  O  O319  1  0.75044827  0.25857529  0.62071483  1
  O  O320  1  0.75474239  0.75523098  0.11919053  1
  O  O321  1  0.75493074  0.75554005  0.62005369  1
  O  O322  1  0.24548826  0.24239535  0.38143098  1
  O  O323  1  0.24265125  0.24101682  0.87508710  1
  O  O324  1  0.23804803  0.73858958  0.37135778  1
  O  O325  1  0.24342883  0.74430223  0.87998191  1
  O  O326  1  0.74378530  0.24563450  0.38065001  1
  O  O327  1  0.74796289  0.24023442  0.88131088  1
  O  O328  1  0.74285489  0.74836578  0.38214127  1
  O  O329  1  0.74743473  0.74322792  0.88166546  1
  O  O330  1  0.00404553  0.12256013  0.00642356  1
  O  O331  1  0.00802386  0.12048556  0.50121851  1
  O  O332  1  0.00501852  0.61821350  0.00326087  1
  O  O333  1  0.01038134  0.62152489  0.50643725  1
  O  O334  1  0.49986649  0.11724357  0.00606276  1
  O  O335  1  0.50537214  0.11790759  0.50508503  1
  O  O336  1  0.50505315  0.61467311  0.00091307  1
  O  O337  1  0.50713670  0.61758115  0.50188607  1
  O  O338  1  0.49651013  0.37828510  0.49582925  1
  O  O339  1  0.49258432  0.38249813  1.00501497  1
  O  O340  1  0.49809706  0.88637498  0.49948156  1
  O  O341  1  0.49415015  0.87890933  0.99384771  1
  O  O342  1  0.99917332  0.38293005  0.49474481  1
  O  O343  1  1.00115006  0.38076591  0.99351091  1
  O  O344  1  0.99577093  0.88385750  0.49972902  1
  O  O345  1  0.99325978  0.88175505  0.99912403  1
  O  O346  1  0.49954697  0.49201153  0.38207480  1
  O  O347  1  0.50763220  0.49965470  0.88539550  1
  O  O348  1  0.49849084  0.99892605  0.38542614  1
  O  O349  1  0.49374614  0.99432017  0.87832368  1
  O  O350  1  0.99358372  0.49699541  0.38046649  1
  O  O351  1  1.00136919  0.49209532  0.88358602  1
  O  O352  1  0.99820609  0.99866658  0.38762572  1
  O  O353  1  0.99127346  0.99959956  0.88181442  1
  O  O354  1  0.00331824  0.01045947  0.11861657  1
  O  O355  1  -0.00369561  0.00308424  0.61094948  1
  O  O356  1  0.00073870  0.50585515  0.11612652  1
  O  O357  1  0.00942614  0.50718294  0.62036570  1
  O  O358  1  0.50358154  0.00383235  0.11911807  1
  O  O359  1  0.50432022  0.00457755  0.61831643  1
  O  O360  1  0.51351205  0.49949662  0.12047586  1
  O  O361  1  0.50948719  0.50006941  0.61734319  1
  O  O362  1  0.25137046  0.37638826  0.23995256  1
  O  O363  1  0.23416322  0.36978251  0.75029196  1
  O  O364  1  0.24229523  0.87348895  0.23990052  1
  O  O365  1  0.24314677  0.88216072  0.74348766  1
  O  O366  1  0.74316840  0.37469196  0.24311986  1
  O  O367  1  0.74469641  0.37812974  0.74286621  1
  O  O368  1  0.74326475  0.87933249  0.24318758  1
  O  O369  1  0.74423207  0.87952558  0.74443530  1
  O  O370  1  0.25333574  0.12766483  0.25925486  1
  O  O371  1  0.25332777  0.11806156  0.75380915  1
  O  O372  1  0.25838620  0.62645286  0.25764288  1
  O  O373  1  0.25841381  0.62979033  0.75995996  1
  O  O374  1  0.74962450  0.11964038  0.25513539  1
  O  O375  1  0.75349440  0.11982794  0.75752996  1
  O  O376  1  0.76321018  0.62225605  0.25145818  1
  O  O377  1  0.75455345  0.61974806  0.75415935  1
  O  O378  1  0.36443521  0.12757357  0.36965874  1
  O  O379  1  0.36891754  0.11866555  0.86871274  1
  O  O380  1  0.36604717  0.62669099  0.36780061  1
  O  O381  1  0.36398276  0.62911042  0.86459993  1
  O  O382  1  0.86466749  0.12234192  0.37212602  1
  O  O383  1  0.86431295  0.11894181  0.86977758  1
  O  O384  1  0.87728461  0.61837165  0.36821983  1
  O  O385  1  0.86882504  0.62444723  0.86785261  1
  O  O386  1  0.13929170  0.37594060  0.12445489  1
  O  O387  1  0.12563230  0.38475902  0.63340109  1
  O  O388  1  0.13253092  0.87423428  0.13261194  1
  O  O389  1  0.13351385  0.86729867  0.63814769  1
  O  O390  1  0.63267591  0.38150269  0.13099481  1
  O  O391  1  0.63601839  0.37926810  0.63356897  1
  O  O392  1  0.63025400  0.87975329  0.12952376  1
  O  O393  1  0.63014332  0.87980913  0.63004106  1
  O  O394  1  0.11458654  0.25330736  0.25885201  1
  O  O395  1  0.11605559  0.25825841  0.75516316  1
  O  O396  1  0.12336529  0.75890717  0.25829729  1
  O  O397  1  0.11932981  0.75813042  0.75448625  1
  O  O398  1  0.61929832  0.25510173  0.25620858  1
  O  O399  1  0.61762234  0.25661776  0.75033595  1
  O  O400  1  0.61796373  0.75262543  0.25297935  1
  O  O401  1  0.61330156  0.75460468  0.74881945  1
  O  O402  1  0.38233402  0.24450907  0.24457848  1
  O  O403  1  0.38247547  0.24515699  0.74532086  1
  O  O404  1  0.38310683  0.74078066  0.24837916  1
  O  O405  1  0.38291717  0.74485688  0.74110061  1
  O  O406  1  0.89053558  0.24835090  0.25705915  1
  O  O407  1  0.88524350  0.24502995  0.75146377  1
  O  O408  1  0.87548711  0.74208954  0.24488336  1
  O  O409  1  0.87962858  0.74541521  0.74390876  1
  O  O410  1  0.38267168  0.49383677  0.49979554  1
  O  O411  1  0.38845720  0.48995912  1.00556145  1
  O  O412  1  0.38629481  1.00055117  0.49923917  1
  O  O413  1  0.38001162  0.99316546  0.99281915  1
  O  O414  1  0.88220598  0.50218372  0.49159738  1
  O  O415  1  0.88869526  0.49778753  0.99809261  1
  O  O416  1  0.88243949  0.99384941  0.49769129  1
  O  O417  1  0.87929998  0.99415443  0.99522960  1
  O  O418  1  0.11743624  0.00689252  -0.00128534  1
  O  O419  1  0.11561799  0.01303502  0.49534985  1
  O  O420  1  0.11331567  0.50613057  0.00239172  1
  O  O421  1  0.12010082  0.51076054  0.50842011  1
  O  O422  1  0.61745735  0.00039957  0.00619723  1
  O  O423  1  0.61660740  0.00473442  0.50514583  1
  O  O424  1  0.61819671  0.50194752  0.00697438  1
  O  O425  1  0.62159351  0.50463217  0.50463209  1
  O  O426  1  0.36840786  0.36918915  0.11954181  1
  O  O427  1  0.37354584  0.36852754  0.61962343  1
  O  O428  1  0.36449192  0.87335727  0.11774793  1
  O  O429  1  0.36565044  0.86682066  0.62325766  1
  O  O430  1  0.85943046  0.38339111  0.12775067  1
  O  O431  1  0.86382979  0.37481276  0.62572313  1
  O  O432  1  0.86906811  0.86967964  0.11990588  1
  O  O433  1  0.86840841  0.86914880  0.61954280  1
  O  O434  1  0.13364263  0.13228538  0.38320121  1
  O  O435  1  0.12931131  0.12979696  0.87982960  1
  O  O436  1  0.13042610  0.63193088  0.38247866  1
  O  O437  1  0.13228628  0.63139910  0.87947271  1
  O  O438  1  0.63017554  0.13143561  0.38050413  1
  O  O439  1  0.63729563  0.12355192  0.87556920  1
  O  O440  1  0.62715974  0.63113998  0.38116528  1
  O  O441  1  0.63272001  0.62631893  0.88094388  1
