# generated using pymatgen
data_V93Zn93O256
_symmetry_space_group_name_H-M   'P 1'
_cell_length_a   17.05711503
_cell_length_b   17.05727926
_cell_length_c   17.05388495
_cell_angle_alpha   90.01384808
_cell_angle_beta   89.99048196
_cell_angle_gamma   89.97405575
_symmetry_Int_Tables_number   1
_chemical_formula_structural   V93Zn93O256
_chemical_formula_sum   'V93 Zn93 O256'
_cell_volume   4961.79256155
_cell_formula_units_Z   1
loop_
 _symmetry_equiv_pos_site_id
 _symmetry_equiv_pos_as_xyz
  1  'x, y, z'
loop_
 _atom_site_type_symbol
 _atom_site_label
 _atom_site_symmetry_multiplicity
 _atom_site_fract_x
 _atom_site_fract_y
 _atom_site_fract_z
 _atom_site_occupancy
  V  V0  1  0.87478038  0.75077249  0.62581321  1
  V  V1  1  0.62557821  0.62182500  0.50403891  1
  V  V2  1  0.00007469  0.00012521  -0.00412645  1
  V  V3  1  0.74915964  0.62562748  0.87367365  1
  V  V4  1  0.24969845  0.62504195  0.37486433  1
  V  V5  1  0.00128428  0.12424107  0.12534577  1
  V  V6  1  0.88024394  0.24197612  0.62297325  1
  V  V7  1  0.62477142  0.74915991  0.37483792  1
  V  V8  1  0.12311057  0.75102539  0.87534832  1
  V  V9  1  0.37572585  0.24976734  0.62532323  1
  V  V10  1  0.74794717  0.87937388  0.12389726  1
  V  V11  1  0.50032426  0.74945571  0.25003596  1
  V  V12  1  0.37417170  0.62474265  0.75069487  1
  V  V13  1  0.49881151  -0.00038469  0.49985573  1
  V  V14  1  0.37629177  0.25013718  0.12535590  1
  V  V15  1  0.62441477  -0.00052206  0.62522685  1
  V  V16  1  0.50136687  0.62335710  0.62493989  1
  V  V17  1  0.50193881  0.37420781  0.37544326  1
  V  V18  1  0.37525662  0.12470711  0.74988179  1
  V  V19  1  0.74841767  0.49988250  0.74877078  1
  V  V20  1  0.49812030  0.87396248  0.87612742  1
  V  V21  1  0.62431349  0.87872418  0.24671588  1
  V  V22  1  0.50388815  0.49906609  0.50464927  1
  V  V23  1  0.62493710  0.37756425  0.74928862  1
  V  V24  1  0.63487162  0.12772758  -0.00400398  1
  V  V25  1  0.25101726  0.00012288  0.25085180  1
  V  V26  1  0.62671356  0.49779318  0.12495227  1
  V  V27  1  0.50486247  0.00020470  0.00314796  1
  V  V28  1  -0.00052966  0.87491398  0.37397402  1
  V  V29  1  -0.00352207  0.49299114  -0.00164865  1
  V  V30  1  0.87443783  0.49987004  0.37389411  1
  V  V31  1  -0.00151518  0.75073132  0.74959506  1
  V  V32  1  0.87505484  0.37547329  0.49926724  1
  V  V33  1  0.24995241  0.12640549  0.87592864  1
  V  V34  1  0.87459115  0.00025147  0.37492815  1
  V  V35  1  0.12633083  0.37458889  0.25160074  1
  V  V36  1  0.12553311  0.50021645  0.12521644  1
  V  V37  1  0.24976809  0.87424365  0.12654924  1
  V  V38  1  0.50067550  0.12494882  0.62577151  1
  V  V39  1  0.87409930  0.62573914  0.74941224  1
  V  V40  1  0.87119804  0.25599110  0.11171130  1
  V  V41  1  0.37478371  -0.00025448  0.37616714  1
  V  V42  1  0.62606040  0.25015682  0.37340459  1
  V  V43  1  0.50064470  0.62378525  0.12357445  1
  V  V44  1  0.87295901  0.62507015  0.24938545  1
  V  V45  1  0.12048981  0.00334425  0.62534689  1
  V  V46  1  0.87415631  0.49178925  0.87786385  1
  V  V47  1  0.24923937  0.49996436  0.74977776  1
  V  V48  1  0.00207332  0.24695912  0.74691250  1
  V  V49  1  0.37677976  0.37487796  0.50045830  1
  V  V50  1  0.63951011  0.24659767  0.87594563  1
  V  V51  1  0.12601770  0.25060325  0.37566694  1
  V  V52  1  0.37445105  0.87454798  0.00150640  1
  V  V53  1  -0.00042056  0.00257983  0.50111437  1
  V  V54  1  0.74828504  0.87651544  0.62620297  1
  V  V55  1  0.12407634  0.87597046  0.75052834  1
  V  V56  1  -0.00205604  0.62739769  0.12565839  1
  V  V57  1  0.75037788  0.12526878  0.37426614  1
  V  V58  1  0.75075945  0.75004653  0.00022209  1
  V  V59  1  0.12068434  0.12620015  0.50318635  1
  V  V60  1  0.62454885  0.74880390  0.87436684  1
  V  V61  1  0.12447191  0.49996812  0.62573073  1
  V  V62  1  0.62393750  0.87532457  0.74931815  1
  V  V63  1  0.12300588  0.75152728  0.37591303  1
  V  V64  1  0.37374830  0.75019926  0.62527413  1
  V  V65  1  0.49823715  0.74971483  0.75050454  1
  V  V66  1  0.25066555  0.24987860  0.00033130  1
  V  V67  1  0.25192652  0.37421937  0.12569220  1
  V  V68  1  0.37501398  0.87471049  0.50034980  1
  V  V69  1  0.75128893  0.25017089  0.49845597  1
  V  V70  1  0.50199748  0.25030207  0.24979505  1
  V  V71  1  0.37651726  0.49775641  0.87611227  1
  V  V72  1  0.74738148  0.37886080  0.62500663  1
  V  V73  1  0.12436266  0.62487986  0.50114547  1
  V  V74  1  0.37456385  0.62530232  0.25069830  1
  V  V75  1  0.50215519  0.24929845  0.75172105  1
  V  V76  1  0.12496186  0.00089978  0.12617178  1
  V  V77  1  0.74760009  -0.00014253  0.24834400  1
  V  V78  1  0.24997670  0.25012798  0.50026534  1
  V  V79  1  0.87171230  0.12070133  0.75670627  1
  V  V80  1  0.87542326  0.12690515  0.25059917  1
  V  V81  1  0.25065377  0.50082095  0.25095791  1
  V  V82  1  0.87373366  0.87565276  0.49986572  1
  V  V83  1  0.24879354  0.00092719  0.75042782  1
  V  V84  1  0.37623097  0.12388435  0.25067532  1
  V  V85  1  0.74902335  0.74977898  0.49947178  1
  V  V86  1  -0.00030432  0.50034181  0.50133079  1
  V  V87  1  0.50535901  0.12188815  0.12373289  1
  V  V88  1  0.12612554  0.62600059  -0.00056460  1
  V  V89  1  0.62564034  0.12483075  0.50039413  1
  V  V90  1  0.24965020  0.37582896  0.62579310  1
  V  V91  1  0.25033188  0.74989213  0.50103081  1
  V  V92  1  0.00139760  0.25010734  0.25003749  1
  Zn  Zn93  1  0.37366753  0.74851106  0.12588011  1
  Zn  Zn94  1  0.62354491  0.62269662  -0.00167345  1
  Zn  Zn95  1  0.85746465  0.00221713  0.88508982  1
  Zn  Zn96  1  0.49995999  0.87480579  0.37406632  1
  Zn  Zn97  1  0.00077932  0.37131059  0.87614787  1
  Zn  Zn98  1  0.12254781  0.87482961  0.25111543  1
  Zn  Zn99  1  0.75140256  0.37303001  0.11531016  1
  Zn  Zn100  1  0.50109399  0.49601694  -0.00069191  1
  Zn  Zn101  1  0.87370781  0.75140109  0.12542089  1
  Zn  Zn102  1  0.12355530  0.25338875  0.87477900  1
  Zn  Zn103  1  0.74298442  0.00732226  0.75589839  1
  Zn  Zn104  1  0.24951599  0.75065775  0.00027023  1
  Zn  Zn105  1  0.62943944  0.37472531  0.24759581  1
  Zn  Zn106  1  0.12555573  0.12501958  -0.00044143  1
  Zn  Zn107  1  0.37589898  0.49967810  0.37560880  1
  Zn  Zn108  1  0.24999715  0.62445474  0.87558451  1
  Zn  Zn109  1  -0.00526375  0.87901359  0.87482913  1
  Zn  Zn110  1  0.12232244  0.37514683  0.75211591  1
  Zn  Zn111  1  0.37457576  -0.00047905  0.87442457  1
  Zn  Zn112  1  0.24970038  0.87531617  0.62600180  1
  Zn  Zn113  1  -0.00100347  0.62457388  0.62568270  1
  Zn  Zn114  1  0.50194367  0.37221861  0.87830990  1
  Zn  Zn115  1  -0.00058178  0.75319171  0.24955653  1
  Zn  Zn116  1  0.87553465  0.87586083  -0.00116113  1
  Zn  Zn117  1  0.25043006  0.12468049  0.37552720  1
  Zn  Zn118  1  0.00014377  0.37486772  0.37434855  1
  Zn  Zn119  1  0.74927492  0.49618693  0.24797944  1
  Zn  Zn120  1  0.37769419  0.37577028  0.00030709  1
  Zn  Zn121  1  0.74847324  0.62405883  0.37365610  1
  Zn  Zn122  1  0.18831017  0.18580489  0.18800963  1
  Zn  Zn123  1  0.18711614  0.18753213  0.68637404  1
  Zn  Zn124  1  0.18585007  0.69007062  0.18974132  1
  Zn  Zn125  1  0.18716470  0.68599405  0.68770265  1
  Zn  Zn126  1  0.68871625  0.18746042  0.18471172  1
  Zn  Zn127  1  0.69026502  0.19072946  0.68710811  1
  Zn  Zn128  1  0.68702410  0.68723349  0.18680826  1
  Zn  Zn129  1  0.68745299  0.68898208  0.68663518  1
  Zn  Zn130  1  0.31435237  0.31208296  0.31375025  1
  Zn  Zn131  1  0.31264697  0.31382972  0.81185198  1
  Zn  Zn132  1  0.31326163  0.81189103  0.31378880  1
  Zn  Zn133  1  0.30935296  0.81255268  0.81388958  1
  Zn  Zn134  1  0.81168076  0.31518152  0.30464176  1
  Zn  Zn135  1  0.81534984  0.31085339  0.81024526  1
  Zn  Zn136  1  0.81183295  0.81038159  0.31209119  1
  Zn  Zn137  1  0.81257473  0.81849264  0.81473118  1
  Zn  Zn138  1  0.18792920  0.43793879  0.43802822  1
  Zn  Zn139  1  0.18751425  0.43549193  0.93523803  1
  Zn  Zn140  1  0.18848316  0.93668680  0.43777824  1
  Zn  Zn141  1  0.18539990  0.93899267  0.93785553  1
  Zn  Zn142  1  0.68811672  0.43792634  0.43610385  1
  Zn  Zn143  1  0.68791229  0.43361818  0.94135718  1
  Zn  Zn144  1  0.68625776  0.93666658  0.43544092  1
  Zn  Zn145  1  0.68554322  0.93778024  0.93600025  1
  Zn  Zn146  1  0.31572558  0.06171991  0.06340371  1
  Zn  Zn147  1  0.30922280  0.06267071  0.56326131  1
  Zn  Zn148  1  0.31361453  0.56147840  0.06287541  1
  Zn  Zn149  1  0.31403839  0.56201115  0.56234800  1
  Zn  Zn150  1  0.81625676  0.06329900  0.06726332  1
  Zn  Zn151  1  0.81097878  0.06175208  0.56480342  1
  Zn  Zn152  1  0.81010253  0.56040108  0.05909353  1
  Zn  Zn153  1  0.81229233  0.56298608  0.56292600  1
  Zn  Zn154  1  0.43887503  0.43736785  0.18930764  1
  Zn  Zn155  1  0.43785298  0.43744157  0.68840439  1
  Zn  Zn156  1  0.43772601  0.93801637  0.18748863  1
  Zn  Zn157  1  0.43630612  0.93764101  0.68720339  1
  Zn  Zn158  1  0.93994185  0.43661186  0.18721480  1
  Zn  Zn159  1  0.93646378  0.43452726  0.68812573  1
  Zn  Zn160  1  0.93516515  0.93755774  0.18579146  1
  Zn  Zn161  1  0.93933045  0.93697896  0.68687554  1
  Zn  Zn162  1  0.06416136  0.06281291  0.31371073  1
  Zn  Zn163  1  0.06088482  0.06889938  0.81049841  1
  Zn  Zn164  1  0.06161643  0.56315923  0.31341195  1
  Zn  Zn165  1  0.05996700  0.56286202  0.81193203  1
  Zn  Zn166  1  0.56220138  0.06179367  0.31359052  1
  Zn  Zn167  1  0.56255269  0.06139073  0.81663792  1
  Zn  Zn168  1  0.56224996  0.56088423  0.31342009  1
  Zn  Zn169  1  0.56194817  0.56129305  0.81200521  1
  Zn  Zn170  1  0.43790465  0.18695863  0.43702667  1
  Zn  Zn171  1  0.43991817  0.18886139  0.93612437  1
  Zn  Zn172  1  0.43766642  0.68734352  0.43598805  1
  Zn  Zn173  1  0.43599356  0.68638526  0.93849026  1
  Zn  Zn174  1  0.93957721  0.18838908  0.43563861  1
  Zn  Zn175  1  0.93991306  0.18496540  0.93401592  1
  Zn  Zn176  1  0.93812574  0.68729823  0.43801452  1
  Zn  Zn177  1  0.93579810  0.68463979  0.93602772  1
  Zn  Zn178  1  0.06408277  0.31048633  0.06555472  1
  Zn  Zn179  1  0.06146820  0.31533405  0.56329869  1
  Zn  Zn180  1  0.06221645  0.81504273  0.06227489  1
  Zn  Zn181  1  0.06190870  0.81493647  0.56325727  1
  Zn  Zn182  1  0.56397700  0.31268361  0.05850110  1
  Zn  Zn183  1  0.56407113  0.31140866  0.56315018  1
  Zn  Zn184  1  0.56430012  0.81004650  0.06366424  1
  Zn  Zn185  1  0.56077842  0.81137848  0.56217822  1
  O  O186  1  0.11901083  0.11811388  0.12489662  1
  O  O187  1  0.12946847  0.11540886  0.61440443  1
  O  O188  1  0.11705128  0.62104711  0.11919438  1
  O  O189  1  0.12301750  0.61827462  0.61812720  1
  O  O190  1  0.61266696  0.13310397  0.11171311  1
  O  O191  1  0.62076121  0.12107922  0.61978732  1
  O  O192  1  0.61455084  0.61844523  0.12580744  1
  O  O193  1  0.61789067  0.63206895  0.61212147  1
  O  O194  1  0.38360976  0.37471197  0.38329506  1
  O  O195  1  0.37705647  0.38642389  0.87383143  1
  O  O196  1  0.37747526  0.88149441  0.38201536  1
  O  O197  1  0.37917832  0.87504481  0.88535240  1
  O  O198  1  0.87517812  0.38442383  0.37966944  1
  O  O199  1  0.87623176  0.38942626  0.86853487  1
  O  O200  1  0.87786287  0.88097941  0.38063667  1
  O  O201  1  0.87862785  0.88376851  0.87948004  1
  O  O202  1  0.25696155  0.00109461  0.36904980  1
  O  O203  1  0.25087599  0.01001158  0.87026552  1
  O  O204  1  0.25099997  0.50710205  0.36881611  1
  O  O205  1  0.25905331  0.50202085  0.86886091  1
  O  O206  1  0.75565944  0.00575875  0.37001310  1
  O  O207  1  0.74641530  -0.00142597  0.86760918  1
  O  O208  1  0.76285162  0.50267724  0.37366244  1
  O  O209  1  0.75669420  0.50650381  0.86893904  1
  O  O210  1  0.24450733  0.49501373  0.13075102  1
  O  O211  1  0.24555010  0.49521515  0.62937759  1
  O  O212  1  0.24690416  0.99242670  0.12989148  1
  O  O213  1  0.23849541  0.99904681  0.63162928  1
  O  O214  1  0.73633806  0.50557172  0.12625024  1
  O  O215  1  0.75750218  0.48587526  0.63075137  1
  O  O216  1  0.75446976  0.98799206  0.13258510  1
  O  O217  1  0.74153825  0.99371202  0.62796071  1
  O  O218  1  0.01010569  0.36926609  0.25145015  1
  O  O219  1  -0.00092232  0.36164312  0.75137494  1
  O  O220  1  -0.00011634  0.87398400  0.25762913  1
  O  O221  1  0.00685942  0.86868146  0.75240226  1
  O  O222  1  0.50196001  0.36692083  0.25770327  1
  O  O223  1  0.51129782  0.36850352  0.74664175  1
  O  O224  1  0.50905631  0.86993175  0.24847687  1
  O  O225  1  0.50295220  0.86884267  0.75554051  1
  O  O226  1  0.49750425  0.12833147  0.24160270  1
  O  O227  1  0.49530438  0.12891121  0.74459948  1
  O  O228  1  0.49462898  0.62948906  0.24322354  1
  O  O229  1  0.49485871  0.63026696  0.74447383  1
  O  O230  1  0.99546145  0.12930283  0.24573896  1
  O  O231  1  0.98827255  0.13694121  0.74948008  1
  O  O232  1  0.99254471  0.62429332  0.23992218  1
  O  O233  1  0.99189435  0.63262826  0.74784423  1
  O  O234  1  0.36496002  0.24936805  0.00594767  1
  O  O235  1  0.37119912  0.25448543  0.50624027  1
  O  O236  1  0.37265388  0.76254617  0.00266650  1
  O  O237  1  0.37053752  0.75392832  0.50525301  1
  O  O238  1  0.88334922  0.24352508  0.01400995  1
  O  O239  1  0.87132259  0.25443695  0.50424548  1
  O  O240  1  0.86163175  0.75035912  -0.00025268  1
  O  O241  1  0.86898349  0.75569973  0.50488646  1
  O  O242  1  0.12869144  0.24384660  0.49758460  1
  O  O243  1  0.13983521  0.24699119  1.00163335  1
  O  O244  1  0.13015436  0.74504946  0.49652628  1
  O  O245  1  0.12290623  0.74220724  0.99245642  1
  O  O246  1  0.63145670  0.24380812  0.49437093  1
  O  O247  1  0.62099972  0.23557848  0.99106977  1
  O  O248  1  0.62848011  0.74245518  0.49497678  1
  O  O249  1  0.63435535  0.74845441  0.99305588  1
  O  O250  1  0.49519000  0.24122913  0.12964159  1
  O  O251  1  0.49573620  0.24354784  0.63037943  1
  O  O252  1  0.49987710  0.74000587  0.13158418  1
  O  O253  1  0.49324034  0.74402288  0.63114827  1
  O  O254  1  0.99487952  0.24331653  0.13110798  1
  O  O255  1  0.98812947  0.25671760  0.63111742  1
  O  O256  1  0.99769388  0.73778863  0.12365194  1
  O  O257  1  0.99226601  0.75007949  0.63111168  1
  O  O258  1  0.00802143  0.25238894  0.36817826  1
  O  O259  1  0.00174014  0.25164942  0.86448349  1
  O  O260  1  0.00545754  0.75739176  0.37623311  1
  O  O261  1  0.00965243  0.74938145  0.87005732  1
  O  O262  1  0.50682647  0.25360818  0.37057830  1
  O  O263  1  0.50787618  0.25053267  0.86600627  1
  O  O264  1  0.50674097  0.75148666  0.36785176  1
  O  O265  1  0.50384043  0.75398838  0.86994644  1
  O  O266  1  0.23961119  0.13188060  0.49907675  1
  O  O267  1  0.25237716  0.13155315  0.99299857  1
  O  O268  1  0.24494062  0.62997669  0.49488141  1
  O  O269  1  0.23590930  0.62708433  1.00222863  1
  O  O270  1  0.74515474  0.13001803  0.49401200  1
  O  O271  1  0.73142850  0.11527680  1.00833484  1
  O  O272  1  0.74055778  0.63006445  0.50051249  1
  O  O273  1  0.74773019  0.63547014  0.99288159  1
  O  O274  1  0.25223568  0.36578513  0.00721452  1
  O  O275  1  0.25657132  0.37007387  0.50592732  1
  O  O276  1  0.25811883  0.87757829  0.00904326  1
  O  O277  1  0.25707016  0.86757555  0.50208140  1
  O  O278  1  0.75712535  0.37983325  0.00524312  1
  O  O279  1  0.75419571  0.37032393  0.50666582  1
  O  O280  1  0.74604509  0.86759252  0.00906203  1
  O  O281  1  0.75420763  0.87025042  0.50532604  1
  O  O282  1  0.13027980  0.49594858  0.24465162  1
  O  O283  1  0.13088433  0.50107041  0.74346389  1
  O  O284  1  0.13255640  0.99793270  0.24450918  1
  O  O285  1  0.12737691  0.99835604  0.74269837  1
  O  O286  1  0.62599173  0.49925883  0.24051604  1
  O  O287  1  0.63176575  0.48624086  0.75573958  1
  O  O288  1  0.63120609  0.98742766  0.25735102  1
  O  O289  1  0.62047678  0.99319727  0.74205711  1
  O  O290  1  0.37138268  0.00471742  0.25575627  1
  O  O291  1  0.36804994  0.00681631  0.75074631  1
  O  O292  1  0.36806744  0.50668669  0.25252079  1
  O  O293  1  0.37024881  0.50529220  0.75594932  1
  O  O294  1  0.86834974  0.00691121  0.25575944  1
  O  O295  1  0.87848432  0.01671877  0.74276629  1
  O  O296  1  0.87761676  0.50796043  0.25764811  1
  O  O297  1  0.86901913  0.50580252  0.75715684  1
  O  O298  1  0.12472687  0.36878581  0.36937021  1
  O  O299  1  0.12139943  0.37095626  0.86996083  1
  O  O300  1  0.11754443  0.86968578  0.37583567  1
  O  O301  1  0.12236623  0.86565293  0.87059702  1
  O  O302  1  0.61990759  0.36709061  0.37437714  1
  O  O303  1  0.62457508  0.36554522  0.86394916  1
  O  O304  1  0.62402225  0.86782521  0.36459311  1
  O  O305  1  0.61605772  0.86752406  0.86949981  1
  O  O306  1  0.38465897  0.13004255  0.13067120  1
  O  O307  1  0.38049327  0.13033604  0.62960221  1
  O  O308  1  0.38315830  0.62589824  0.13115601  1
  O  O309  1  0.38129774  0.63065631  0.63050225  1
  O  O310  1  0.88246036  0.13373171  0.13265173  1
  O  O311  1  0.87222654  0.13761820  0.62789696  1
  O  O312  1  0.88323290  0.62293178  0.13197094  1
  O  O313  1  0.87443317  0.63286675  0.63156899  1
  O  O314  1  0.25619377  0.25324090  0.11897126  1
  O  O315  1  0.25638530  0.25516444  0.61975260  1
  O  O316  1  0.25028538  0.76209614  0.12321063  1
  O  O317  1  0.25646288  0.75053586  0.61908561  1
  O  O318  1  0.76894962  0.24583756  0.12787097  1
  O  O319  1  0.75909351  0.25864225  0.61766599  1
  O  O320  1  0.74938859  0.75694957  0.11559974  1
  O  O321  1  0.75501415  0.75675507  0.61868964  1
  O  O322  1  0.24430426  0.24905129  0.38286162  1
  O  O323  1  0.25253891  0.24267618  0.88356948  1
  O  O324  1  0.24379511  0.74456359  0.38126561  1
  O  O325  1  0.23591854  0.74655860  0.87787466  1
  O  O326  1  0.74657427  0.24488875  0.37917654  1
  O  O327  1  0.73839008  0.25051408  0.86846252  1
  O  O328  1  0.74365109  0.74743283  0.38260966  1
  O  O329  1  0.74422041  0.74647727  0.88134748  1
  O  O330  1  0.00430014  0.11677059  0.00659112  1
  O  O331  1  0.01271978  0.11921519  0.49425177  1
  O  O332  1  0.00791714  0.61842473  0.00731610  1
  O  O333  1  0.00627106  0.61833762  0.50233345  1
  O  O334  1  0.50125292  0.11734456  0.00702396  1
  O  O335  1  0.50607943  0.12029641  0.50632314  1
  O  O336  1  0.50020602  0.62495602  0.01296761  1
  O  O337  1  0.50617545  0.61805698  0.50412675  1
  O  O338  1  0.49802334  0.38115797  0.49765005  1
  O  O339  1  0.49442292  0.37724215  0.99557228  1
  O  O340  1  0.49353273  0.88180171  0.49875892  1
  O  O341  1  0.49470401  0.88095588  0.99895187  1
  O  O342  1  0.99222473  0.38220998  0.49725991  1
  O  O343  1  1.00837256  0.39059765  1.00127289  1
  O  O344  1  0.99263048  0.88208107  0.49428904  1
  O  O345  1  0.99809374  0.88675203  1.00047924  1
  O  O346  1  0.49851594  0.49354461  0.38673515  1
  O  O347  1  0.48799940  0.49870596  0.87422038  1
  O  O348  1  0.49320921  0.99905317  0.38275707  1
  O  O349  1  0.49588254  0.99247823  0.88521614  1
  O  O350  1  0.98972936  0.49905855  0.38110523  1
  O  O351  1  0.99097944  0.50081938  0.88242107  1
  O  O352  1  0.99338484  0.99546208  0.38082746  1
  O  O353  1  1.00526407  1.00285331  0.88840335  1
  O  O354  1  0.00469579  0.00502295  0.11872414  1
  O  O355  1  0.01340575  -0.00533130  0.61717771  1
  O  O356  1  0.00472318  0.50879593  0.11759825  1
  O  O357  1  0.00486345  0.50049366  0.61912550  1
  O  O358  1  0.49473057  0.01101643  0.11627565  1
  O  O359  1  0.50463609  0.00607659  0.61921605  1
  O  O360  1  0.50626207  0.51006965  0.12654784  1
  O  O361  1  0.49536212  0.50583863  0.61260783  1
  O  O362  1  0.24602895  0.38006975  0.24542143  1
  O  O363  1  0.24945823  0.38167960  0.74168935  1
  O  O364  1  0.25157952  0.88085848  0.24014834  1
  O  O365  1  0.24229473  0.88282058  0.75015045  1
  O  O366  1  0.74721160  0.37852191  0.23651042  1
  O  O367  1  0.74409177  0.37837920  0.74214902  1
  O  O368  1  0.74341702  0.87811146  0.24348986  1
  O  O369  1  0.74017882  0.87342224  0.74137069  1
  O  O370  1  0.25873524  0.11800803  0.25048902  1
  O  O371  1  0.25544949  0.12203995  0.75723550  1
  O  O372  1  0.25402173  0.62037468  0.25452654  1
  O  O373  1  0.25716609  0.61802410  0.75115808  1
  O  O374  1  0.75385254  0.11940757  0.25539705  1
  O  O375  1  0.76698930  0.12641217  0.74282137  1
  O  O376  1  0.76215491  0.62269132  0.25086631  1
  O  O377  1  0.75333272  0.62015786  0.75324168  1
  O  O378  1  0.37420383  0.11860080  0.36873142  1
  O  O379  1  0.36548716  0.12405322  0.86910538  1
  O  O380  1  0.36749763  0.62383370  0.36888600  1
  O  O381  1  0.37282800  0.61723317  0.86913220  1
  O  O382  1  0.86936599  0.11982786  0.37074769  1
  O  O383  1  0.87672082  0.12169340  0.85971412  1
  O  O384  1  0.87562813  0.61649894  0.36689551  1
  O  O385  1  0.86793162  0.61778125  0.86742599  1
  O  O386  1  0.13221162  0.38086214  0.13179842  1
  O  O387  1  0.13283499  0.38269977  0.62560323  1
  O  O388  1  0.13531675  0.88082388  0.12640992  1
  O  O389  1  0.12772059  0.88490246  0.63118328  1
  O  O390  1  0.62149486  0.38710771  0.12593680  1
  O  O391  1  0.63783105  0.36485196  0.63551017  1
  O  O392  1  0.63456768  0.86918574  0.13684752  1
  O  O393  1  0.62770456  0.87962027  0.62922858  1
  O  O394  1  0.12199343  0.25463643  0.25507430  1
  O  O395  1  0.11394997  0.24962533  0.74748223  1
  O  O396  1  0.12061632  0.75312728  0.25986368  1
  O  O397  1  0.11979538  0.75396337  0.75706445  1
  O  O398  1  0.61894357  0.24822897  0.25594285  1
  O  O399  1  0.62197253  0.25561142  0.75626096  1
  O  O400  1  0.62095392  0.75733426  0.25548637  1
  O  O401  1  0.61733689  0.75512838  0.75429880  1
  O  O402  1  0.38202480  0.24338121  0.24557141  1
  O  O403  1  0.38080224  0.24448656  0.74397464  1
  O  O404  1  0.38162507  0.74356538  0.24861056  1
  O  O405  1  0.37916785  0.74530745  0.74636840  1
  O  O406  1  0.88396791  0.24291542  0.24734532  1
  O  O407  1  0.88051058  0.24078109  0.74223168  1
  O  O408  1  0.87806586  0.73758314  0.24886936  1
  O  O409  1  0.87840078  0.74619275  0.74562024  1
  O  O410  1  0.38515805  0.49362727  0.49836109  1
  O  O411  1  0.37508919  0.49951175  0.98847405  1
  O  O412  1  0.37900925  0.99582060  0.49694369  1
  O  O413  1  0.38409754  0.98931103  0.99931233  1
  O  O414  1  0.87883929  0.49639401  0.49239549  1
  O  O415  1  0.88638983  0.51041415  0.98915908  1
  O  O416  1  0.87886451  0.99577481  0.49537027  1
  O  O417  1  0.88716923  1.00183922  1.00118109  1
  O  O418  1  0.11801497  0.00209859  0.00843977  1
  O  O419  1  0.12150632  0.00714969  0.50603406  1
  O  O420  1  0.11837109  0.50955321  0.00433935  1
  O  O421  1  0.11997439  0.50528155  0.50519979  1
  O  O422  1  0.61105469  0.01165035  -0.00493188  1
  O  O423  1  0.61976309  0.00532491  0.50473211  1
  O  O424  1  0.62027479  0.50490968  0.00987153  1
  O  O425  1  0.61616819  0.50981480  0.49508824  1
  O  O426  1  0.36869070  0.36787951  0.12607673  1
  O  O427  1  0.37060309  0.36867833  0.61990914  1
  O  O428  1  0.36700699  0.87470810  0.11774032  1
  O  O429  1  0.37316670  0.86782028  0.61907860  1
  O  O430  1  0.88125376  0.35766236  0.12891894  1
  O  O431  1  0.86526833  0.36561025  0.61960738  1
  O  O432  1  0.86203283  0.87058308  0.12303009  1
  O  O433  1  0.86883828  0.87087149  0.61915533  1
  O  O434  1  0.12857419  0.13123271  0.38505026  1
  O  O435  1  0.13990223  0.12995375  0.87576537  1
  O  O436  1  0.12978730  0.63042250  0.38149172  1
  O  O437  1  0.12391801  0.63235769  0.88421043  1
  O  O438  1  0.63095674  0.12993139  0.38083828  1
  O  O439  1  0.62029907  0.13161936  0.88791723  1
  O  O440  1  0.62561756  0.63042534  0.38606519  1
  O  O441  1  0.63095703  0.63156192  0.87384472  1
