# generated using pymatgen
data_V93Zn93O256
_symmetry_space_group_name_H-M   'P 1'
_cell_length_a   17.04460770
_cell_length_b   17.04457009
_cell_length_c   17.04286250
_cell_angle_alpha   90.02392281
_cell_angle_beta   90.02974912
_cell_angle_gamma   90.02987084
_symmetry_Int_Tables_number   1
_chemical_formula_structural   V93Zn93O256
_chemical_formula_sum   'V93 Zn93 O256'
_cell_volume   4951.25673303
_cell_formula_units_Z   1
loop_
 _symmetry_equiv_pos_site_id
 _symmetry_equiv_pos_as_xyz
  1  'x, y, z'
loop_
 _atom_site_type_symbol
 _atom_site_label
 _atom_site_symmetry_multiplicity
 _atom_site_fract_x
 _atom_site_fract_y
 _atom_site_fract_z
 _atom_site_occupancy
  V  V0  1  0.12020505  0.49806481  0.11743394  1
  V  V1  1  0.00105217  0.74973995  0.75194425  1
  V  V2  1  0.49993904  0.37648552  0.87471460  1
  V  V3  1  0.37490079  0.37462226  -0.00200303  1
  V  V4  1  0.75011991  0.75084806  0.50085811  1
  V  V5  1  0.62327196  0.50328604  0.12280437  1
  V  V6  1  0.62603172  0.87727288  0.75093376  1
  V  V7  1  0.75054929  0.37472631  0.12515913  1
  V  V8  1  0.74797681  0.75108920  0.00126086  1
  V  V9  1  0.24944901  0.24957650  0.49894598  1
  V  V10  1  0.12462765  0.12365076  -0.00073269  1
  V  V11  1  0.24760500  0.75028410  0.49773180  1
  V  V12  1  0.24780471  0.49805048  0.74679147  1
  V  V13  1  0.00041859  0.37860982  0.87864362  1
  V  V14  1  0.12438666  0.24929482  0.87353644  1
  V  V15  1  0.87568018  0.62498795  0.75107887  1
  V  V16  1  -0.00045300  0.62048445  0.11976866  1
  V  V17  1  0.37127042  0.00018811  0.87010060  1
  V  V18  1  0.87461026  0.24918671  0.12573794  1
  V  V19  1  0.24744365  0.74725548  -0.00100132  1
  V  V20  1  0.12660129  0.86928008  0.25949033  1
  V  V21  1  0.25003065  0.62582685  0.87448373  1
  V  V22  1  0.87564506  0.00410258  0.86992003  1
  V  V23  1  0.87442312  0.37445236  0.50065324  1
  V  V24  1  0.74893466  0.24984239  0.50024188  1
  V  V25  1  0.25150299  0.00062687  0.25149642  1
  V  V26  1  0.49898435  0.24878839  0.74795660  1
  V  V27  1  0.87605152  0.74997518  0.12737477  1
  V  V28  1  0.37468520  0.87602068  0.50032112  1
  V  V29  1  -0.00073071  0.12375970  0.12473704  1
  V  V30  1  0.24994155  0.12240125  0.87120750  1
  V  V31  1  0.87704609  0.37861054  0.00038670  1
  V  V32  1  -0.00124278  0.24642059  0.25026613  1
  V  V33  1  0.37583001  0.62425468  0.24946904  1
  V  V34  1  0.37557581  0.49951114  0.87464502  1
  V  V35  1  0.49998891  0.00421565  0.50258903  1
  V  V36  1  0.50092792  0.87629187  0.87401207  1
  V  V37  1  0.12492916  0.12474350  0.50014656  1
  V  V38  1  0.50119696  0.00167510  0.00079013  1
  V  V39  1  0.50002281  0.62661703  0.62466705  1
  V  V40  1  0.37516725  0.62544188  0.74907397  1
  V  V41  1  0.37482059  0.12422480  0.74748449  1
  V  V42  1  0.50080567  0.75175246  0.75053697  1
  V  V43  1  0.62872474  0.00076076  0.13120580  1
  V  V44  1  0.00580787  0.74843775  0.25570824  1
  V  V45  1  0.12889933  0.87990189  0.75060371  1
  V  V46  1  -0.00488019  0.24546687  0.75129749  1
  V  V47  1  0.62581505  0.75104082  0.37363033  1
  V  V48  1  0.62557622  0.25046935  0.87519083  1
  V  V49  1  0.74979942  0.37532196  0.62518307  1
  V  V50  1  0.12387172  0.62857965  0.49665851  1
  V  V51  1  0.12461491  0.24791389  0.37535915  1
  V  V52  1  0.75068572  0.87663503  0.62685733  1
  V  V53  1  0.00072163  -0.00082447  0.00041781  1
  V  V54  1  0.75054893  0.50065640  0.25130187  1
  V  V55  1  0.75381938  0.12575425  0.86938110  1
  V  V56  1  -0.00013299  0.49937944  0.50025487  1
  V  V57  1  0.00113383  -0.00074222  0.50109464  1
  V  V58  1  0.87295435  -0.00153756  0.36999115  1
  V  V59  1  0.49889987  0.50037059  0.49877937  1
  V  V60  1  0.75050806  0.12110125  0.37014338  1
  V  V61  1  -0.00514728  0.12377557  0.62791075  1
  V  V62  1  0.37882328  0.24571001  0.62320025  1
  V  V63  1  0.87746571  0.50004160  0.87927941  1
  V  V64  1  0.37465975  0.24835716  0.12458847  1
  V  V65  1  0.24861131  0.87472575  0.12473238  1
  V  V66  1  0.75078823  0.87965546  0.13248889  1
  V  V67  1  0.87528507  0.75038932  0.62618950  1
  V  V68  1  0.00077483  0.62347403  0.62525498  1
  V  V69  1  0.62474339  0.50117158  0.62474269  1
  V  V70  1  0.87313471  0.49910700  0.37444712  1
  V  V71  1  0.62479972  0.62667662  0.49992499  1
  V  V72  1  -0.00092643  0.37296281  0.37557931  1
  V  V73  1  0.75016517  0.62692162  0.87648780  1
  V  V74  1  0.74933292  0.25035075  -0.00051195  1
  V  V75  1  0.24958968  0.88165697  0.62858713  1
  V  V76  1  0.75030243  0.50093610  0.75092944  1
  V  V77  1  0.87715263  0.87524884  0.50137525  1
  V  V78  1  0.62388102  0.37474537  0.25023377  1
  V  V79  1  0.37649276  0.74918735  0.12540518  1
  V  V80  1  0.37487146  0.75102164  0.62424282  1
  V  V81  1  0.00084592  0.87450030  0.87665028  1
  V  V82  1  0.12447745  0.37391704  0.24959505  1
  V  V83  1  0.24445201  0.62967191  0.37323311  1
  V  V84  1  0.62439828  0.37568666  0.75002168  1
  V  V85  1  0.62328850  0.00299425  0.62664580  1
  V  V86  1  0.50020544  0.87547062  0.37397886  1
  V  V87  1  0.25054869  0.24870975  -0.00136327  1
  V  V88  1  0.49941993  0.25043716  0.25051589  1
  V  V89  1  0.37423475  0.37611525  0.49838387  1
  V  V90  1  0.24795173  0.49945579  0.24888926  1
  V  V91  1  0.87442649  0.24786929  0.62727614  1
  V  V92  1  0.62257521  0.12666085  0.50352770  1
  Zn  Zn93  1  0.12448184  0.74844825  0.87520246  1
  Zn  Zn94  1  0.87609351  0.87704930  0.00084128  1
  Zn  Zn95  1  0.62486213  0.75123304  0.87605819  1
  Zn  Zn96  1  0.62113312  0.62651981  -0.00171284  1
  Zn  Zn97  1  0.50282467  0.12427226  0.12579418  1
  Zn  Zn98  1  0.24811724  0.37485212  0.12372016  1
  Zn  Zn99  1  0.24636494  0.37415554  0.62425411  1
  Zn  Zn100  1  0.37560806  0.00260556  0.37433436  1
  Zn  Zn101  1  0.11956400  0.61883428  -0.00466087  1
  Zn  Zn102  1  0.62455199  0.25034480  0.37488620  1
  Zn  Zn103  1  0.50121726  0.37686565  0.37453654  1
  Zn  Zn104  1  0.00321236  0.87037993  0.37915161  1
  Zn  Zn105  1  0.62580622  0.12586141  0.00014181  1
  Zn  Zn106  1  0.62903512  0.88032626  0.25388503  1
  Zn  Zn107  1  0.50275446  0.75101136  0.24746449  1
  Zn  Zn108  1  0.12893693  0.00397452  0.62874109  1
  Zn  Zn109  1  0.37534709  0.49970270  0.37320150  1
  Zn  Zn110  1  0.87607616  0.62370070  0.25268983  1
  Zn  Zn111  1  0.12370153  0.37400899  0.74672722  1
  Zn  Zn112  1  0.75558371  0.00514099  0.74759561  1
  Zn  Zn113  1  0.37447437  0.87541136  -0.00202156  1
  Zn  Zn114  1  0.25133200  0.12353128  0.37456227  1
  Zn  Zn115  1  0.75136489  0.62567657  0.37430409  1
  Zn  Zn116  1  0.12461517  0.49729532  0.62377977  1
  Zn  Zn117  1  0.49856768  0.50363640  -0.00050363  1
  Zn  Zn118  1  0.87107991  0.11883749  0.24689983  1
  Zn  Zn119  1  0.12353494  -0.00058258  0.12606084  1
  Zn  Zn120  1  0.37549323  0.12386840  0.25116694  1
  Zn  Zn121  1  0.50136154  0.62687058  0.12262387  1
  Zn  Zn122  1  0.18611330  0.18625760  0.18568448  1
  Zn  Zn123  1  0.18819255  0.18825974  0.68664675  1
  Zn  Zn124  1  0.18536728  0.68459572  0.18524628  1
  Zn  Zn125  1  0.18635478  0.68938767  0.68524348  1
  Zn  Zn126  1  0.68572422  0.18654466  0.18660194  1
  Zn  Zn127  1  0.68703777  0.18819104  0.68816868  1
  Zn  Zn128  1  0.68951859  0.68667376  0.18980311  1
  Zn  Zn129  1  0.68740829  0.68938686  0.68895723  1
  Zn  Zn130  1  0.31105138  0.31242764  0.31283428  1
  Zn  Zn131  1  0.31180979  0.31201854  0.81166042  1
  Zn  Zn132  1  0.31368865  0.81223266  0.31331250  1
  Zn  Zn133  1  0.31339543  0.81324040  0.81183118  1
  Zn  Zn134  1  0.81087782  0.30974951  0.31241396  1
  Zn  Zn135  1  0.81384568  0.31292741  0.81262099  1
  Zn  Zn136  1  0.81537219  0.81301906  0.31340432  1
  Zn  Zn137  1  0.81385793  0.81631871  0.81386098  1
  Zn  Zn138  1  0.18778835  0.43956067  0.43535918  1
  Zn  Zn139  1  0.18901593  0.43502692  0.93496192  1
  Zn  Zn140  1  0.18740393  0.93907573  0.43911200  1
  Zn  Zn141  1  0.18714085  0.93634882  0.93740050  1
  Zn  Zn142  1  0.68567706  0.43709352  0.43602484  1
  Zn  Zn143  1  0.68939290  0.43820907  0.93857956  1
  Zn  Zn144  1  0.68910516  0.93801217  0.43931360  1
  Zn  Zn145  1  0.68909067  0.93815728  0.94066593  1
  Zn  Zn146  1  0.31318720  0.06252283  0.06091718  1
  Zn  Zn147  1  0.31338765  0.06447902  0.56157499  1
  Zn  Zn148  1  0.30930119  0.56068125  0.06238506  1
  Zn  Zn149  1  0.31203820  0.56296380  0.56195978  1
  Zn  Zn150  1  0.81271747  0.06307005  0.05738278  1
  Zn  Zn151  1  0.81196373  0.06204130  0.55871745  1
  Zn  Zn152  1  0.81184941  0.56320427  0.06308273  1
  Zn  Zn153  1  0.81227473  0.56354243  0.56169206  1
  Zn  Zn154  1  0.43724123  0.43610576  0.18498430  1
  Zn  Zn155  1  0.43552135  0.43611696  0.68527984  1
  Zn  Zn156  1  0.43817697  0.93684332  0.18708036  1
  Zn  Zn157  1  0.43840445  0.93865983  0.68732395  1
  Zn  Zn158  1  0.93763803  0.43608766  0.18894311  1
  Zn  Zn159  1  0.93791205  0.43595195  0.69041420  1
  Zn  Zn160  1  0.94035320  0.93467577  0.18833846  1
  Zn  Zn161  1  0.94059278  0.93714155  0.68954123  1
  Zn  Zn162  1  0.06280682  0.05873176  0.31274236  1
  Zn  Zn163  1  0.06180152  0.06160546  0.81261044  1
  Zn  Zn164  1  0.06121141  0.56103070  0.30975009  1
  Zn  Zn165  1  0.06438286  0.56235536  0.81341327  1
  Zn  Zn166  1  0.56247954  0.06611367  0.31396712  1
  Zn  Zn167  1  0.56116955  0.06599551  0.81328851  1
  Zn  Zn168  1  0.56145625  0.56282597  0.31191856  1
  Zn  Zn169  1  0.56348888  0.56470857  0.81375054  1
  Zn  Zn170  1  0.43536236  0.18694214  0.43258849  1
  Zn  Zn171  1  0.43893807  0.18660922  0.93579836  1
  Zn  Zn172  1  0.43583405  0.68806214  0.43655063  1
  Zn  Zn173  1  0.43769994  0.68686056  0.93812952  1
  Zn  Zn174  1  0.93630679  0.18510997  0.43937059  1
  Zn  Zn175  1  0.93606463  0.18814283  0.93913420  1
  Zn  Zn176  1  0.93620714  0.68568712  0.43757778  1
  Zn  Zn177  1  0.93530563  0.68931296  0.93871705  1
  Zn  Zn178  1  0.06205481  0.31050067  0.06169323  1
  Zn  Zn179  1  0.06356676  0.31233622  0.56386427  1
  Zn  Zn180  1  0.06325952  0.81125604  0.06520300  1
  Zn  Zn181  1  0.06382145  0.81145135  0.56531286  1
  Zn  Zn182  1  0.56142102  0.31521287  0.06186220  1
  Zn  Zn183  1  0.56035626  0.31352138  0.56267324  1
  Zn  Zn184  1  0.56401948  0.81767226  0.06194885  1
  Zn  Zn185  1  0.56297123  0.81536146  0.56233456  1
  O  O186  1  0.11772693  0.12296585  0.11660606  1
  O  O187  1  0.11484855  0.12443802  0.62004010  1
  O  O188  1  0.11691544  0.61498634  0.12310943  1
  O  O189  1  0.11898643  0.62179707  0.61524283  1
  O  O190  1  0.62491039  0.11529682  0.11989347  1
  O  O191  1  0.63167876  0.11570744  0.61423813  1
  O  O192  1  0.62455940  0.61497927  0.12543405  1
  O  O193  1  0.61964099  0.62116630  0.62035687  1
  O  O194  1  0.37641360  0.37612964  0.38720956  1
  O  O195  1  0.38063764  0.37952127  0.87831251  1
  O  O196  1  0.38467415  0.87539989  0.38214250  1
  O  O197  1  0.38094641  0.88508776  0.87349851  1
  O  O198  1  0.87944809  0.37798696  0.38173188  1
  O  O199  1  0.88194618  0.37958208  0.87993656  1
  O  O200  1  0.87594492  0.88222827  0.38342039  1
  O  O201  1  0.88238702  0.88413755  0.87882438  1
  O  O202  1  0.25233256  -0.00200279  0.36348292  1
  O  O203  1  0.26413334  0.00470302  0.88188026  1
  O  O204  1  0.25247126  0.51193265  0.36785509  1
  O  O205  1  0.25563208  0.50511646  0.86615970  1
  O  O206  1  0.76038067  0.00915927  0.38454017  1
  O  O207  1  0.75786797  0.00802732  0.87596274  1
  O  O208  1  0.75511075  0.50033653  0.36943583  1
  O  O209  1  0.75578184  0.50582271  0.86901319  1
  O  O210  1  0.23902693  0.49818433  0.13176412  1
  O  O211  1  0.25059035  0.50023601  0.63628432  1
  O  O212  1  0.25084819  0.98887779  0.13074761  1
  O  O213  1  0.25068716  0.98524882  0.62008048  1
  O  O214  1  0.74303942  0.49440197  0.13093026  1
  O  O215  1  0.74489166  0.49547108  0.63069056  1
  O  O216  1  0.74164018  0.99037170  0.11511630  1
  O  O217  1  0.74113980  0.99604827  0.62564501  1
  O  O218  1  0.00471038  0.36680591  0.25646094  1
  O  O219  1  0.00031493  0.36440584  0.76025540  1
  O  O220  1  0.01126773  0.86576758  0.25002826  1
  O  O221  1  0.00843608  0.86840790  0.75550171  1
  O  O222  1  0.50443687  0.36632822  0.24994870  1
  O  O223  1  0.50504200  0.37031018  0.75438905  1
  O  O224  1  0.50088981  0.87331047  0.26375597  1
  O  O225  1  0.50589753  0.87074891  0.75382038  1
  O  O226  1  0.49835826  0.13709921  0.24705256  1
  O  O227  1  0.48546998  0.13475984  0.75737772  1
  O  O228  1  0.48724764  0.62874135  0.24750089  1
  O  O229  1  0.49510300  0.63115614  0.74393676  1
  O  O230  1  0.99917563  0.12950570  0.24316133  1
  O  O231  1  1.00478416  0.13422185  0.74033075  1
  O  O232  1  1.00002797  0.63246914  0.23987694  1
  O  O233  1  0.99463870  0.62923151  0.74577571  1
  O  O234  1  0.37122846  0.25358660  0.00561315  1
  O  O235  1  0.37193886  0.25551513  0.50562345  1
  O  O236  1  0.36512627  0.75122750  0.00916967  1
  O  O237  1  0.36932963  0.75618106  0.50542224  1
  O  O238  1  0.86882532  0.25716313  0.00642634  1
  O  O239  1  0.86922358  0.25589616  0.50670238  1
  O  O240  1  0.86679827  0.75160478  0.01250780  1
  O  O241  1  0.87060331  0.75474718  0.50653727  1
  O  O242  1  0.12935511  0.24486723  0.49470614  1
  O  O243  1  0.13021370  0.24328784  0.99334927  1
  O  O244  1  0.12992440  0.73620352  0.50483882  1
  O  O245  1  0.13865833  0.74730483  1.00135209  1
  O  O246  1  0.62829601  0.24114117  0.50180992  1
  O  O247  1  0.63142303  0.25215407  0.99286758  1
  O  O248  1  0.62973310  0.74736318  0.49352580  1
  O  O249  1  0.63718326  0.75031284  1.00050605  1
  O  O250  1  0.49154117  0.25036096  0.13156962  1
  O  O251  1  0.48677189  0.25571164  0.63101597  1
  O  O252  1  0.48746340  0.75317210  0.12551676  1
  O  O253  1  0.49495410  0.74676234  0.62914016  1
  O  O254  1  0.99406876  0.24363041  0.12976260  1
  O  O255  1  0.99499082  0.24313844  0.63206394  1
  O  O256  1  0.99313684  0.74376692  0.13311700  1
  O  O257  1  0.99385093  0.74343265  0.63144807  1
  O  O258  1  0.00409799  0.25356840  0.37111640  1
  O  O259  1  0.00301906  0.25451581  0.86751762  1
  O  O260  1  -0.00708733  0.74996632  0.35979011  1
  O  O261  1  0.00042630  0.75599285  0.87014389  1
  O  O262  1  0.50152174  0.25261384  0.36242993  1
  O  O263  1  0.50553439  0.25708744  0.86906667  1
  O  O264  1  0.50895737  0.76013674  0.37856183  1
  O  O265  1  0.49977567  0.75809792  0.86862270  1
  O  O266  1  0.24247267  0.13124828  0.49978976  1
  O  O267  1  0.24473254  0.12963241  0.99278933  1
  O  O268  1  0.24346211  0.62869372  0.49258041  1
  O  O269  1  0.25006449  0.63348937  0.99366470  1
  O  O270  1  0.74121335  0.13036038  0.49340954  1
  O  O271  1  0.74822439  0.13321911  0.98861482  1
  O  O272  1  0.74251860  0.63297578  0.49960222  1
  O  O273  1  0.74985446  0.63642238  0.99579926  1
  O  O274  1  0.25693825  0.36560123  -0.00094278  1
  O  O275  1  0.25871181  0.36990931  0.49888577  1
  O  O276  1  0.25135865  0.86678982  0.00898243  1
  O  O277  1  0.25431550  0.86971462  0.50677245  1
  O  O278  1  0.75634678  0.36895500  0.00567446  1
  O  O279  1  0.75386310  0.37021052  0.50640595  1
  O  O280  1  0.75242473  0.86538063  0.01044376  1
  O  O281  1  0.75621423  0.86991615  0.50776224  1
  O  O282  1  0.12858673  0.49311007  0.24171020  1
  O  O283  1  0.13708034  0.49949950  0.74884644  1
  O  O284  1  0.13351852  0.98818468  0.24712780  1
  O  O285  1  0.11993127  0.98470219  0.74828711  1
  O  O286  1  0.62974837  0.49541931  0.24241961  1
  O  O287  1  0.63044509  0.49568043  0.74414839  1
  O  O288  1  0.61807325  0.99992722  0.23593063  1
  O  O289  1  0.62242243  0.99761483  0.73924580  1
  O  O290  1  0.36397945  -0.00062993  0.24962923  1
  O  O291  1  0.38412684  0.01015876  0.75999366  1
  O  O292  1  0.36811649  0.50918991  0.24699644  1
  O  O293  1  0.36796620  0.50571042  0.75368125  1
  O  O294  1  0.88110945  -0.00125194  0.26550057  1
  O  O295  1  0.87561854  -0.00350520  0.76492007  1
  O  O296  1  0.86835624  0.49802039  0.25698765  1
  O  O297  1  0.86891937  0.50544081  0.75675109  1
  O  O298  1  0.11815444  0.36895824  0.37033254  1
  O  O299  1  0.11551217  0.36814127  0.87386140  1
  O  O300  1  0.12496900  0.87509878  0.36343847  1
  O  O301  1  0.12110273  0.87183943  0.86691733  1
  O  O302  1  0.62258974  0.37097826  0.36651444  1
  O  O303  1  0.62120056  0.37122472  0.86847254  1
  O  O304  1  0.61849331  0.86874024  0.37646432  1
  O  O305  1  0.61923004  0.87607887  0.86868054  1
  O  O306  1  0.37680530  0.13776334  0.12569373  1
  O  O307  1  0.37093118  0.13507903  0.63322243  1
  O  O308  1  0.37154529  0.63335360  0.13369117  1
  O  O309  1  0.38074925  0.63169757  0.62880414  1
  O  O310  1  0.87951984  0.13039824  0.12607728  1
  O  O311  1  0.88685657  0.13101492  0.61727544  1
  O  O312  1  0.88188371  0.63295139  0.12778371  1
  O  O313  1  0.88003380  0.63049534  0.63091422  1
  O  O314  1  0.25808604  0.25075190  0.11838013  1
  O  O315  1  0.26108061  0.25213288  0.61818114  1
  O  O316  1  0.25685865  0.75494891  0.11904312  1
  O  O317  1  0.25616679  0.75805113  0.61766203  1
  O  O318  1  0.75472195  0.25532957  0.12036428  1
  O  O319  1  0.75426334  0.25553432  0.62083948  1
  O  O320  1  0.75758101  0.75606084  0.12052881  1
  O  O321  1  0.75587545  0.75626324  0.62095780  1
  O  O322  1  0.24177505  0.24796627  0.38072013  1
  O  O323  1  0.24463022  0.24345676  0.87908719  1
  O  O324  1  0.25483250  0.73751719  0.38070092  1
  O  O325  1  0.25240569  0.74556384  0.88464684  1
  O  O326  1  0.74871506  0.24084191  0.38359329  1
  O  O327  1  0.74640002  0.24504188  0.87856191  1
  O  O328  1  0.74103435  0.75197592  0.38167916  1
  O  O329  1  0.75258366  0.74716274  0.88602710  1
  O  O330  1  0.00541865  0.12014112  0.00474039  1
  O  O331  1  0.00563881  0.12105861  0.50945960  1
  O  O332  1  0.00108800  0.63269335  0.01523286  1
  O  O333  1  0.00651959  0.62042436  0.50403749  1
  O  O334  1  0.50241695  0.11355578  0.00043559  1
  O  O335  1  0.51069042  0.11508982  0.49180361  1
  O  O336  1  0.50297024  0.62176664  0.00437799  1
  O  O337  1  0.50426329  0.62151918  0.50588714  1
  O  O338  1  0.49061821  0.38123950  0.49951355  1
  O  O339  1  0.49284158  0.37789265  0.99159262  1
  O  O340  1  0.49617790  0.88340752  0.49276633  1
  O  O341  1  0.49710970  0.88502324  0.99345893  1
  O  O342  1  0.99388618  0.37895232  0.49501273  1
  O  O343  1  0.99295915  0.36566509  0.98608584  1
  O  O344  1  0.99550424  0.87890092  0.50060062  1
  O  O345  1  1.00160023  0.88010470  0.99504115  1
  O  O346  1  0.49612681  0.49886779  0.38286867  1
  O  O347  1  0.49326376  0.49414781  0.87364403  1
  O  O348  1  0.50261071  0.99071847  0.38498719  1
  O  O349  1  0.49276941  0.99668997  0.88216469  1
  O  O350  1  0.99422039  0.49262189  0.37993005  1
  O  O351  1  0.99396669  0.48709466  0.86743551  1
  O  O352  1  0.99124498  0.99746090  0.38376645  1
  O  O353  1  0.99374194  0.99601035  0.88051065  1
  O  O354  1  0.00043495  0.00498872  0.11848374  1
  O  O355  1  -0.00005056  0.00929337  0.62060901  1
  O  O356  1  0.00799027  0.50873413  0.13215123  1
  O  O357  1  -0.00193201  0.50614887  0.61853858  1
  O  O358  1  0.50643722  -0.00130304  0.11605962  1
  O  O359  1  0.51100434  -0.00653424  0.61285134  1
  O  O360  1  0.51188858  0.50022312  0.12364113  1
  O  O361  1  0.50533584  0.50657471  0.62026813  1
  O  O362  1  0.24192357  0.38100540  0.24909079  1
  O  O363  1  0.24951090  0.38643648  0.74961619  1
  O  O364  1  0.24511221  0.87811797  0.24388499  1
  O  O365  1  0.24135921  0.86674010  0.73960640  1
  O  O366  1  0.74430921  0.37933916  0.24396801  1
  O  O367  1  0.74457872  0.38064246  0.74484442  1
  O  O368  1  0.74971284  0.87036992  0.23669745  1
  O  O369  1  0.74401712  0.87915690  0.74415387  1
  O  O370  1  0.24784168  0.11096558  0.24821504  1
  O  O371  1  0.26409247  0.13110480  0.75616567  1
  O  O372  1  0.25498621  0.62154499  0.25585049  1
  O  O373  1  0.25577753  0.61960787  0.75364560  1
  O  O374  1  0.75035413  0.13088390  0.26602097  1
  O  O375  1  0.74592958  0.12453635  0.76415973  1
  O  O376  1  0.75435238  0.61654033  0.25363139  1
  O  O377  1  0.75645338  0.62113215  0.75495743  1
  O  O378  1  0.36919047  0.12020875  0.36942968  1
  O  O379  1  0.36986037  0.11888043  0.86809197  1
  O  O380  1  0.36625371  0.62492168  0.36472461  1
  O  O381  1  0.36994719  0.61970737  0.86767233  1
  O  O382  1  0.86699545  0.11580284  0.37704672  1
  O  O383  1  0.86605482  0.11671016  0.88084793  1
  O  O384  1  0.87233051  0.61530372  0.37364844  1
  O  O385  1  0.87070165  0.62003658  0.87039435  1
  O  O386  1  0.12317257  0.38132133  0.13058667  1
  O  O387  1  0.12830667  0.37928946  0.62831504  1
  O  O388  1  0.13730397  0.87410285  0.13388123  1
  O  O389  1  0.13363666  0.87552930  0.63258923  1
  O  O390  1  0.63089281  0.38326494  0.12996248  1
  O  O391  1  0.63003273  0.38118956  0.63014209  1
  O  O392  1  0.63355401  0.88257180  0.12864755  1
  O  O393  1  0.63063285  0.88458414  0.62897384  1
  O  O394  1  0.11903758  0.25405434  0.25481653  1
  O  O395  1  0.11451209  0.25053386  0.75593612  1
  O  O396  1  0.11702825  0.75715602  0.24306483  1
  O  O397  1  0.11871718  0.75903366  0.75090784  1
  O  O398  1  0.61489151  0.25623735  0.24769385  1
  O  O399  1  0.61935033  0.25668627  0.75396118  1
  O  O400  1  0.62324772  0.75203862  0.26216571  1
  O  O401  1  0.61844349  0.75871540  0.75068033  1
  O  O402  1  0.38155865  0.25225896  0.24049448  1
  O  O403  1  0.37888452  0.24512493  0.74203462  1
  O  O404  1  0.37358522  0.74132862  0.24104603  1
  O  O405  1  0.38098704  0.74511984  0.74373752  1
  O  O406  1  0.88141288  0.24749141  0.24338525  1
  O  O407  1  0.88674224  0.25462441  0.74372460  1
  O  O408  1  0.88350871  0.74982198  0.23990650  1
  O  O409  1  0.88020098  0.74480742  0.74548367  1
  O  O410  1  0.37944982  0.49165022  0.50043047  1
  O  O411  1  0.37325997  0.49291553  0.99282419  1
  O  O412  1  0.38564898  0.99554751  0.50072364  1
  O  O413  1  0.38436091  0.99926846  0.99109177  1
  O  O414  1  0.87937988  0.49365136  0.49532006  1
  O  O415  1  0.86754198  0.49147996  0.99231465  1
  O  O416  1  0.88162193  0.99372942  0.49384625  1
  O  O417  1  0.88293100  0.99813392  0.98971455  1
  O  O418  1  0.11902324  0.00606908  0.00088348  1
  O  O419  1  0.11837971  0.00595237  0.50326342  1
  O  O420  1  0.13051010  0.49852877  0.01317481  1
  O  O421  1  0.11862075  0.51058346  0.50000096  1
  O  O422  1  0.61509124  -0.00052257  0.00850775  1
  O  O423  1  0.61947532  0.00627759  0.50767462  1
  O  O424  1  0.62635213  0.50114760  0.01182198  1
  O  O425  1  0.61999254  0.50611825  0.50606142  1
  O  O426  1  0.37242781  0.36431310  0.11774651  1
  O  O427  1  0.37194163  0.36660249  0.61379761  1
  O  O428  1  0.36424094  0.86535274  0.12618957  1
  O  O429  1  0.36874191  0.87074196  0.62114405  1
  O  O430  1  0.87035840  0.36966146  0.12017783  1
  O  O431  1  0.86892472  0.36966551  0.62007264  1
  O  O432  1  0.86920743  0.86642248  0.12435893  1
  O  O433  1  0.87094473  0.87004566  0.62176374  1
  O  O434  1  0.12529363  0.13059268  0.38220416  1
  O  O435  1  0.13008067  0.12910850  0.87891483  1
  O  O436  1  0.13380857  0.61967215  0.38298558  1
  O  O437  1  0.13258033  0.62818879  0.87837730  1
  O  O438  1  0.63347873  0.12477530  0.38643994  1
  O  O439  1  0.63343933  0.13243879  0.87725945  1
  O  O440  1  0.62415648  0.63611153  0.38142089  1
  O  O441  1  0.63457504  0.62982088  0.87649935  1
