# generated using pymatgen
data_V93Zn93O256
_symmetry_space_group_name_H-M   'P 1'
_cell_length_a   17.05095294
_cell_length_b   17.05039690
_cell_length_c   17.05302526
_cell_angle_alpha   90.02885797
_cell_angle_beta   89.93312167
_cell_angle_gamma   89.96547847
_symmetry_Int_Tables_number   1
_chemical_formula_structural   V93Zn93O256
_chemical_formula_sum   'V93 Zn93 O256'
_cell_volume   4957.74464716
_cell_formula_units_Z   1
loop_
 _symmetry_equiv_pos_site_id
 _symmetry_equiv_pos_as_xyz
  1  'x, y, z'
loop_
 _atom_site_type_symbol
 _atom_site_label
 _atom_site_symmetry_multiplicity
 _atom_site_fract_x
 _atom_site_fract_y
 _atom_site_fract_z
 _atom_site_occupancy
  V  V0  1  0.87253329  0.62721009  0.75386484  1
  V  V1  1  0.75085097  -0.00515038  0.24455432  1
  V  V2  1  0.49540831  0.24205031  0.75086031  1
  V  V3  1  0.00070846  0.00144652  -0.00004556  1
  V  V4  1  0.87139353  0.25306218  0.12561193  1
  V  V5  1  0.37543347  0.49850406  0.37534535  1
  V  V6  1  0.49938864  0.49876130  0.00049513  1
  V  V7  1  0.37502552  0.62390412  0.25004471  1
  V  V8  1  0.62443604  0.62398122  0.49928777  1
  V  V9  1  0.74856341  0.50512076  0.75368098  1
  V  V10  1  0.62844478  0.87265444  0.24444416  1
  V  V11  1  0.74058311  0.24683514  0.50045220  1
  V  V12  1  0.37367053  0.37548362  0.00047928  1
  V  V13  1  0.24948619  0.24996746  0.00042959  1
  V  V14  1  0.12589493  0.87611194  0.74980557  1
  V  V15  1  0.62728604  -0.00392359  0.12383764  1
  V  V16  1  0.87033290  0.50640933  0.87736828  1
  V  V17  1  0.24956669  0.62541598  0.37590937  1
  V  V18  1  0.38021423  0.12903689  0.24953050  1
  V  V19  1  -0.00049949  0.50063427  0.50188393  1
  V  V20  1  0.37600108  0.87498797  0.49900638  1
  V  V21  1  0.50077836  0.12701612  0.12722516  1
  V  V22  1  0.12447290  0.24917094  0.37648190  1
  V  V23  1  0.62405357  0.37538945  0.75074897  1
  V  V24  1  0.00053566  0.12660285  0.62698957  1
  V  V25  1  0.75013424  0.49299502  0.24864042  1
  V  V26  1  0.12554684  0.12582587  0.49988568  1
  V  V27  1  0.37709065  0.00302731  0.86932524  1
  V  V28  1  -0.00359225  0.25091745  0.75034702  1
  V  V29  1  0.63162336  0.62547852  -0.00657216  1
  V  V30  1  0.87556231  0.00188109  0.87514378  1
  V  V31  1  0.12622025  0.00160561  0.62475146  1
  V  V32  1  -0.00049801  0.75142305  0.75001186  1
  V  V33  1  0.37395145  0.50089800  0.87376082  1
  V  V34  1  0.12523460  0.37508723  0.25031161  1
  V  V35  1  0.50036677  0.62287988  0.12521608  1
  V  V36  1  0.87267004  0.37220906  0.50317480  1
  V  V37  1  0.75075186  0.00079923  0.74958138  1
  V  V38  1  0.86696002  0.87673059  0.00436846  1
  V  V39  1  0.25066771  0.87610967  0.62360141  1
  V  V40  1  0.49867482  0.37408687  0.87560320  1
  V  V41  1  -0.00034707  0.62499183  0.62542831  1
  V  V42  1  0.25404615  0.12606321  0.87108398  1
  V  V43  1  -0.00028218  0.37473692  0.37618674  1
  V  V44  1  0.25277652  0.00385371  0.74916145  1
  V  V45  1  0.86856686  0.75344262  0.12503119  1
  V  V46  1  0.12598368  -0.00107947  0.12520537  1
  V  V47  1  0.50152728  0.74863497  0.24889892  1
  V  V48  1  0.25028589  -0.00162545  0.24712790  1
  V  V49  1  0.00059263  0.87736005  0.87556020  1
  V  V50  1  0.87577478  0.87547567  0.50009025  1
  V  V51  1  0.24944361  0.37495657  0.12541318  1
  V  V52  1  0.62897647  0.49337324  0.12546253  1
  V  V53  1  0.87410307  0.75107464  0.62534088  1
  V  V54  1  0.24977502  0.49886664  0.24965122  1
  V  V55  1  0.12496109  0.62619024  -0.00008719  1
  V  V56  1  0.37441774  0.75198463  0.12150587  1
  V  V57  1  0.62163470  0.36665513  0.25000602  1
  V  V58  1  0.50082956  0.75049288  0.74845830  1
  V  V59  1  0.62443652  0.25048473  0.87555339  1
  V  V60  1  0.37328760  0.37437740  0.50180788  1
  V  V61  1  0.87432880  0.12529436  0.25028102  1
  V  V62  1  -0.00022007  0.00029126  0.49975869  1
  V  V63  1  0.50105635  -0.00075807  -0.00154262  1
  V  V64  1  0.37433657  0.62458085  0.74940124  1
  V  V65  1  -0.00085147  0.62631616  0.12745692  1
  V  V66  1  0.75069145  0.87638853  0.62469244  1
  V  V67  1  0.75068582  0.12589924  0.87403019  1
  V  V68  1  0.87579224  -0.00091868  0.37529685  1
  V  V69  1  -0.00141828  0.37591784  0.87781176  1
  V  V70  1  0.62612345  0.87637654  0.74770973  1
  V  V71  1  0.12471102  0.37959442  0.74989593  1
  V  V72  1  0.50160413  0.87269192  0.37441155  1
  V  V73  1  0.24952784  0.12518230  0.37417685  1
  V  V74  1  0.87346698  0.49991996  0.37546502  1
  V  V75  1  0.62653793  0.74704893  0.37231307  1
  V  V76  1  0.12603352  0.12574592  0.00034409  1
  V  V77  1  0.50155651  0.87539435  0.87348097  1
  V  V78  1  0.62536862  0.12507305  0.00085154  1
  V  V79  1  0.50757493  0.00539837  0.49995264  1
  V  V80  1  0.74252380  0.12474017  0.37890389  1
  V  V81  1  0.86904445  0.37608064  0.00590277  1
  V  V82  1  0.12479179  0.62535408  0.50023275  1
  V  V83  1  0.62415075  0.49949993  0.62420199  1
  V  V84  1  0.49889209  0.36719373  0.37053077  1
  V  V85  1  -0.00134724  0.25017969  0.25072573  1
  V  V86  1  0.00021403  0.12616710  0.12495702  1
  V  V87  1  0.74949469  0.62256083  0.37397386  1
  V  V88  1  0.37878871  0.24947667  0.12677133  1
  V  V89  1  0.12593722  0.75079981  0.87572727  1
  V  V90  1  0.37429002  0.24338759  0.62898136  1
  V  V91  1  0.24953197  0.75011636  0.49863640  1
  V  V92  1  0.74957583  0.25220174  0.00350694  1
  Zn  Zn93  1  0.37442050  0.87520364  -0.00106540  1
  Zn  Zn94  1  0.12346466  0.49979292  0.12371001  1
  Zn  Zn95  1  0.25129355  0.75271073  -0.00208942  1
  Zn  Zn96  1  0.12727950  0.50082476  0.62558414  1
  Zn  Zn97  1  -0.00092818  0.50019291  0.00222832  1
  Zn  Zn98  1  0.87497634  0.62637589  0.25044534  1
  Zn  Zn99  1  0.12310283  0.87124263  0.25006916  1
  Zn  Zn100  1  0.24813780  0.87355267  0.12221984  1
  Zn  Zn101  1  0.24829691  0.50208397  0.74954586  1
  Zn  Zn102  1  0.37611628  0.00057158  0.37280010  1
  Zn  Zn103  1  0.87420883  0.12612416  0.74984733  1
  Zn  Zn104  1  0.63399283  0.74547405  0.86908943  1
  Zn  Zn105  1  0.87086665  0.24759753  0.62586549  1
  Zn  Zn106  1  0.49931926  0.49911582  0.49951511  1
  Zn  Zn107  1  0.37459918  0.74811555  0.62489318  1
  Zn  Zn108  1  0.24924278  0.37576633  0.62685544  1
  Zn  Zn109  1  0.49899641  0.62565868  0.62291050  1
  Zn  Zn110  1  0.00257208  0.87261309  0.37334140  1
  Zn  Zn111  1  0.63112297  0.00799560  0.61967686  1
  Zn  Zn112  1  0.74858586  0.37099277  0.62661788  1
  Zn  Zn113  1  0.12564503  0.25099540  0.87614614  1
  Zn  Zn114  1  0.12241263  0.75197171  0.37189578  1
  Zn  Zn115  1  0.25019772  0.62659083  0.87557407  1
  Zn  Zn116  1  0.75333203  0.74657719  -0.00559759  1
  Zn  Zn117  1  0.00046209  0.75276775  0.25231893  1
  Zn  Zn118  1  0.24909210  0.24929120  0.50355419  1
  Zn  Zn119  1  0.75060589  0.75123994  0.49833437  1
  Zn  Zn120  1  0.61838059  0.24373784  0.37424327  1
  Zn  Zn121  1  0.50400302  0.12663531  0.62169251  1
  Zn  Zn122  1  0.18911443  0.18706606  0.18812335  1
  Zn  Zn123  1  0.18625674  0.19229221  0.68899489  1
  Zn  Zn124  1  0.18702486  0.68779472  0.18796443  1
  Zn  Zn125  1  0.18818350  0.68924511  0.68551311  1
  Zn  Zn126  1  0.68994439  0.18390322  0.18691893  1
  Zn  Zn127  1  0.68360402  0.18520993  0.68478093  1
  Zn  Zn128  1  0.68959106  0.68205468  0.18397958  1
  Zn  Zn129  1  0.68837204  0.68810504  0.68580656  1
  Zn  Zn130  1  0.31131389  0.31039787  0.31337103  1
  Zn  Zn131  1  0.31201884  0.31251873  0.81277696  1
  Zn  Zn132  1  0.31239858  0.81185945  0.31189096  1
  Zn  Zn133  1  0.31278424  0.81368117  0.81341037  1
  Zn  Zn134  1  0.80993706  0.31148686  0.31555746  1
  Zn  Zn135  1  0.81042949  0.31670280  0.81568701  1
  Zn  Zn136  1  0.81557312  0.81130326  0.31240723  1
  Zn  Zn137  1  0.81047157  0.81343821  0.81649779  1
  Zn  Zn138  1  0.18745195  0.43889545  0.43806028  1
  Zn  Zn139  1  0.18802259  0.44185535  0.93605091  1
  Zn  Zn140  1  0.18702438  0.93799862  0.43374920  1
  Zn  Zn141  1  0.19057987  0.93655231  0.93954774  1
  Zn  Zn142  1  0.68638536  0.43413267  0.43569953  1
  Zn  Zn143  1  0.68754908  0.43783283  0.93730282  1
  Zn  Zn144  1  0.68974117  0.93459751  0.43335983  1
  Zn  Zn145  1  0.68669430  0.93713787  0.93327948  1
  Zn  Zn146  1  0.31449621  0.06214850  0.06022265  1
  Zn  Zn147  1  0.31513644  0.06243358  0.56020334  1
  Zn  Zn148  1  0.31017339  0.56365061  0.06239356  1
  Zn  Zn149  1  0.30989909  0.55989289  0.56596962  1
  Zn  Zn150  1  0.81306582  0.06514337  0.06211697  1
  Zn  Zn151  1  0.81439912  0.06449542  0.56348614  1
  Zn  Zn152  1  0.81270907  0.56217006  0.06639587  1
  Zn  Zn153  1  0.81087346  0.56233992  0.56471555  1
  Zn  Zn154  1  0.43885428  0.43612158  0.18792757  1
  Zn  Zn155  1  0.43848199  0.43495407  0.68732826  1
  Zn  Zn156  1  0.43987454  0.93812313  0.18678072  1
  Zn  Zn157  1  0.43799351  0.93794672  0.68525935  1
  Zn  Zn158  1  0.93913924  0.43948517  0.18795053  1
  Zn  Zn159  1  0.93656664  0.43948104  0.68791070  1
  Zn  Zn160  1  0.93936741  0.93599188  0.18800963  1
  Zn  Zn161  1  0.93717547  0.93894104  0.68709122  1
  Zn  Zn162  1  0.06298892  0.06097836  0.31264032  1
  Zn  Zn163  1  0.06577943  0.06436379  0.81325556  1
  Zn  Zn164  1  0.06296023  0.56328828  0.31312053  1
  Zn  Zn165  1  0.05868316  0.56353077  0.81488413  1
  Zn  Zn166  1  0.56229846  0.05771461  0.31236613  1
  Zn  Zn167  1  0.56625431  0.06239727  0.81080713  1
  Zn  Zn168  1  0.56110250  0.55700151  0.31258949  1
  Zn  Zn169  1  0.55872640  0.56188120  0.81211150  1
  Zn  Zn170  1  0.43306498  0.18854180  0.43752810  1
  Zn  Zn171  1  0.43717662  0.18666751  0.93974960  1
  Zn  Zn172  1  0.43782256  0.68723766  0.43646833  1
  Zn  Zn173  1  0.44296986  0.68627031  0.93577241  1
  Zn  Zn174  1  0.93446215  0.18576975  0.43817711  1
  Zn  Zn175  1  0.93618406  0.18905099  0.93810064  1
  Zn  Zn176  1  0.93740412  0.68836886  0.43726671  1
  Zn  Zn177  1  0.94022701  0.69088752  0.94051754  1
  Zn  Zn178  1  0.06152879  0.31203175  0.06342441  1
  Zn  Zn179  1  0.06168064  0.31241898  0.56461875  1
  Zn  Zn180  1  0.05941217  0.81297063  0.06483117  1
  Zn  Zn181  1  0.06280101  0.81245630  0.56045437  1
  Zn  Zn182  1  0.56118479  0.31126264  0.06351800  1
  Zn  Zn183  1  0.55841223  0.31366468  0.56352767  1
  Zn  Zn184  1  0.56146397  0.81214703  0.06173580  1
  Zn  Zn185  1  0.56463839  0.81391484  0.56305165  1
  O  O186  1  0.11940153  0.12111213  0.11953769  1
  O  O187  1  0.12082274  0.12125016  0.62054391  1
  O  O188  1  0.11663276  0.62524095  0.11618303  1
  O  O189  1  0.11707881  0.62465846  0.61943122  1
  O  O190  1  0.62010016  0.11822610  0.11992573  1
  O  O191  1  0.61651835  0.11944977  0.62660749  1
  O  O192  1  0.61911900  0.61190952  0.11799018  1
  O  O193  1  0.62545967  0.61686189  0.61565884  1
  O  O194  1  0.38028450  0.37720874  0.38045677  1
  O  O195  1  0.37925516  0.38027990  0.88145507  1
  O  O196  1  0.38203727  0.87473952  0.38351039  1
  O  O197  1  0.38274009  0.88557743  0.87516605  1
  O  O198  1  0.87992074  0.37930400  0.38447016  1
  O  O199  1  0.88157033  0.38384421  0.88372902  1
  O  O200  1  0.87461895  0.88271481  0.38313884  1
  O  O201  1  0.88246003  0.88270263  0.88339732  1
  O  O202  1  0.25238901  0.00756912  0.36409035  1
  O  O203  1  0.25805672  0.00716113  0.87024540  1
  O  O204  1  0.25667263  0.50461347  0.36921324  1
  O  O205  1  0.25911668  0.50494531  0.87035848  1
  O  O206  1  0.75468926  0.00746002  0.36711517  1
  O  O207  1  0.75586383  0.00665977  0.86949046  1
  O  O208  1  0.75350548  0.50335055  0.36825035  1
  O  O209  1  0.75960317  0.49451837  0.86527561  1
  O  O210  1  0.24893650  0.49245907  0.13180663  1
  O  O211  1  0.24528940  0.49348606  0.63234092  1
  O  O212  1  0.24516461  1.00245034  0.13218229  1
  O  O213  1  0.24625929  0.99692406  0.62949467  1
  O  O214  1  0.73928550  0.50254240  0.13562649  1
  O  O215  1  0.73998623  0.49719351  0.63442583  1
  O  O216  1  0.74449589  1.00909167  0.13770750  1
  O  O217  1  0.75221778  0.99411399  0.63134124  1
  O  O218  1  0.00443430  0.36976872  0.25656646  1
  O  O219  1  0.00344244  0.37038982  0.75860474  1
  O  O220  1  0.00332721  0.87373681  0.25429408  1
  O  O221  1  0.00620761  0.87140227  0.75489423  1
  O  O222  1  0.50849344  0.37851508  0.25928522  1
  O  O223  1  0.50540468  0.36725717  0.75755896  1
  O  O224  1  0.50681677  0.86876057  0.25526515  1
  O  O225  1  0.50469016  0.86860638  0.75283039  1
  O  O226  1  0.48824841  0.11580423  0.24418839  1
  O  O227  1  0.50069072  0.14032064  0.75510000  1
  O  O228  1  0.49523524  0.62834506  0.24558108  1
  O  O229  1  0.49293934  0.63411058  0.74928147  1
  O  O230  1  0.99410330  0.13073020  0.24523121  1
  O  O231  1  1.00150603  0.13625312  0.74783667  1
  O  O232  1  0.99728079  0.62346519  0.23833123  1
  O  O233  1  0.99287097  0.63202790  0.74562085  1
  O  O234  1  0.36892208  0.25615848  0.00573630  1
  O  O235  1  0.37370712  0.25895896  0.50906404  1
  O  O236  1  0.37856635  0.74810465  0.01044102  1
  O  O237  1  0.37157092  0.75989851  0.50096394  1
  O  O238  1  0.87006079  0.25829424  0.00472081  1
  O  O239  1  0.86691284  0.25945181  0.49976787  1
  O  O240  1  0.87617914  0.76073772  0.00609139  1
  O  O241  1  0.87259295  0.75630681  0.50815490  1
  O  O242  1  0.12514599  0.24416661  0.49455773  1
  O  O243  1  0.13144052  0.24434611  0.99906392  1
  O  O244  1  0.13268348  0.74278379  0.49952152  1
  O  O245  1  0.12295636  0.74186136  0.99430861  1
  O  O246  1  0.63747938  0.25907621  0.49693602  1
  O  O247  1  0.62934939  0.24560021  0.99523640  1
  O  O248  1  0.62613290  0.74036820  0.49292887  1
  O  O249  1  0.62375219  0.73214455  1.00364301  1
  O  O250  1  0.49153418  0.23995004  0.11842465  1
  O  O251  1  0.49265988  0.25050174  0.63467008  1
  O  O252  1  0.49362059  0.74278123  0.13048189  1
  O  O253  1  0.49853642  0.74979119  0.63692998  1
  O  O254  1  0.99301814  0.24510783  0.13163168  1
  O  O255  1  0.99805283  0.24542922  0.63566014  1
  O  O256  1  0.98955378  0.73996120  0.12487190  1
  O  O257  1  0.99397795  0.74556695  0.63109569  1
  O  O258  1  0.00379378  0.25451013  0.36999755  1
  O  O259  1  -0.00079738  0.26069513  0.86875888  1
  O  O260  1  0.00198921  0.75188902  0.37207914  1
  O  O261  1  0.00525500  0.75792889  0.86860837  1
  O  O262  1  0.50101337  0.26216989  0.38019604  1
  O  O263  1  0.50342012  0.25511638  0.87073607  1
  O  O264  1  0.50688698  0.75256599  0.36758328  1
  O  O265  1  0.50454539  0.75580965  0.86313921  1
  O  O266  1  0.24347722  0.12494881  0.49235073  1
  O  O267  1  0.24570604  0.12995274  0.99218835  1
  O  O268  1  0.24607046  0.62986182  0.49582506  1
  O  O269  1  0.23759487  0.62881533  0.99905046  1
  O  O270  1  0.75734240  0.13408600  0.48927912  1
  O  O271  1  0.74418732  0.13092110  0.99365501  1
  O  O272  1  0.73892966  0.62423813  0.49389018  1
  O  O273  1  0.73303828  0.61885563  1.00383615  1
  O  O274  1  0.25442818  0.37060063  0.00465056  1
  O  O275  1  0.26226123  0.37265429  0.49892728  1
  O  O276  1  0.25651241  0.87095430  0.00440297  1
  O  O277  1  0.25869942  0.87217401  0.50326839  1
  O  O278  1  0.76159929  0.36884148  -0.00624050  1
  O  O279  1  0.75871929  0.36696127  0.49889739  1
  O  O280  1  0.76485237  0.88001775  -0.00276100  1
  O  O281  1  0.75729957  0.87453746  0.50610240  1
  O  O282  1  0.13205455  0.49213295  0.24982238  1
  O  O283  1  0.12164668  0.49057357  0.75120236  1
  O  O284  1  0.13658468  1.00493976  0.24242380  1
  O  O285  1  0.13148530  0.99524578  0.74406889  1
  O  O286  1  0.63042623  0.49123093  0.24317964  1
  O  O287  1  0.63055036  0.49752285  0.74501825  1
  O  O288  1  0.63304030  0.99326598  0.24445862  1
  O  O289  1  0.63321861  0.99253950  0.74932741  1
  O  O290  1  0.36732853  0.00972410  0.24867516  1
  O  O291  1  0.37056277  -0.00294049  0.76115698  1
  O  O292  1  0.36980304  0.50436748  0.25464264  1
  O  O293  1  0.37901078  0.50920989  0.75557552  1
  O  O294  1  0.86743935  0.00530685  0.25348314  1
  O  O295  1  0.86958065  0.00113268  0.75817310  1
  O  O296  1  0.86495167  0.49784828  0.25610759  1
  O  O297  1  0.86742808  0.50488549  0.75791824  1
  O  O298  1  0.11892461  0.36945472  0.37068205  1
  O  O299  1  0.11280812  0.37576095  0.87066219  1
  O  O300  1  0.12244723  0.87239290  0.37108772  1
  O  O301  1  0.12001298  0.87229787  0.86921967  1
  O  O302  1  0.61494023  0.37420675  0.36674030  1
  O  O303  1  0.61848914  0.37004799  0.87148662  1
  O  O304  1  0.62135023  0.86591093  0.36615599  1
  O  O305  1  0.61715870  0.87458839  0.86592922  1
  O  O306  1  0.38052552  0.12926778  0.13079455  1
  O  O307  1  0.38080525  0.13932329  0.61737133  1
  O  O308  1  0.38074934  0.63068704  0.13022042  1
  O  O309  1  0.37914912  0.62624396  0.63505376  1
  O  O310  1  0.88165996  0.13168017  0.13058202  1
  O  O311  1  0.88525947  0.12779015  0.62996689  1
  O  O312  1  0.88373482  0.63230812  0.12364009  1
  O  O313  1  0.87927515  0.63074196  0.63210414  1
  O  O314  1  0.25683869  0.25521177  0.11953217  1
  O  O315  1  0.25952231  0.25469505  0.62533574  1
  O  O316  1  0.26457862  0.74947448  0.12484748  1
  O  O317  1  0.25242790  0.75878546  0.61741922  1
  O  O318  1  0.75905931  0.24258360  0.11613017  1
  O  O319  1  0.75202645  0.25154853  0.61602576  1
  O  O320  1  0.76389583  0.74051216  0.11707394  1
  O  O321  1  0.75716476  0.75762040  0.62393166  1
  O  O322  1  0.24147661  0.24257250  0.37625812  1
  O  O323  1  0.25030035  0.24137802  0.88125145  1
  O  O324  1  0.25178837  0.74170893  0.38175051  1
  O  O325  1  0.24134003  0.74800842  0.87619451  1
  O  O326  1  0.74796920  0.24045850  0.38248793  1
  O  O327  1  0.74375845  0.24612836  0.88142974  1
  O  O328  1  0.74354653  0.74100356  0.37427481  1
  O  O329  1  0.74569163  0.75135873  0.88148928  1
  O  O330  1  0.00504784  0.12173820  0.00486109  1
  O  O331  1  0.00535230  0.12053103  0.50634788  1
  O  O332  1  0.00818148  0.62408352  0.00846290  1
  O  O333  1  0.00401908  0.61934755  0.50629108  1
  O  O334  1  0.50710314  0.11890378  0.00481973  1
  O  O335  1  0.49415974  0.10684317  0.49297264  1
  O  O336  1  0.50922888  0.61673233  0.00603259  1
  O  O337  1  0.51208802  0.62191917  0.50008090  1
  O  O338  1  0.48915770  0.37698870  0.49149600  1
  O  O339  1  0.49337347  0.37943578  0.99498948  1
  O  O340  1  0.49287298  0.87948618  0.49476958  1
  O  O341  1  0.50073016  0.88187903  0.99101561  1
  O  O342  1  0.99173589  0.37891963  0.49554848  1
  O  O343  1  0.99046146  0.37472535  0.99194319  1
  O  O344  1  0.99304625  0.88402486  0.50169460  1
  O  O345  1  0.99318955  0.88337382  0.99390127  1
  O  O346  1  0.49248785  0.48825756  0.37659129  1
  O  O347  1  0.49410513  0.49266450  0.88077478  1
  O  O348  1  0.49862343  0.99098526  0.38384944  1
  O  O349  1  0.49382390  0.99736902  0.87720873  1
  O  O350  1  0.99348441  0.49409962  0.38124548  1
  O  O351  1  0.98809832  0.49014221  0.87629970  1
  O  O352  1  0.99218975  1.00271466  0.38291153  1
  O  O353  1  0.99632134  0.99733280  0.88024984  1
  O  O354  1  0.00506464  0.00835856  0.11922848  1
  O  O355  1  0.00715659  0.00660495  0.62108656  1
  O  O356  1  0.00141214  0.51081239  0.12212797  1
  O  O357  1  -0.00042032  0.50783082  0.61932296  1
  O  O358  1  0.50655250  0.00665833  0.11814514  1
  O  O359  1  0.49834257  -0.00022857  0.60836733  1
  O  O360  1  0.50740699  0.50361475  0.12015153  1
  O  O361  1  0.51399496  0.50160178  0.62456771  1
  O  O362  1  0.24505988  0.37887096  0.24526048  1
  O  O363  1  0.23434242  0.37452001  0.75424685  1
  O  O364  1  0.25321584  0.88930574  0.24680600  1
  O  O365  1  0.24521464  0.88259400  0.74397770  1
  O  O366  1  0.73974806  0.38648624  0.25904278  1
  O  O367  1  0.74331843  0.38599415  0.74918524  1
  O  O368  1  0.74545231  0.88835934  0.25623138  1
  O  O369  1  0.74608494  0.88126569  0.74414897  1
  O  O370  1  0.25860718  0.11711701  0.25316758  1
  O  O371  1  0.24208637  0.12056421  0.76317564  1
  O  O372  1  0.25642965  0.61799119  0.25532386  1
  O  O373  1  0.26311218  0.62695530  0.75129843  1
  O  O374  1  0.75573307  0.11635226  0.25839307  1
  O  O375  1  0.75169731  0.12042781  0.75773487  1
  O  O376  1  0.74893932  0.61010121  0.25614466  1
  O  O377  1  0.75529363  0.61256294  0.74577035  1
  O  O378  1  0.36905415  0.12460308  0.36486445  1
  O  O379  1  0.36449171  0.11612485  0.88103613  1
  O  O380  1  0.37055989  0.61888390  0.36966994  1
  O  O381  1  0.37720646  0.61948490  0.86584135  1
  O  O382  1  0.86641498  0.11916241  0.36869378  1
  O  O383  1  0.86886547  0.11970282  0.87475787  1
  O  O384  1  0.86743042  0.61648566  0.37490937  1
  O  O385  1  0.88392758  0.61281434  0.87174850  1
  O  O386  1  0.13081782  0.37525353  0.13202260  1
  O  O387  1  0.12309693  0.37695925  0.63759145  1
  O  O388  1  0.12663062  0.88518244  0.12637883  1
  O  O389  1  0.13094193  0.88198909  0.62965568  1
  O  O390  1  0.61619351  0.38617944  0.13300870  1
  O  O391  1  0.62482726  0.38474835  0.63126630  1
  O  O392  1  0.61890817  0.88283310  0.13189007  1
  O  O393  1  0.63299513  0.87951133  0.63032307  1
  O  O394  1  0.11856309  0.25468928  0.25569288  1
  O  O395  1  0.11243704  0.26034648  0.75444814  1
  O  O396  1  0.12244949  0.75211640  0.25236136  1
  O  O397  1  0.11904706  0.75684602  0.75436185  1
  O  O398  1  0.63386021  0.26381807  0.24964581  1
  O  O399  1  0.61660761  0.25649963  0.75694477  1
  O  O400  1  0.62117739  0.75166899  0.25128931  1
  O  O401  1  0.61634749  0.75500888  0.74850638  1
  O  O402  1  0.36777883  0.23667852  0.24266662  1
  O  O403  1  0.38441443  0.25934118  0.74078754  1
  O  O404  1  0.38181738  0.74357841  0.24263026  1
  O  O405  1  0.38421601  0.74307223  0.75004379  1
  O  O406  1  0.87893263  0.24652304  0.24628040  1
  O  O407  1  0.88615288  0.25331901  0.75081180  1
  O  O408  1  0.87521539  0.74671285  0.23833533  1
  O  O409  1  0.88053905  0.74680344  0.74607402  1
  O  O410  1  0.37579782  0.49097087  0.49456841  1
  O  O411  1  0.37981377  0.49535024  0.99534956  1
  O  O412  1  0.38314896  0.98826878  0.49628055  1
  O  O413  1  0.38326166  0.99971253  0.98850029  1
  O  O414  1  0.87786752  0.49144054  0.49596675  1
  O  O415  1  0.87297989  0.49270309  0.99344074  1
  O  O416  1  0.88064737  0.99570957  0.49521990  1
  O  O417  1  0.88116830  0.99585934  0.99629216  1
  O  O418  1  0.12017122  0.00643984  0.00504158  1
  O  O419  1  0.12060342  0.00652027  0.50629725  1
  O  O420  1  0.12149535  0.51170584  0.00086580  1
  O  O421  1  0.11671950  0.50590935  0.50132416  1
  O  O422  1  0.62130061  0.00570974  0.00347782  1
  O  O423  1  0.60984376  -0.00892687  0.49733877  1
  O  O424  1  0.62067296  0.50403896  0.00720356  1
  O  O425  1  0.62593021  0.50596337  0.50767448  1
  O  O426  1  0.37000093  0.37014217  0.11996031  1
  O  O427  1  0.37628616  0.36753533  0.61558239  1
  O  O428  1  0.37838536  0.86245867  0.12375590  1
  O  O429  1  0.36901541  0.87435526  0.61463919  1
  O  O430  1  0.88228428  0.37029447  0.11290605  1
  O  O431  1  0.87341327  0.37465362  0.61320415  1
  O  O432  1  0.88241983  0.86603755  0.11436870  1
  O  O433  1  0.87055656  0.87040377  0.62032898  1
  O  O434  1  0.12893112  0.13025680  0.38041528  1
  O  O435  1  0.13609202  0.12607561  0.88287438  1
  O  O436  1  0.13324503  0.62385051  0.38325270  1
  O  O437  1  0.12200900  0.63201826  0.88355546  1
  O  O438  1  0.63802157  0.12590649  0.36680283  1
  O  O439  1  0.63062156  0.13115744  0.88181103  1
  O  O440  1  0.62850169  0.62627913  0.38117674  1
  O  O441  1  0.61867871  0.62158280  0.89099830  1
