# generated using pymatgen
data_V93Zn93O256
_symmetry_space_group_name_H-M   'P 1'
_cell_length_a   17.05399458
_cell_length_b   17.05317366
_cell_length_c   17.05079665
_cell_angle_alpha   90.01759139
_cell_angle_beta   90.05463141
_cell_angle_gamma   90.07691612
_symmetry_Int_Tables_number   1
_chemical_formula_structural   V93Zn93O256
_chemical_formula_sum   'V93 Zn93 O256'
_cell_volume   4958.78639531
_cell_formula_units_Z   1
loop_
 _symmetry_equiv_pos_site_id
 _symmetry_equiv_pos_as_xyz
  1  'x, y, z'
loop_
 _atom_site_type_symbol
 _atom_site_label
 _atom_site_symmetry_multiplicity
 _atom_site_fract_x
 _atom_site_fract_y
 _atom_site_fract_z
 _atom_site_occupancy
  V  V0  1  0.37556294  0.62505527  0.25081776  1
  V  V1  1  0.12102899  0.87293607  0.74779910  1
  V  V2  1  0.25630559  0.36961459  0.62242736  1
  V  V3  1  0.00259229  0.50014081  0.50309521  1
  V  V4  1  0.00145722  0.62836076  0.62882358  1
  V  V5  1  0.50010938  0.63038813  0.63200165  1
  V  V6  1  0.87482840  0.12533211  0.75065662  1
  V  V7  1  0.24945446  -0.00005692  0.24894364  1
  V  V8  1  0.74831286  0.87535578  0.62802874  1
  V  V9  1  0.37973857  0.75223654  0.63110257  1
  V  V10  1  0.87810589  0.62903182  0.75116727  1
  V  V11  1  0.50010271  0.74881139  0.24929070  1
  V  V12  1  0.36687359  0.62282390  0.74924965  1
  V  V13  1  0.87457412  0.24945229  0.12587825  1
  V  V14  1  -0.00100852  -0.00051019  -0.00170432  1
  V  V15  1  0.49277560  0.13087062  0.61988447  1
  V  V16  1  0.00095340  0.87482699  0.37608272  1
  V  V17  1  0.49977660  0.37554117  0.87205571  1
  V  V18  1  0.37559305  0.49943368  0.37766340  1
  V  V19  1  0.62322974  0.12405525  -0.00142716  1
  V  V20  1  0.74918287  0.49866057  0.25099113  1
  V  V21  1  0.62504941  0.24573749  0.37500667  1
  V  V22  1  0.74947392  -0.00072898  0.24948256  1
  V  V23  1  0.25102327  0.49951483  0.25091148  1
  V  V24  1  0.37402612  0.87334644  -0.00053344  1
  V  V25  1  0.37205568  0.00265493  0.87154520  1
  V  V26  1  -0.00046538  0.37552355  0.87426145  1
  V  V27  1  0.87587716  0.37511119  0.50116027  1
  V  V28  1  0.62238484  0.25107431  0.87244816  1
  V  V29  1  0.00188587  0.62472064  0.12558169  1
  V  V30  1  0.62543360  0.00912187  0.61881969  1
  V  V31  1  0.62443785  0.62512500  0.50106496  1
  V  V32  1  0.25206485  0.75005783  0.50127303  1
  V  V33  1  0.49983528  0.50105524  0.00011097  1
  V  V34  1  0.87545682  0.49992157  0.37700089  1
  V  V35  1  0.75026386  0.37488123  0.12588803  1
  V  V36  1  0.49880106  0.87141395  0.86659403  1
  V  V37  1  0.75097938  0.74912184  0.50052528  1
  V  V38  1  0.74829430  0.12383512  0.37744970  1
  V  V39  1  0.62463812  0.50036988  0.62609901  1
  V  V40  1  0.87396117  0.50074516  0.87551924  1
  V  V41  1  0.12488753  0.37387924  0.25178325  1
  V  V42  1  0.36596706  0.50134124  0.87071443  1
  V  V43  1  0.75012564  0.25043030  0.00063683  1
  V  V44  1  0.74901983  0.62443569  0.87436641  1
  V  V45  1  0.62536683  0.74980616  0.37428352  1
  V  V46  1  0.24968810  0.87363753  0.12359723  1
  V  V47  1  0.12608829  0.62407899  0.50193946  1
  V  V48  1  0.13078351  0.38295645  0.74901180  1
  V  V49  1  0.12803356  0.13087096  0.50002696  1
  V  V50  1  0.37569846  -0.00166896  0.37607000  1
  V  V51  1  0.12482164  0.87455984  0.25086892  1
  V  V52  1  -0.00080460  0.12494153  0.12606491  1
  V  V53  1  0.62462372  -0.00005836  0.12371624  1
  V  V54  1  -0.00319243  0.87003690  0.86964869  1
  V  V55  1  0.24960534  0.37613624  0.12574030  1
  V  V56  1  0.24735259  0.24866483  -0.00272450  1
  V  V57  1  0.12491090  0.12517776  -0.00007458  1
  V  V58  1  0.12616864  0.75087686  0.37563980  1
  V  V59  1  0.61974386  0.75049538  0.86726476  1
  V  V60  1  0.49979699  0.87550011  0.37438466  1
  V  V61  1  0.37570354  0.24950454  0.12397670  1
  V  V62  1  0.87556094  -0.00087241  0.37534102  1
  V  V63  1  0.87302263  -0.00011142  0.87458656  1
  V  V64  1  0.87563053  0.62464786  0.25176419  1
  V  V65  1  0.37706988  0.12642636  0.24777528  1
  V  V66  1  0.74879379  0.75010768  0.00010821  1
  V  V67  1  0.00007690  0.49966587  0.00152002  1
  V  V68  1  0.75060458  0.62391597  0.37688156  1
  V  V69  1  0.49824428  0.49994550  0.50136169  1
  V  V70  1  0.62354370  0.62496787  -0.00063108  1
  V  V71  1  0.37485024  0.74972619  0.12492681  1
  V  V72  1  0.87397938  0.75113314  0.12441157  1
  V  V73  1  0.87757576  0.75044018  0.62781397  1
  V  V74  1  0.74874532  0.12467923  0.87347283  1
  V  V75  1  0.12415516  0.74987358  0.87408579  1
  V  V76  1  0.74910194  0.37590260  0.62571309  1
  V  V77  1  0.50002236  0.00016281  -0.00180635  1
  V  V78  1  0.74745197  0.24450712  0.50001144  1
  V  V79  1  0.00165536  0.37423467  0.37697517  1
  V  V80  1  0.25089456  0.62471028  0.37727933  1
  V  V81  1  0.87689084  0.87522982  0.50030249  1
  V  V82  1  0.87536636  0.12475098  0.25039784  1
  V  V83  1  0.37357326  0.37632635  -0.00075122  1
  V  V84  1  0.62600304  0.87476501  0.24815227  1
  V  V85  1  0.12408308  -0.00090627  0.12461451  1
  V  V86  1  0.37273788  0.35980673  0.50273174  1
  V  V87  1  0.62511953  0.49987598  0.12483409  1
  V  V88  1  0.50026937  0.37351040  0.37559745  1
  V  V89  1  0.25052192  0.87797361  0.62527365  1
  V  V90  1  0.25002794  0.13198647  0.37874886  1
  V  V91  1  0.00071053  0.12379281  0.62384718  1
  V  V92  1  0.00103775  0.25148266  0.75007983  1
  Zn  Zn93  1  0.12360985  0.24867400  0.87461953  1
  Zn  Zn94  1  0.12678357  0.50162887  0.12487121  1
  Zn  Zn95  1  0.24810222  0.00413379  0.74909647  1
  Zn  Zn96  1  0.49277934  0.25141774  0.74084747  1
  Zn  Zn97  1  0.74649288  0.00105252  0.75089664  1
  Zn  Zn98  1  0.62375775  0.37663222  0.74895451  1
  Zn  Zn99  1  0.62304772  0.37480882  0.25003102  1
  Zn  Zn100  1  0.00163205  0.00096258  0.49985256  1
  Zn  Zn101  1  0.75032654  0.87577175  0.12307802  1
  Zn  Zn102  1  0.50803865  0.00229497  0.49456975  1
  Zn  Zn103  1  0.61924263  0.87353272  0.74523002  1
  Zn  Zn104  1  0.74890756  0.49837034  0.75174706  1
  Zn  Zn105  1  0.49907696  0.62417717  0.12479997  1
  Zn  Zn106  1  0.13697187  0.50613296  0.63226491  1
  Zn  Zn107  1  0.50308506  0.25168521  0.24638093  1
  Zn  Zn108  1  0.12756940  0.62610957  -0.00066779  1
  Zn  Zn109  1  0.00086644  0.74951153  0.25077896  1
  Zn  Zn110  1  0.00041163  0.24921908  0.25245837  1
  Zn  Zn111  1  0.25020569  0.74612883  -0.00129478  1
  Zn  Zn112  1  0.36665024  0.13294761  0.74256922  1
  Zn  Zn113  1  0.24644409  0.12371545  0.86983727  1
  Zn  Zn114  1  0.50037517  0.12665348  0.12227141  1
  Zn  Zn115  1  0.37789911  0.87566222  0.50185303  1
  Zn  Zn116  1  0.87342360  0.25004695  0.62451168  1
  Zn  Zn117  1  0.12711246  0.25252103  0.37952487  1
  Zn  Zn118  1  0.24566025  0.62391351  0.87361222  1
  Zn  Zn119  1  0.87519707  0.37373470  0.00031991  1
  Zn  Zn120  1  0.12652293  0.00134127  0.62410086  1
  Zn  Zn121  1  0.87334133  0.87549603  -0.00100084  1
  Zn  Zn122  1  0.18858396  0.18805136  0.18753862  1
  Zn  Zn123  1  0.18822814  0.19149201  0.68584260  1
  Zn  Zn124  1  0.18861665  0.68823602  0.18886026  1
  Zn  Zn125  1  0.18815591  0.69266294  0.68893499  1
  Zn  Zn126  1  0.68753007  0.18648669  0.18848590  1
  Zn  Zn127  1  0.68506868  0.18938190  0.68918290  1
  Zn  Zn128  1  0.68771835  0.68511346  0.18722934  1
  Zn  Zn129  1  0.69066703  0.68624233  0.68880247  1
  Zn  Zn130  1  0.31498215  0.31287436  0.31291453  1
  Zn  Zn131  1  0.31205988  0.31254496  0.80860459  1
  Zn  Zn132  1  0.31207241  0.81231118  0.31095294  1
  Zn  Zn133  1  0.30980835  0.81308499  0.81060663  1
  Zn  Zn134  1  0.81284241  0.31248467  0.31240868  1
  Zn  Zn135  1  0.81365466  0.31242156  0.81249275  1
  Zn  Zn136  1  0.81297084  0.81237833  0.31126476  1
  Zn  Zn137  1  0.81038561  0.81009713  0.81286339  1
  Zn  Zn138  1  0.18942523  0.43754159  0.44174590  1
  Zn  Zn139  1  0.18385135  0.43557841  0.93704464  1
  Zn  Zn140  1  0.18733470  0.94218593  0.44004320  1
  Zn  Zn141  1  0.18708090  0.93562442  0.93745874  1
  Zn  Zn142  1  0.68585258  0.43489550  0.43907221  1
  Zn  Zn143  1  0.68807458  0.43711224  0.93978831  1
  Zn  Zn144  1  0.68945611  0.93583535  0.43798269  1
  Zn  Zn145  1  0.68679379  0.93503335  0.93769758  1
  Zn  Zn146  1  0.31248783  0.06108112  0.05967369  1
  Zn  Zn147  1  0.31254249  0.06407127  0.55900314  1
  Zn  Zn148  1  0.31118628  0.56445590  0.06065788  1
  Zn  Zn149  1  0.31167612  0.55583682  0.56588638  1
  Zn  Zn150  1  0.81132733  0.06282905  0.06136383  1
  Zn  Zn151  1  0.81461698  0.06170467  0.56301824  1
  Zn  Zn152  1  0.81208496  0.56300979  0.06219997  1
  Zn  Zn153  1  0.81407864  0.56138973  0.56391672  1
  Zn  Zn154  1  0.43842993  0.43667482  0.18816557  1
  Zn  Zn155  1  0.43481629  0.43980073  0.68732671  1
  Zn  Zn156  1  0.43904591  0.93725637  0.18617899  1
  Zn  Zn157  1  0.43756782  0.94402507  0.68773233  1
  Zn  Zn158  1  0.93647348  0.43646447  0.18911186  1
  Zn  Zn159  1  0.93766678  0.44123909  0.68810360  1
  Zn  Zn160  1  0.93872636  0.93711847  0.18915847  1
  Zn  Zn161  1  0.93587078  0.94018197  0.68916657  1
  Zn  Zn162  1  0.06258738  0.06208386  0.31386866  1
  Zn  Zn163  1  0.06387560  0.05977187  0.81259365  1
  Zn  Zn164  1  0.06357205  0.56115919  0.31409271  1
  Zn  Zn165  1  0.05974609  0.56339128  0.81368880  1
  Zn  Zn166  1  0.56341815  0.06358926  0.31067786  1
  Zn  Zn167  1  0.56033723  0.06011225  0.80430003  1
  Zn  Zn168  1  0.56225728  0.56136457  0.31263842  1
  Zn  Zn169  1  0.56047335  0.56156562  0.81087443  1
  Zn  Zn170  1  0.44344079  0.18253255  0.43721309  1
  Zn  Zn171  1  0.43528709  0.18813970  0.93351605  1
  Zn  Zn172  1  0.43777349  0.68879657  0.44081403  1
  Zn  Zn173  1  0.43697506  0.68698976  0.93644290  1
  Zn  Zn174  1  0.93741795  0.18936445  0.43765038  1
  Zn  Zn175  1  0.93695807  0.18686809  0.93786218  1
  Zn  Zn176  1  0.93975601  0.68849803  0.44054306  1
  Zn  Zn177  1  0.93833477  0.68780714  0.93904316  1
  Zn  Zn178  1  0.06175045  0.31282972  0.06545850  1
  Zn  Zn179  1  0.06720026  0.31287562  0.56620763  1
  Zn  Zn180  1  0.06128092  0.81281503  0.05827246  1
  Zn  Zn181  1  0.06301929  0.81087755  0.56152275  1
  Zn  Zn182  1  0.56204834  0.31316834  0.06090618  1
  Zn  Zn183  1  0.56419483  0.31262082  0.55785221  1
  Zn  Zn184  1  0.56078417  0.81294764  0.05977849  1
  Zn  Zn185  1  0.56255726  0.81546310  0.55903822  1
  O  O186  1  0.11982480  0.11852563  0.12126587  1
  O  O187  1  0.11719839  0.12515438  0.61817308  1
  O  O188  1  0.11275069  0.62387576  0.12631069  1
  O  O189  1  0.11791411  0.62686487  0.62289151  1
  O  O190  1  0.62370724  0.11863325  0.11747832  1
  O  O191  1  0.62301164  0.11207605  0.62611002  1
  O  O192  1  0.62320294  0.61820460  0.11776008  1
  O  O193  1  0.61836861  0.62305163  0.62088911  1
  O  O194  1  0.37897700  0.37989701  0.38340035  1
  O  O195  1  0.38166482  0.38371632  0.87935859  1
  O  O196  1  0.37976061  0.88453112  0.37178799  1
  O  O197  1  0.38087063  0.87996455  0.87835676  1
  O  O198  1  0.88049150  0.38122379  0.38104634  1
  O  O199  1  0.88137244  0.38222530  0.87644373  1
  O  O200  1  0.87992114  0.87861373  0.38025281  1
  O  O201  1  0.88194328  0.87909458  0.87315620  1
  O  O202  1  0.25807642  0.00724362  0.36814002  1
  O  O203  1  0.26001247  -0.00222189  0.87409404  1
  O  O204  1  0.25639204  0.50567405  0.37136192  1
  O  O205  1  0.26339432  0.49915112  0.88006628  1
  O  O206  1  0.75518802  0.00379414  0.36995743  1
  O  O207  1  0.75406881  0.00641717  0.87373559  1
  O  O208  1  0.75520290  0.50473305  0.37278640  1
  O  O209  1  0.75583564  0.50660068  0.87600962  1
  O  O210  1  0.24942714  0.49379533  0.13227321  1
  O  O211  1  0.24945848  0.48455607  0.62630827  1
  O  O212  1  0.24388969  0.99405486  0.12924889  1
  O  O213  1  0.25101610  0.98743068  0.62362591  1
  O  O214  1  0.74571037  0.49573631  0.13052695  1
  O  O215  1  0.74404786  0.49033790  0.62308737  1
  O  O216  1  0.74360047  0.99875375  0.13118797  1
  O  O217  1  0.74124860  0.99283322  0.62424567  1
  O  O218  1  0.00984834  0.37679061  0.25703103  1
  O  O219  1  0.00496121  0.36802689  0.75230897  1
  O  O220  1  0.00738324  0.87278007  0.25738880  1
  O  O221  1  0.00694140  0.88009100  0.75955678  1
  O  O222  1  0.50063644  0.37180426  0.25985257  1
  O  O223  1  0.50042766  0.37457015  0.76157082  1
  O  O224  1  0.50618187  0.86877374  0.25508500  1
  O  O225  1  0.49888532  0.87872361  0.76325337  1
  O  O226  1  0.48670991  0.12673790  0.24807712  1
  O  O227  1  0.49970328  0.12434052  0.73111524  1
  O  O228  1  0.49328581  0.63097510  0.25023613  1
  O  O229  1  0.49137767  0.62281664  0.73663634  1
  O  O230  1  0.99378468  0.12489128  0.24374693  1
  O  O231  1  0.99746518  0.13264367  0.74392930  1
  O  O232  1  0.99448595  0.62430314  0.24190595  1
  O  O233  1  0.98896018  0.62049356  0.74063591  1
  O  O234  1  0.36612452  0.25572353  0.00364847  1
  O  O235  1  0.38104914  0.26161520  0.49435138  1
  O  O236  1  0.37483802  0.75625609  0.00653898  1
  O  O237  1  0.36932281  0.75151369  0.51174331  1
  O  O238  1  0.86780718  0.24961626  0.00704240  1
  O  O239  1  0.86455332  0.25749966  0.50114848  1
  O  O240  1  0.86850973  0.74857687  0.00979217  1
  O  O241  1  0.86939524  0.75499842  0.50679867  1
  O  O242  1  0.12139731  0.23561881  0.49869834  1
  O  O243  1  0.13269207  0.24518111  1.00222935  1
  O  O244  1  0.13248266  0.74350988  0.49504746  1
  O  O245  1  0.12620758  0.74938273  0.98777311  1
  O  O246  1  0.63812993  0.25538324  0.48777204  1
  O  O247  1  0.63034260  0.24490879  0.99129106  1
  O  O248  1  0.63121308  0.74464106  0.49377424  1
  O  O249  1  0.62925724  0.74435097  0.99140454  1
  O  O250  1  0.49171123  0.24762572  0.12508064  1
  O  O251  1  0.51126731  0.23417977  0.62253896  1
  O  O252  1  0.49346586  0.74891164  0.13186757  1
  O  O253  1  0.49151273  0.74165120  0.61725384  1
  O  O254  1  0.99304213  0.24280333  0.12777705  1
  O  O255  1  0.99879508  0.24158612  0.63403226  1
  O  O256  1  0.99169301  0.74079907  0.12449860  1
  O  O257  1  0.99369401  0.73631455  0.61878282  1
  O  O258  1  0.00305084  0.25884990  0.37225631  1
  O  O259  1  -0.00084637  0.25576726  0.86567286  1
  O  O260  1  0.00786056  0.75585679  0.37489040  1
  O  O261  1  0.00682407  0.76190882  0.88005892  1
  O  O262  1  0.51087775  0.25331105  0.37497467  1
  O  O263  1  0.51048726  0.26140751  0.88272632  1
  O  O264  1  0.50576548  0.75445565  0.36990972  1
  O  O265  1  0.50919632  0.75944534  0.88072098  1
  O  O266  1  0.24140591  0.11881550  0.48898082  1
  O  O267  1  0.24355307  0.13471952  1.00147811  1
  O  O268  1  0.24611708  0.62945663  0.49674732  1
  O  O269  1  0.24473348  0.62784141  0.99388120  1
  O  O270  1  0.75812272  0.13731537  0.49465391  1
  O  O271  1  0.74304838  0.13076576  0.99272311  1
  O  O272  1  0.74510885  0.62960421  0.49664313  1
  O  O273  1  0.74367590  0.62991111  0.99351837  1
  O  O274  1  0.25302716  0.36808109  0.00566450  1
  O  O275  1  0.25883459  0.37700683  0.51107933  1
  O  O276  1  0.25617488  0.87289129  0.00741964  1
  O  O277  1  0.25115241  0.86952559  0.50944008  1
  O  O278  1  0.75260120  0.36835512  0.00720361  1
  O  O279  1  0.75522155  0.36752388  0.50789573  1
  O  O280  1  0.75324681  0.86612818  0.00275652  1
  O  O281  1  0.75632717  0.86850682  0.50909964  1
  O  O282  1  0.13222391  0.48977080  0.25100942  1
  O  O283  1  0.11635355  0.48674581  0.75036283  1
  O  O284  1  0.13024837  0.99461610  0.24429292  1
  O  O285  1  0.12686620  0.98617749  0.74694283  1
  O  O286  1  0.63193973  0.49939266  0.24414984  1
  O  O287  1  0.62825743  0.49789584  0.74203097  1
  O  O288  1  0.63001928  0.99478585  0.24436771  1
  O  O289  1  0.62872670  0.99422765  0.73512033  1
  O  O290  1  0.37038119  0.00736484  0.25626603  1
  O  O291  1  0.37246261  0.00395229  0.76133521  1
  O  O292  1  0.37031432  0.50452036  0.25759408  1
  O  O293  1  0.38093421  0.51028453  0.76071306  1
  O  O294  1  0.86916100  0.00446145  0.25529209  1
  O  O295  1  0.87099853  0.00820025  0.75684523  1
  O  O296  1  0.86943583  0.50530329  0.25749992  1
  O  O297  1  0.87294038  0.51086565  0.75704323  1
  O  O298  1  0.12216208  0.37482408  0.36849860  1
  O  O299  1  0.11756443  0.37223076  0.86625413  1
  O  O300  1  0.12201419  0.87098502  0.37116274  1
  O  O301  1  0.11645900  0.87005483  0.86779488  1
  O  O302  1  0.61906584  0.36571491  0.37460533  1
  O  O303  1  0.61694385  0.36857627  0.87585617  1
  O  O304  1  0.62103548  0.86915081  0.36873902  1
  O  O305  1  0.61635542  0.86730676  0.87317308  1
  O  O306  1  0.37368322  0.12880324  0.13371460  1
  O  O307  1  0.38930466  0.11794984  0.62400294  1
  O  O308  1  0.37616870  0.63078269  0.13320313  1
  O  O309  1  0.38123658  0.63119073  0.63046419  1
  O  O310  1  0.87947307  0.12907982  0.13072991  1
  O  O311  1  0.88420880  0.12732759  0.63094007  1
  O  O312  1  0.88225990  0.63205148  0.13046709  1
  O  O313  1  0.88116912  0.62929119  0.63173527  1
  O  O314  1  0.25521609  0.25574556  0.11623070  1
  O  O315  1  0.24689156  0.26944428  0.62645896  1
  O  O316  1  0.25699613  0.75683587  0.12547710  1
  O  O317  1  0.25893543  0.75912184  0.62077819  1
  O  O318  1  0.75430196  0.25430616  0.11996086  1
  O  O319  1  0.74790849  0.25797841  0.61681141  1
  O  O320  1  0.75963900  0.74805642  0.12024081  1
  O  O321  1  0.75542947  0.75699385  0.61981185  1
  O  O322  1  0.24976632  0.23505684  0.36901075  1
  O  O323  1  0.24705661  0.25132068  0.88997070  1
  O  O324  1  0.24649907  0.74462355  0.38081511  1
  O  O325  1  0.23737941  0.75110489  0.87575956  1
  O  O326  1  0.74473737  0.24549279  0.38155463  1
  O  O327  1  0.74116687  0.24663267  0.87953046  1
  O  O328  1  0.74565451  0.74391383  0.38046598  1
  O  O329  1  0.74100014  0.74420493  0.88083843  1
  O  O330  1  0.00502856  0.11950205  0.00614123  1
  O  O331  1  0.00543949  0.12532817  0.50913226  1
  O  O332  1  0.00058263  0.61673189  0.00930805  1
  O  O333  1  0.00593517  0.62018466  0.50855895  1
  O  O334  1  0.50587694  0.11813140  -0.00143057  1
  O  O335  1  0.49983994  0.11859197  0.51338813  1
  O  O336  1  0.50577680  0.61792498  0.00049291  1
  O  O337  1  0.50504446  0.62037956  0.50958376  1
  O  O338  1  0.49204072  0.38067195  0.49641527  1
  O  O339  1  0.49373665  0.38088357  0.99071467  1
  O  O340  1  0.49695176  0.87954993  0.48958775  1
  O  O341  1  0.49385073  0.88097253  0.98965513  1
  O  O342  1  0.99635711  0.37980335  0.49778996  1
  O  O343  1  0.99862066  0.38379313  0.99575363  1
  O  O344  1  0.99430211  0.87626617  0.49479567  1
  O  O345  1  0.99714197  0.88194568  0.98839402  1
  O  O346  1  0.49547073  0.49447196  0.38175468  1
  O  O347  1  0.49379638  0.49186351  0.88015677  1
  O  O348  1  0.49189257  0.99562812  0.37234443  1
  O  O349  1  0.49304184  0.99194600  0.87870568  1
  O  O350  1  0.99456873  0.49511511  0.38260847  1
  O  O351  1  0.99380989  0.49642345  0.88418622  1
  O  O352  1  0.99278761  0.99273753  0.37592987  1
  O  O353  1  0.99332400  0.99165226  0.87902659  1
  O  O354  1  0.00460206  0.00454488  0.11926819  1
  O  O355  1  0.00096395  0.01369900  0.62512723  1
  O  O356  1  -0.00237398  0.50863894  0.11827761  1
  O  O357  1  0.00076352  0.51320877  0.61978818  1
  O  O358  1  0.50627829  0.00149491  0.11690177  1
  O  O359  1  0.51338526  0.00471658  0.62213088  1
  O  O360  1  0.50591967  0.50006848  0.11789960  1
  O  O361  1  0.50433177  0.50941936  0.62015050  1
  O  O362  1  0.24450664  0.37987277  0.24651249  1
  O  O363  1  0.23998469  0.37140725  0.74157336  1
  O  O364  1  0.24428588  0.88077975  0.24415866  1
  O  O365  1  0.24154738  0.87641053  0.73859593  1
  O  O366  1  0.74913828  0.38245761  0.24434970  1
  O  O367  1  0.74898733  0.37475509  0.73719184  1
  O  O368  1  0.74350977  0.88108249  0.24841781  1
  O  O369  1  0.75096561  0.87551904  0.73580350  1
  O  O370  1  0.25818230  0.11928134  0.25599583  1
  O  O371  1  0.24913981  0.12203949  0.75182732  1
  O  O372  1  0.25549609  0.61944943  0.25730307  1
  O  O373  1  0.26295271  0.62795522  0.75033004  1
  O  O374  1  0.75604035  0.11810161  0.25666397  1
  O  O375  1  0.75673623  0.12715378  0.75639123  1
  O  O376  1  0.75577683  0.61888226  0.25755425  1
  O  O377  1  0.76013632  0.62120606  0.75577178  1
  O  O378  1  0.36995247  0.11787325  0.36750462  1
  O  O379  1  0.37112619  0.10947905  0.88056517  1
  O  O380  1  0.37019705  0.62037278  0.37156724  1
  O  O381  1  0.37585551  0.61851258  0.86528591  1
  O  O382  1  0.86966438  0.11898180  0.37006226  1
  O  O383  1  0.86912772  0.11994926  0.87013170  1
  O  O384  1  0.87048021  0.62008572  0.37275042  1
  O  O385  1  0.87110827  0.62233410  0.86855726  1
  O  O386  1  0.13015090  0.37810234  0.13549720  1
  O  O387  1  0.13481039  0.37938886  0.63158604  1
  O  O388  1  0.12826266  0.87964423  0.13004706  1
  O  O389  1  0.13206024  0.87321168  0.63113143  1
  O  O390  1  0.63182417  0.38159461  0.12542836  1
  O  O391  1  0.63323042  0.38067489  0.62399387  1
  O  O392  1  0.62575302  0.88092329  0.13069646  1
  O  O393  1  0.63401450  0.87958255  0.62507360  1
  O  O394  1  0.12546161  0.26353038  0.25165188  1
  O  O395  1  0.11316056  0.25973500  0.75114070  1
  O  O396  1  0.12461748  0.75663990  0.25803741  1
  O  O397  1  0.12759435  0.76393530  0.75849862  1
  O  O398  1  0.62534976  0.25300453  0.26095881  1
  O  O399  1  0.61951835  0.25283818  0.76301960  1
  O  O400  1  0.62089885  0.75359319  0.25530788  1
  O  O401  1  0.63040871  0.75129306  0.76366626  1
  O  O402  1  0.37443547  0.24042863  0.24356041  1
  O  O403  1  0.38599233  0.24009358  0.77264637  1
  O  O404  1  0.38049707  0.74463404  0.24572359  1
  O  O405  1  0.37220237  0.74252590  0.73723767  1
  O  O406  1  0.87525322  0.24224433  0.24400280  1
  O  O407  1  0.88583948  0.24505532  0.74846580  1
  O  O408  1  0.87643389  0.74301044  0.24143403  1
  O  O409  1  0.86928940  0.73670224  0.74436804  1
  O  O410  1  0.38153340  0.49410108  0.49412137  1
  O  O411  1  0.38035775  0.49569633  0.99160625  1
  O  O412  1  0.37554246  0.99850113  0.48343963  1
  O  O413  1  0.37980401  0.99231468  0.99287367  1
  O  O414  1  0.88143109  0.49513849  0.49546196  1
  O  O415  1  0.88516304  0.50018278  0.99509574  1
  O  O416  1  0.87621435  0.99257873  0.49302555  1
  O  O417  1  0.88068817  0.99934756  0.99275748  1
  O  O418  1  0.11904532  0.00427921  0.00573842  1
  O  O419  1  0.12091672  0.01313766  0.50315372  1
  O  O420  1  0.11136246  0.50169036  0.00186252  1
  O  O421  1  0.11918223  0.50824191  0.50212114  1
  O  O422  1  0.62002134  0.00495267  0.00338476  1
  O  O423  1  0.62766185  -0.00495557  0.51419697  1
  O  O424  1  0.61992176  0.50577237  0.00467146  1
  O  O425  1  0.61877332  0.50610420  0.50563459  1
  O  O426  1  0.36916112  0.37030060  0.11889151  1
  O  O427  1  0.36576574  0.37798239  0.61849538  1
  O  O428  1  0.36963427  0.87012978  0.12065463  1
  O  O429  1  0.36917443  0.86906206  0.62591879  1
  O  O430  1  0.86866229  0.36799727  0.12446452  1
  O  O431  1  0.86559202  0.37518157  0.61998703  1
  O  O432  1  0.87576266  0.86175186  0.12458828  1
  O  O433  1  0.86867954  0.87126884  0.62105274  1
  O  O434  1  0.13352462  0.12525239  0.38087347  1
  O  O435  1  0.12560396  0.12725072  0.88430500  1
  O  O436  1  0.13137092  0.63031835  0.38099235  1
  O  O437  1  0.12334339  0.63735356  0.87191290  1
  O  O438  1  0.63261512  0.13528290  0.36971808  1
  O  O439  1  0.62745070  0.13264515  0.87769201  1
  O  O440  1  0.63068411  0.62982208  0.38133300  1
  O  O441  1  0.62757754  0.63163423  0.87868246  1
