# generated using pymatgen
data_V93Zn93O256
_symmetry_space_group_name_H-M   'P 1'
_cell_length_a   17.05575805
_cell_length_b   17.05691650
_cell_length_c   17.05381089
_cell_angle_alpha   90.03662546
_cell_angle_beta   89.97532141
_cell_angle_gamma   90.03059764
_symmetry_Int_Tables_number   1
_chemical_formula_structural   V93Zn93O256
_chemical_formula_sum   'V93 Zn93 O256'
_cell_volume   4961.26930796
_cell_formula_units_Z   1
loop_
 _symmetry_equiv_pos_site_id
 _symmetry_equiv_pos_as_xyz
  1  'x, y, z'
loop_
 _atom_site_type_symbol
 _atom_site_label
 _atom_site_symmetry_multiplicity
 _atom_site_fract_x
 _atom_site_fract_y
 _atom_site_fract_z
 _atom_site_occupancy
  V  V0  1  0.62131169  0.49849545  0.12262989  1
  V  V1  1  0.62420761  0.62368618  0.50015390  1
  V  V2  1  0.62610781  0.87442274  0.74952986  1
  V  V3  1  0.24939883  0.62596863  0.87601012  1
  V  V4  1  0.00110538  0.75618397  0.25624538  1
  V  V5  1  0.25139782  0.12721991  0.87453399  1
  V  V6  1  0.62489555  0.49779315  0.62341371  1
  V  V7  1  0.25206845  0.12657392  0.37385218  1
  V  V8  1  0.75097928  0.49813741  0.74796101  1
  V  V9  1  -0.00000767  0.49405173  0.49605068  1
  V  V10  1  0.37611182  0.37644339  0.50063538  1
  V  V11  1  0.37328964  0.62711370  0.25052319  1
  V  V12  1  0.49720472  0.61989182  0.12259116  1
  V  V13  1  0.00002051  0.24967101  0.74941776  1
  V  V14  1  0.87655217  0.24477410  0.12650658  1
  V  V15  1  0.87356777  0.62398871  0.24968685  1
  V  V16  1  0.00264214  -0.00436617  0.49058647  1
  V  V17  1  0.74787931  0.24487073  -0.00132048  1
  V  V18  1  0.62328880  0.74905456  0.37427154  1
  V  V19  1  0.87486169  -0.00113112  0.87391401  1
  V  V20  1  0.37520525  0.12492112  0.75018792  1
  V  V21  1  0.87842881  0.49168012  0.37419650  1
  V  V22  1  0.49987624  0.87606591  0.87673006  1
  V  V23  1  -0.00183107  0.62382881  0.12538630  1
  V  V24  1  0.25002603  -0.00045913  0.24764972  1
  V  V25  1  0.00015035  0.62402135  0.62413047  1
  V  V26  1  0.37380740  0.62593338  0.75118171  1
  V  V27  1  0.49896340  0.74950857  0.75052549  1
  V  V28  1  0.87500203  0.12388276  0.74931756  1
  V  V29  1  0.24516284  0.49993559  0.25281445  1
  V  V30  1  0.62380377  0.24328187  0.87822081  1
  V  V31  1  0.88090730  0.87434554  0.49218600  1
  V  V32  1  0.12631852  0.37562873  0.75056738  1
  V  V33  1  0.75118962  0.24785864  0.49943218  1
  V  V34  1  0.75194637  0.37331959  0.62273198  1
  V  V35  1  0.37575910  0.00179289  0.87652389  1
  V  V36  1  0.75127507  0.87490134  0.62507953  1
  V  V37  1  0.87514162  0.62420231  0.74992591  1
  V  V38  1  0.74985546  -0.00104980  0.74787917  1
  V  V39  1  0.62282537  0.11701009  0.49808733  1
  V  V40  1  0.25059012  0.87623781  0.62594747  1
  V  V41  1  0.62377860  0.37396246  0.24952648  1
  V  V42  1  0.38286363  0.88021438  0.50107656  1
  V  V43  1  0.61937568  0.61876707  -0.00113494  1
  V  V44  1  0.37621742  0.24987011  0.62459023  1
  V  V45  1  0.74905224  0.87120797  0.12249468  1
  V  V46  1  0.25110617  0.37581755  0.62727068  1
  V  V47  1  0.12532039  0.87585866  0.75029280  1
  V  V48  1  0.12486868  0.75077816  0.87743507  1
  V  V49  1  0.74953724  0.49883246  0.24913501  1
  V  V50  1  0.24953263  0.25171223  0.49972376  1
  V  V51  1  0.74799170  0.12456819  0.87605127  1
  V  V52  1  0.12208409  0.26283365  0.37210387  1
  V  V53  1  0.62238773  0.87326659  0.24922021  1
  V  V54  1  0.00010564  0.74940653  0.75037332  1
  V  V55  1  0.37391030  0.25095572  0.12770404  1
  V  V56  1  0.25060651  0.50051495  0.75265107  1
  V  V57  1  0.75051531  0.74987944  0.49985825  1
  V  V58  1  0.12334054  0.12396078  0.00317723  1
  V  V59  1  0.87439269  0.49884433  0.87465349  1
  V  V60  1  0.50072266  0.11796629  0.61984171  1
  V  V61  1  0.87482711  0.87293717  -0.00092275  1
  V  V62  1  0.12598482  -0.00003160  0.62554686  1
  V  V63  1  0.62445565  0.74844035  0.87530067  1
  V  V64  1  0.87501837  0.24898099  0.62332486  1
  V  V65  1  0.37630361  0.87724821  0.00213639  1
  V  V66  1  0.49935790  0.37602431  0.37552981  1
  V  V67  1  0.12244226  0.49724203  0.12981050  1
  V  V68  1  0.00088549  0.12376180  0.62455697  1
  V  V69  1  0.74832902  0.62300281  0.87526067  1
  V  V70  1  0.62678961  0.24914254  0.37428709  1
  V  V71  1  0.62101353  0.00530446  0.11789129  1
  V  V72  1  0.24951880  0.62871367  0.37626548  1
  V  V73  1  0.24524655  0.37646339  0.12960622  1
  V  V74  1  -0.00032400  0.37501559  0.87462158  1
  V  V75  1  0.12589338  0.12497738  0.50022324  1
  V  V76  1  0.00352843  0.26029677  0.25399651  1
  V  V77  1  0.74776530  0.37289296  0.12349088  1
  V  V78  1  0.24919352  0.75160428  0.00142683  1
  V  V79  1  0.24969730  0.25447677  0.00119270  1
  V  V80  1  0.12515102  0.62663591  0.50084257  1
  V  V81  1  0.37352826  0.75127479  0.12602985  1
  V  V82  1  0.87549408  0.74907805  0.62416360  1
  V  V83  1  0.75244169  0.00129061  0.25190039  1
  V  V84  1  0.50148144  0.24958234  0.74963430  1
  V  V85  1  0.12503434  0.25091964  0.87580932  1
  V  V86  1  -0.00083453  0.49999470  0.00099465  1
  V  V87  1  -0.00049661  0.87501475  0.87578528  1
  V  V88  1  0.25073331  0.75063321  0.50010207  1
  V  V89  1  0.38273433  0.00199915  0.37915698  1
  V  V90  1  0.49844053  0.38014946  0.87998901  1
  V  V91  1  0.87347653  0.37332399  -0.00088954  1
  V  V92  1  0.37560257  0.75044705  0.62613849  1
  Zn  Zn93  1  0.38050251  0.12540583  0.24915414  1
  Zn  Zn94  1  0.24969408  0.00119849  0.75085391  1
  Zn  Zn95  1  0.12417684  0.49955583  0.62505441  1
  Zn  Zn96  1  0.75275884  0.12319253  0.37586370  1
  Zn  Zn97  1  0.37973661  0.50543971  0.88227684  1
  Zn  Zn98  1  0.12217276  -0.00279484  0.12653256  1
  Zn  Zn99  1  0.62502173  0.37313793  0.74919562  1
  Zn  Zn100  1  0.50338271  0.13369215  0.11966271  1
  Zn  Zn101  1  0.74915507  0.74649814  -0.00030314  1
  Zn  Zn102  1  0.37900006  0.38465109  0.00607610  1
  Zn  Zn103  1  0.62265695  -0.00396507  0.61975881  1
  Zn  Zn104  1  0.12411042  0.62631311  0.00105041  1
  Zn  Zn105  1  0.49930514  0.24941683  0.24827774  1
  Zn  Zn106  1  0.87918077  0.12428941  0.25581287  1
  Zn  Zn107  1  0.37512383  0.50245045  0.37732053  1
  Zn  Zn108  1  0.49711214  0.74998537  0.25116239  1
  Zn  Zn109  1  0.00070837  0.00042883  0.00285989  1
  Zn  Zn110  1  0.88014398  -0.00187044  0.37073736  1
  Zn  Zn111  1  0.50451649  0.01177358  -0.00549366  1
  Zn  Zn112  1  0.87533947  0.74883167  0.12447675  1
  Zn  Zn113  1  0.74841244  0.62173038  0.37427467  1
  Zn  Zn114  1  0.12074670  0.88246410  0.25629649  1
  Zn  Zn115  1  0.00179863  0.12344802  0.12841866  1
  Zn  Zn116  1  0.24619745  0.87531540  0.12725778  1
  Zn  Zn117  1  0.49787098  0.50030689  0.50145699  1
  Zn  Zn118  1  0.50439628  0.88195671  0.38003732  1
  Zn  Zn119  1  0.49842461  0.62288128  0.62634300  1
  Zn  Zn120  1  0.11889824  0.75901273  0.38095003  1
  Zn  Zn121  1  0.88058617  0.36864063  0.49420277  1
  Zn  Zn122  1  0.18704408  0.18865124  0.19075886  1
  Zn  Zn123  1  0.18817008  0.18826869  0.68790576  1
  Zn  Zn124  1  0.18479113  0.68650017  0.18666491  1
  Zn  Zn125  1  0.18740254  0.68790546  0.68716041  1
  Zn  Zn126  1  0.68951210  0.18667781  0.18911832  1
  Zn  Zn127  1  0.68589023  0.18608420  0.68673946  1
  Zn  Zn128  1  0.68607344  0.68574335  0.18591494  1
  Zn  Zn129  1  0.68785332  0.68672970  0.68720074  1
  Zn  Zn130  1  0.31167473  0.31477274  0.31224847  1
  Zn  Zn131  1  0.31504501  0.31215326  0.81260930  1
  Zn  Zn132  1  0.31152576  0.81587689  0.31524230  1
  Zn  Zn133  1  0.31200525  0.81397873  0.81448761  1
  Zn  Zn134  1  0.81183229  0.31032924  0.31022473  1
  Zn  Zn135  1  0.81108231  0.31180727  0.81007593  1
  Zn  Zn136  1  0.81083037  0.81073428  0.31166137  1
  Zn  Zn137  1  0.81102579  0.81000167  0.81263003  1
  Zn  Zn138  1  0.18846545  0.44122331  0.44051776  1
  Zn  Zn139  1  0.18813418  0.44060254  0.94079821  1
  Zn  Zn140  1  0.18986431  0.93526255  0.43463774  1
  Zn  Zn141  1  0.19049545  0.93899854  0.93822851  1
  Zn  Zn142  1  0.69093874  0.43518381  0.43649479  1
  Zn  Zn143  1  0.68467196  0.43360012  0.93638190  1
  Zn  Zn144  1  0.69114101  0.93506736  0.43681863  1
  Zn  Zn145  1  0.68881195  0.93668698  0.93553912  1
  Zn  Zn146  1  0.31298376  0.06522830  0.06076684  1
  Zn  Zn147  1  0.31229125  0.06252812  0.56233045  1
  Zn  Zn148  1  0.31213681  0.56270695  0.05971117  1
  Zn  Zn149  1  0.31217756  0.56195763  0.56445937  1
  Zn  Zn150  1  0.80884471  0.06021788  0.06079962  1
  Zn  Zn151  1  0.81330740  0.06077468  0.56007955  1
  Zn  Zn152  1  0.80920165  0.56067479  0.06173937  1
  Zn  Zn153  1  0.81293964  0.56122184  0.55988761  1
  Zn  Zn154  1  0.43347380  0.43849500  0.19050385  1
  Zn  Zn155  1  0.43788188  0.43781788  0.69237004  1
  Zn  Zn156  1  0.43583234  0.93857807  0.19019289  1
  Zn  Zn157  1  0.43689436  0.93772290  0.69078939  1
  Zn  Zn158  1  0.93561596  0.43467835  0.18729133  1
  Zn  Zn159  1  0.93805787  0.43661010  0.68421333  1
  Zn  Zn160  1  0.93779317  0.93924958  0.18272470  1
  Zn  Zn161  1  0.93855779  0.93680292  0.68391621  1
  Zn  Zn162  1  0.06524008  0.07377116  0.30917856  1
  Zn  Zn163  1  0.06262172  0.06171641  0.81486939  1
  Zn  Zn164  1  0.06247756  0.56717321  0.31576111  1
  Zn  Zn165  1  0.06422556  0.56246898  0.81307488  1
  Zn  Zn166  1  0.56301777  0.06719027  0.30558386  1
  Zn  Zn167  1  0.56233584  0.06161659  0.80884385  1
  Zn  Zn168  1  0.56033616  0.56150301  0.31025880  1
  Zn  Zn169  1  0.56299353  0.56223993  0.80865289  1
  Zn  Zn170  1  0.43954624  0.19002686  0.43820327  1
  Zn  Zn171  1  0.43722889  0.19002443  0.94341456  1
  Zn  Zn172  1  0.43746741  0.68915077  0.43804103  1
  Zn  Zn173  1  0.43606159  0.68909045  0.93887880  1
  Zn  Zn174  1  0.93889861  0.18345722  0.43358387  1
  Zn  Zn175  1  0.93670803  0.18642963  0.93757995  1
  Zn  Zn176  1  0.93596307  0.68154681  0.43626145  1
  Zn  Zn177  1  0.93723293  0.68729840  0.93801364  1
  Zn  Zn178  1  0.06125576  0.31234620  0.06451651  1
  Zn  Zn179  1  0.06472355  0.31201564  0.56249592  1
  Zn  Zn180  1  0.06326059  0.81355890  0.06949945  1
  Zn  Zn181  1  0.06331199  0.81290453  0.56357179  1
  Zn  Zn182  1  0.56240301  0.31065942  0.05951718  1
  Zn  Zn183  1  0.56380577  0.30876780  0.55999617  1
  Zn  Zn184  1  0.55950015  0.80898316  0.06076400  1
  Zn  Zn185  1  0.56231707  0.81032384  0.56474680  1
  O  O186  1  0.12764014  0.12747748  0.11143725  1
  O  O187  1  0.12078255  0.12112728  0.61984122  1
  O  O188  1  0.11686009  0.61363182  0.12316027  1
  O  O189  1  0.11800225  0.62385329  0.61935250  1
  O  O190  1  0.63002038  0.10667709  0.12844702  1
  O  O191  1  0.61703094  0.12324203  0.61635426  1
  O  O192  1  0.61710218  0.61992593  0.11808157  1
  O  O193  1  0.62586153  0.61623428  0.61643197  1
  O  O194  1  0.38352351  0.37617499  0.38099787  1
  O  O195  1  0.39119970  0.37241534  0.87438938  1
  O  O196  1  0.37807622  0.88417491  0.38440327  1
  O  O197  1  0.38054761  0.88121135  0.88065293  1
  O  O198  1  0.87188075  0.38795398  0.37391965  1
  O  O199  1  0.87978389  0.37924687  0.87881620  1
  O  O200  1  0.86929515  0.87546375  0.38915001  1
  O  O201  1  0.87835116  0.87802324  0.88102101  1
  O  O202  1  0.25949583  0.01056350  0.36976190  1
  O  O203  1  0.25757838  0.00898386  0.87298777  1
  O  O204  1  0.24899648  0.50778447  0.36669366  1
  O  O205  1  0.24816400  0.50800537  0.86847940  1
  O  O206  1  0.75002805  -0.00258319  0.36079596  1
  O  O207  1  0.75528818  0.00401692  0.86773611  1
  O  O208  1  0.75837804  0.50099840  0.36735420  1
  O  O209  1  0.75471738  0.50287571  0.86883069  1
  O  O210  1  0.24084716  0.49620912  0.13294081  1
  O  O211  1  0.24828606  0.49300526  0.63385350  1
  O  O212  1  0.25166038  1.00312785  0.13785320  1
  O  O213  1  0.24341366  0.99488890  0.62708637  1
  O  O214  1  0.74298772  0.49193288  0.12936588  1
  O  O215  1  0.74399496  0.49462858  0.62785655  1
  O  O216  1  0.74136791  0.98896844  0.13050260  1
  O  O217  1  0.75026876  0.99219899  0.63102591  1
  O  O218  1  -0.00370066  0.36011890  0.24628449  1
  O  O219  1  0.00508963  0.36962825  0.75485121  1
  O  O220  1  -0.00728034  0.85751424  0.24591292  1
  O  O221  1  0.00435714  0.86872348  0.75490776  1
  O  O222  1  0.50530498  0.37533971  0.25962758  1
  O  O223  1  0.50248450  0.36515510  0.75763662  1
  O  O224  1  0.51356491  0.87260386  0.25186034  1
  O  O225  1  0.50584841  0.86909532  0.75609642  1
  O  O226  1  0.49765430  0.13159094  0.23810444  1
  O  O227  1  0.49515636  0.13144887  0.74098608  1
  O  O228  1  0.49318142  0.62718630  0.24122623  1
  O  O229  1  0.49286818  0.63220718  0.74996262  1
  O  O230  1  0.99616163  0.13817089  0.24542185  1
  O  O231  1  0.99527117  0.13001717  0.74508629  1
  O  O232  1  0.98877166  0.62863609  0.24450177  1
  O  O233  1  0.99413153  0.62955846  0.74555778  1
  O  O234  1  0.36568464  0.25871915  0.01012134  1
  O  O235  1  0.36887739  0.25640184  0.50545972  1
  O  O236  1  0.36917099  0.75687991  0.00607366  1
  O  O237  1  0.37076367  0.75854926  0.50621050  1
  O  O238  1  0.86988759  0.25511097  0.00647907  1
  O  O239  1  0.87094257  0.24827062  0.50564973  1
  O  O240  1  0.87121902  0.76046510  0.00102298  1
  O  O241  1  0.87171450  0.75458194  0.50390917  1
  O  O242  1  0.13001823  0.24427149  0.49355863  1
  O  O243  1  0.12912958  0.24487720  0.99461787  1
  O  O244  1  0.13209669  0.74428589  0.50220104  1
  O  O245  1  0.12980719  0.75037783  0.99481748  1
  O  O246  1  0.63209042  0.24036445  0.49405046  1
  O  O247  1  0.63334408  0.25435439  0.98720353  1
  O  O248  1  0.62973696  0.74322994  0.49395887  1
  O  O249  1  0.62635026  0.73789703  0.99364057  1
  O  O250  1  0.48649018  0.25741079  0.12593318  1
  O  O251  1  0.49560652  0.24187515  0.63012462  1
  O  O252  1  0.49378106  0.73799500  0.12782403  1
  O  O253  1  0.49365415  0.74756792  0.63324952  1
  O  O254  1  0.99059238  0.24936638  0.13099611  1
  O  O255  1  0.99596170  0.24354381  0.62996705  1
  O  O256  1  0.99521882  0.74114033  0.13578484  1
  O  O257  1  0.99454799  0.74417719  0.63104650  1
  O  O258  1  0.01105434  0.24449243  0.36802124  1
  O  O259  1  0.00406363  0.25594032  0.86883829  1
  O  O260  1  -0.00272996  0.74146168  0.35958903  1
  O  O261  1  0.00421806  0.75505904  0.86942967  1
  O  O262  1  0.50650804  0.26140495  0.37380123  1
  O  O263  1  0.50740097  0.25529984  0.86916747  1
  O  O264  1  0.51378612  0.75286948  0.37391858  1
  O  O265  1  0.50531731  0.75583014  0.86972807  1
  O  O266  1  0.24630245  0.13169146  0.49311767  1
  O  O267  1  0.24260210  0.13414962  0.99338594  1
  O  O268  1  0.24559385  0.63060983  0.49671297  1
  O  O269  1  0.24710288  0.63433681  0.99370847  1
  O  O270  1  0.74047193  0.13006539  0.50042954  1
  O  O271  1  0.75689515  0.13237638  0.98842342  1
  O  O272  1  0.73981001  0.63090540  0.49869294  1
  O  O273  1  0.73989655  0.62545612  0.99410742  1
  O  O274  1  0.24729122  0.37126479  0.01359215  1
  O  O275  1  0.25587977  0.37092450  0.50717784  1
  O  O276  1  0.25780244  0.86916804  0.00227359  1
  O  O277  1  0.26082988  0.87017915  0.50726745  1
  O  O278  1  0.75459109  0.36709367  0.00391693  1
  O  O279  1  0.75383940  0.36620667  0.50574567  1
  O  O280  1  0.75685525  0.87206654  0.00632772  1
  O  O281  1  0.75902212  0.86914264  0.50589295  1
  O  O282  1  0.13360534  0.50850268  0.24174770  1
  O  O283  1  0.13065792  0.49272897  0.74845863  1
  O  O284  1  0.13804344  1.00559284  0.25056801  1
  O  O285  1  0.12519914  0.99375902  0.74400839  1
  O  O286  1  0.63029110  0.49426851  0.24325481  1
  O  O287  1  0.63264533  0.49982869  0.73782940  1
  O  O288  1  0.63272642  0.98970702  0.24102004  1
  O  O289  1  0.63264924  0.99165301  0.74728655  1
  O  O290  1  0.36741908  0.00381858  0.26005037  1
  O  O291  1  0.37312875  0.00776976  0.75775785  1
  O  O292  1  0.36116316  0.50843378  0.25165658  1
  O  O293  1  0.36859837  0.50756755  0.75538951  1
  O  O294  1  0.86435524  -0.00241256  0.24929971  1
  O  O295  1  0.87052930  0.00387303  0.75392983  1
  O  O296  1  0.87092139  0.50551515  0.25488618  1
  O  O297  1  0.87114647  0.50479866  0.75489511  1
  O  O298  1  0.13322213  0.36136770  0.38043956  1
  O  O299  1  0.11924307  0.37030017  0.87102222  1
  O  O300  1  0.12903915  0.87022778  0.36866739  1
  O  O301  1  0.11933991  0.87064409  0.87054281  1
  O  O302  1  0.61831169  0.37009793  0.37044659  1
  O  O303  1  0.61582426  0.36446187  0.87094784  1
  O  O304  1  0.62500813  0.86736410  0.36772177  1
  O  O305  1  0.62088419  0.86864025  0.86921803  1
  O  O306  1  0.36886966  0.14255025  0.12650892  1
  O  O307  1  0.38203589  0.13039324  0.62776011  1
  O  O308  1  0.38085423  0.63015821  0.12962102  1
  O  O309  1  0.37598028  0.63252081  0.63225597  1
  O  O310  1  0.87216420  0.13830785  0.12282274  1
  O  O311  1  0.88109315  0.12909782  0.63018627  1
  O  O312  1  0.87778413  0.62247494  0.13461350  1
  O  O313  1  0.87913000  0.62997553  0.62999451  1
  O  O314  1  0.25238812  0.26105673  0.12371017  1
  O  O315  1  0.25608793  0.25518848  0.61968535  1
  O  O316  1  0.25621287  0.74941554  0.11973974  1
  O  O317  1  0.25653396  0.75653320  0.62051378  1
  O  O318  1  0.75607569  0.25413671  0.11971317  1
  O  O319  1  0.75561132  0.25321913  0.62011267  1
  O  O320  1  0.75094885  0.76087428  0.12402551  1
  O  O321  1  0.75620706  0.75458002  0.61990747  1
  O  O322  1  0.24532591  0.24371602  0.37950915  1
  O  O323  1  0.24446924  0.24760655  0.88039913  1
  O  O324  1  0.25143833  0.74367939  0.38360646  1
  O  O325  1  0.24373847  0.74623808  0.88090095  1
  O  O326  1  0.74371958  0.24865607  0.38069155  1
  O  O327  1  0.74280953  0.24525981  0.87760806  1
  O  O328  1  0.73806964  0.74777507  0.38029049  1
  O  O329  1  0.74214924  0.74065746  0.87435705  1
  O  O330  1  0.01178831  0.12534943  -0.00041471  1
  O  O331  1  0.00661051  0.11589683  0.50654977  1
  O  O332  1  -0.00196852  0.61752144  0.00721549  1
  O  O333  1  0.00440321  0.61758338  0.50557373  1
  O  O334  1  0.49871055  0.12370308  0.00780048  1
  O  O335  1  0.51009279  0.13258122  0.50962818  1
  O  O336  1  0.50891622  0.62914815  0.00913668  1
  O  O337  1  0.51284743  0.62350975  0.50233830  1
  O  O338  1  0.49549190  0.37451063  0.49137364  1
  O  O339  1  0.50099895  0.37117938  0.98282486  1
  O  O340  1  0.48716526  0.87163235  0.50100391  1
  O  O341  1  0.49397485  0.87665426  0.99277290  1
  O  O342  1  0.99941958  0.38959581  0.50646358  1
  O  O343  1  0.99364481  0.37973570  0.99418213  1
  O  O344  1  0.99180839  0.88345618  0.50692217  1
  O  O345  1  0.98940108  0.87396449  0.99499208  1
  O  O346  1  0.49980077  0.48760394  0.37739723  1
  O  O347  1  0.50348965  0.48241589  0.86617827  1
  O  O348  1  0.48659109  1.00228463  0.36788912  1
  O  O349  1  0.49487106  0.99367661  0.87444888  1
  O  O350  1  0.99055606  0.50797611  0.38468915  1
  O  O351  1  0.99402088  0.49460513  0.88010407  1
  O  O352  1  1.00394823  1.00688504  0.38879094  1
  O  O353  1  0.99222972  0.99247361  0.87734434  1
  O  O354  1  0.00325215  0.00633312  0.12011749  1
  O  O355  1  0.00683833  0.00523869  0.61706540  1
  O  O356  1  0.00510577  0.50215393  0.12201290  1
  O  O357  1  -0.00033396  0.50720742  0.61559600  1
  O  O358  1  0.51643293  -0.00381354  0.12668445  1
  O  O359  1  0.50114147  0.01416406  0.63050267  1
  O  O360  1  0.50425431  0.51219761  0.13161810  1
  O  O361  1  0.51280236  0.50025828  0.62458947  1
  O  O362  1  0.25260523  0.38824192  0.24125604  1
  O  O363  1  0.24596288  0.37925826  0.74686501  1
  O  O364  1  0.25256729  0.88985600  0.24981863  1
  O  O365  1  0.24322776  0.87652458  0.74414922  1
  O  O366  1  0.74356170  0.37963225  0.24268129  1
  O  O367  1  0.74841916  0.38114813  0.74175375  1
  O  O368  1  0.74256375  0.87938286  0.24144276  1
  O  O369  1  0.74593761  0.87846449  0.74472854  1
  O  O370  1  0.25331919  0.12037655  0.26198190  1
  O  O371  1  0.25715014  0.12609817  0.75626179  1
  O  O372  1  0.25358574  0.61902589  0.25524467  1
  O  O373  1  0.25439105  0.62149683  0.75587911  1
  O  O374  1  0.75219007  0.11147885  0.25010218  1
  O  O375  1  0.75643565  0.11915599  0.75436207  1
  O  O376  1  0.75820642  0.61815032  0.24787714  1
  O  O377  1  0.75580660  0.61829934  0.75473922  1
  O  O378  1  0.36642687  0.12061975  0.37856644  1
  O  O379  1  0.37047900  0.12293467  0.86993900  1
  O  O380  1  0.36927431  0.62424432  0.36950823  1
  O  O381  1  0.36773209  0.62768811  0.86828370  1
  O  O382  1  0.86960049  0.11619787  0.37344260  1
  O  O383  1  0.87004693  0.11922349  0.86780461  1
  O  O384  1  0.87026461  0.61467050  0.36395417  1
  O  O385  1  0.86929215  0.61828924  0.86988992  1
  O  O386  1  0.13209358  0.38658915  0.12311477  1
  O  O387  1  0.13314514  0.37470689  0.63297037  1
  O  O388  1  0.12839584  0.87924737  0.13636949  1
  O  O389  1  0.13078129  0.88004898  0.63100942  1
  O  O390  1  0.62846209  0.37887461  0.12863479  1
  O  O391  1  0.63158182  0.38330851  0.62320951  1
  O  O392  1  0.63188500  0.87787410  0.13142141  1
  O  O393  1  0.63218582  0.87501109  0.63031228  1
  O  O394  1  0.11690569  0.24509629  0.26079062  1
  O  O395  1  0.11937247  0.25521038  0.75592676  1
  O  O396  1  0.10671598  0.74507627  0.25012235  1
  O  O397  1  0.11893961  0.75609363  0.75599078  1
  O  O398  1  0.62547463  0.25738307  0.25524273  1
  O  O399  1  0.61950998  0.25089967  0.75821533  1
  O  O400  1  0.62701024  0.75700393  0.25781408  1
  O  O401  1  0.61990609  0.75406717  0.75512020  1
  O  O402  1  0.37412887  0.25055506  0.24029976  1
  O  O403  1  0.38139521  0.24360645  0.74359779  1
  O  O404  1  0.37471048  0.74507221  0.24493030  1
  O  O405  1  0.37935112  0.74657438  0.74553742  1
  O  O406  1  0.88029142  0.24892935  0.24045180  1
  O  O407  1  0.88076216  0.24350442  0.74427598  1
  O  O408  1  0.88029643  0.73930074  0.24942208  1
  O  O409  1  0.88034035  0.74361926  0.74490280  1
  O  O410  1  0.37758485  0.49283102  0.49862746  1
  O  O411  1  0.37184814  0.49645499  0.99446139  1
  O  O412  1  0.36857385  0.99107652  0.49116750  1
  O  O413  1  0.37646106  0.99424306  0.99392273  1
  O  O414  1  0.88221630  0.50000055  0.49035270  1
  O  O415  1  0.87857193  0.49305192  0.99449412  1
  O  O416  1  0.88539898  0.99019621  0.50041857  1
  O  O417  1  0.87267900  0.98753926  0.99293721  1
  O  O418  1  0.12577497  0.01262021  -0.00014985  1
  O  O419  1  0.12051107  0.00419113  0.50573907  1
  O  O420  1  0.11698195  0.50238476  0.01128449  1
  O  O421  1  0.11640417  0.50755265  0.50164277  1
  O  O422  1  0.62654335  -0.00824203  0.01524941  1
  O  O423  1  0.63026017  0.01204721  0.49911531  1
  O  O424  1  0.62963725  0.51083848  0.00558517  1
  O  O425  1  0.62750745  0.50755630  0.50733430  1
  O  O426  1  0.36284143  0.37021172  0.12634870  1
  O  O427  1  0.37113161  0.36894754  0.62181767  1
  O  O428  1  0.37497878  0.86868475  0.11991353  1
  O  O429  1  0.37112630  0.87165408  0.61982959  1
  O  O430  1  0.86760706  0.36556312  0.11868355  1
  O  O431  1  0.86957394  0.36618866  0.62256833  1
  O  O432  1  0.86435020  0.87455832  0.11519868  1
  O  O433  1  0.87082608  0.86740597  0.61646288  1
  O  O434  1  0.13791887  0.13244000  0.38256279  1
  O  O435  1  0.13034560  0.13194394  0.88157898  1
  O  O436  1  0.13190346  0.63155313  0.38369229  1
  O  O437  1  0.12999881  0.63340859  0.87689664  1
  O  O438  1  0.62572154  0.13042340  0.38206105  1
  O  O439  1  0.63136427  0.13553764  0.86710539  1
  O  O440  1  0.62565964  0.63115607  0.38187729  1
  O  O441  1  0.62762233  0.62696355  0.88140972  1
