# generated using pymatgen
data_V93Zn93O256
_symmetry_space_group_name_H-M   'P 1'
_cell_length_a   17.05386913
_cell_length_b   17.05578496
_cell_length_c   17.05822853
_cell_angle_alpha   90.04165317
_cell_angle_beta   90.01393812
_cell_angle_gamma   90.04692131
_symmetry_Int_Tables_number   1
_chemical_formula_structural   V93Zn93O256
_chemical_formula_sum   'V93 Zn93 O256'
_cell_volume   4961.67475998
_cell_formula_units_Z   1
loop_
 _symmetry_equiv_pos_site_id
 _symmetry_equiv_pos_as_xyz
  1  'x, y, z'
loop_
 _atom_site_type_symbol
 _atom_site_label
 _atom_site_symmetry_multiplicity
 _atom_site_fract_x
 _atom_site_fract_y
 _atom_site_fract_z
 _atom_site_occupancy
  V  V0  1  0.24952805  0.87405319  0.62577351  1
  V  V1  1  0.87470871  -0.00001955  0.37385363  1
  V  V2  1  0.75032979  0.12235655  0.86809924  1
  V  V3  1  0.12667689  0.37581263  0.75231912  1
  V  V4  1  0.62456261  0.12578545  -0.00151077  1
  V  V5  1  0.74752051  0.48240467  0.74755283  1
  V  V6  1  0.87425592  0.50027565  0.87416628  1
  V  V7  1  0.50041405  0.87512670  0.87413586  1
  V  V8  1  0.37219440  0.74918555  0.12110743  1
  V  V9  1  0.62507384  0.37455126  0.25030284  1
  V  V10  1  0.62362059  0.75119950  0.37456501  1
  V  V11  1  0.37467098  0.12424381  0.24976507  1
  V  V12  1  0.50218478  0.24953018  0.24928779  1
  V  V13  1  0.12412879  0.12529708  0.00315800  1
  V  V14  1  0.24857263  0.74830500  0.50012521  1
  V  V15  1  0.12542320  0.87482273  0.75016568  1
  V  V16  1  0.12448072  0.74964120  0.37616774  1
  V  V17  1  0.49865211  0.75071017  0.25054771  1
  V  V18  1  -0.00051028  0.62441568  0.12624347  1
  V  V19  1  0.24921313  0.62492561  0.37636085  1
  V  V20  1  0.75053197  0.87978740  0.62919760  1
  V  V21  1  0.37461147  -0.00038266  0.87416588  1
  V  V22  1  0.25002966  0.12433847  0.37384423  1
  V  V23  1  -0.00076859  0.74885841  0.75067714  1
  V  V24  1  0.00178006  0.37625725  0.87682526  1
  V  V25  1  0.62532672  0.50077849  0.12520817  1
  V  V26  1  0.37471240  0.37494245  -0.00082009  1
  V  V27  1  -0.00119259  0.50091056  -0.00066346  1
  V  V28  1  0.87339029  0.87712195  0.50023619  1
  V  V29  1  0.12445339  0.87390862  0.24993984  1
  V  V30  1  0.12337296  0.00085517  0.12545491  1
  V  V31  1  0.37531679  0.74858859  0.62524875  1
  V  V32  1  0.74746321  0.87562960  0.12406410  1
  V  V33  1  -0.00640832  0.37928412  0.38135050  1
  V  V34  1  0.75016519  0.12426177  0.37311476  1
  V  V35  1  0.24977261  0.24950171  0.50007976  1
  V  V36  1  0.00001618  0.87349027  0.37517341  1
  V  V37  1  0.50621038  0.25362217  0.74956334  1
  V  V38  1  0.25024224  0.37546396  0.12482200  1
  V  V39  1  0.75127421  0.37440994  0.12485862  1
  V  V40  1  0.12685348  0.75027199  0.87734051  1
  V  V41  1  0.74996099  0.25009730  -0.00000556  1
  V  V42  1  0.37283180  0.87108469  -0.00067813  1
  V  V43  1  0.49963923  0.62430498  0.12485355  1
  V  V44  1  0.74981922  -0.00061494  0.24815616  1
  V  V45  1  0.37611814  0.49975504  0.37656855  1
  V  V46  1  0.37491414  0.87498286  0.49997737  1
  V  V47  1  0.87499558  0.75009293  0.12501623  1
  V  V48  1  -0.00143636  0.62100223  0.62028276  1
  V  V49  1  0.12092285  0.50016629  0.61887780  1
  V  V50  1  0.24951421  0.37590678  0.62554994  1
  V  V51  1  0.74985780  0.62632612  0.37526273  1
  V  V52  1  0.75697816  0.25742727  0.50400408  1
  V  V53  1  0.50139891  0.49892263  0.50215587  1
  V  V54  1  0.12457625  -0.00047809  0.62475734  1
  V  V55  1  0.37496156  0.24960207  0.62546318  1
  V  V56  1  0.49930387  0.00012337  0.49883725  1
  V  V57  1  0.37490938  0.62461223  0.24984664  1
  V  V58  1  0.37563658  0.50003920  0.87492256  1
  V  V59  1  0.87478991  0.87595341  -0.00043725  1
  V  V60  1  0.49835406  0.87449504  0.37484076  1
  V  V61  1  0.00031686  0.24629796  0.74957217  1
  V  V62  1  0.87207074  0.00133560  0.86858202  1
  V  V63  1  0.25051502  0.25038533  0.00041098  1
  V  V64  1  0.50731030  0.37464817  0.87211590  1
  V  V65  1  0.62548149  0.62655808  -0.00186878  1
  V  V66  1  -0.00048254  0.00484660  0.00312105  1
  V  V67  1  0.88135542  0.24615427  0.12400078  1
  V  V68  1  0.12432412  0.12443347  0.50017320  1
  V  V69  1  0.62595019  0.25070721  0.37372852  1
  V  V70  1  0.37529831  0.62471094  0.75060093  1
  V  V71  1  0.62607304  0.87898702  0.75121920  1
  V  V72  1  0.75276630  0.50126306  0.25291921  1
  V  V73  1  0.12509276  0.37430684  0.25030657  1
  V  V74  1  0.49934264  0.00096924  -0.00009324  1
  V  V75  1  0.25086396  0.49859729  0.25010903  1
  V  V76  1  0.25122803  0.12436997  0.87640580  1
  V  V77  1  0.37517352  0.37513431  0.49980711  1
  V  V78  1  0.12873683  0.62972181  0.00073256  1
  V  V79  1  0.50418770  0.62513213  0.62653928  1
  V  V80  1  0.88182663  0.12455999  0.24396731  1
  V  V81  1  0.50038423  0.12483408  0.12374664  1
  V  V82  1  0.62715075  0.00183115  0.62678910  1
  V  V83  1  0.00006549  0.87504552  0.87507726  1
  V  V84  1  0.86995835  0.62569255  0.75058572  1
  V  V85  1  0.62877129  0.48438257  0.62974610  1
  V  V86  1  0.12391610  0.25025237  0.37435920  1
  V  V87  1  0.00015560  0.00093402  0.49980113  1
  V  V88  1  0.74838297  0.75322943  0.49909058  1
  V  V89  1  0.24837838  0.86816258  0.11961780  1
  V  V90  1  0.25165444  0.62992387  0.87861625  1
  V  V91  1  0.62506584  0.12490059  0.49824254  1
  V  V92  1  0.37430645  0.12540186  0.75031348  1
  Zn  Zn93  1  0.87274990  0.25192374  0.62962623  1
  Zn  Zn94  1  0.74882050  0.75025783  -0.00370043  1
  Zn  Zn95  1  0.88253302  0.50731798  0.38211845  1
  Zn  Zn96  1  0.24946363  0.00037969  0.74989739  1
  Zn  Zn97  1  -0.00281294  0.12518837  0.62497785  1
  Zn  Zn98  1  0.37611624  0.25055732  0.12420523  1
  Zn  Zn99  1  0.11926884  0.62151288  0.49786022  1
  Zn  Zn100  1  0.87596049  0.62508029  0.25001757  1
  Zn  Zn101  1  0.87602646  0.37509025  0.00160850  1
  Zn  Zn102  1  0.74686163  0.62609048  0.87421537  1
  Zn  Zn103  1  -0.00029309  0.74770048  0.25268197  1
  Zn  Zn104  1  0.87712982  0.39398826  0.51985809  1
  Zn  Zn105  1  0.62606484  0.75001503  0.87333058  1
  Zn  Zn106  1  0.00247893  0.24824084  0.24626633  1
  Zn  Zn107  1  0.12444324  0.50013620  0.12549464  1
  Zn  Zn108  1  0.62378038  -0.00042615  0.12489844  1
  Zn  Zn109  1  0.62236994  0.87684571  0.24893930  1
  Zn  Zn110  1  0.87449536  0.75101455  0.62568226  1
  Zn  Zn111  1  0.87262487  0.12259907  0.74617386  1
  Zn  Zn112  1  0.12558895  0.24951523  0.87661563  1
  Zn  Zn113  1  0.37301664  -0.00105640  0.37527382  1
  Zn  Zn114  1  0.62694542  0.62360558  0.50238937  1
  Zn  Zn115  1  0.50133784  0.49777100  -0.00053012  1
  Zn  Zn116  1  0.25009881  0.50126128  0.75019636  1
  Zn  Zn117  1  0.63049760  0.25428368  0.86965338  1
  Zn  Zn118  1  0.25019454  -0.00103573  0.25033932  1
  Zn  Zn119  1  0.50078047  0.37571079  0.37442058  1
  Zn  Zn120  1  0.49910047  0.12527780  0.62509999  1
  Zn  Zn121  1  0.50084949  0.75087257  0.75099914  1
  Zn  Zn122  1  0.18923953  0.18882498  0.18660804  1
  Zn  Zn123  1  0.18662317  0.18696396  0.68758741  1
  Zn  Zn124  1  0.18691613  0.68768721  0.18998017  1
  Zn  Zn125  1  0.18685219  0.68628085  0.68960444  1
  Zn  Zn126  1  0.68962831  0.18611633  0.18540450  1
  Zn  Zn127  1  0.68695388  0.18897843  0.68484948  1
  Zn  Zn128  1  0.68572309  0.68906033  0.18731179  1
  Zn  Zn129  1  0.68721762  0.69172405  0.68723026  1
  Zn  Zn130  1  0.31341423  0.31132201  0.31277359  1
  Zn  Zn131  1  0.31442809  0.31096346  0.81403176  1
  Zn  Zn132  1  0.31088463  0.81266106  0.31029733  1
  Zn  Zn133  1  0.31320021  0.81101208  0.81146444  1
  Zn  Zn134  1  0.81244802  0.30981120  0.31158262  1
  Zn  Zn135  1  0.81812927  0.30953047  0.81632872  1
  Zn  Zn136  1  0.81253518  0.81252608  0.31015992  1
  Zn  Zn137  1  0.80973464  0.81143150  0.81335534  1
  Zn  Zn138  1  0.18634450  0.43600262  0.43667642  1
  Zn  Zn139  1  0.18834126  0.44282301  0.93883117  1
  Zn  Zn140  1  0.18858747  0.93766965  0.43725150  1
  Zn  Zn141  1  0.18889091  0.93778049  0.93765228  1
  Zn  Zn142  1  0.68703771  0.43914299  0.44014592  1
  Zn  Zn143  1  0.69044106  0.44078732  0.93726172  1
  Zn  Zn144  1  0.68577479  0.93782433  0.43696460  1
  Zn  Zn145  1  0.68742915  0.94047139  0.93808399  1
  Zn  Zn146  1  0.31175171  0.05959994  0.06362425  1
  Zn  Zn147  1  0.31167083  0.06197473  0.56330980  1
  Zn  Zn148  1  0.31305206  0.56015044  0.06178317  1
  Zn  Zn149  1  0.31093227  0.56143167  0.56349973  1
  Zn  Zn150  1  0.81109675  0.06375614  0.05923682  1
  Zn  Zn151  1  0.81311531  0.06747303  0.56265262  1
  Zn  Zn152  1  0.81138136  0.56227963  0.06151595  1
  Zn  Zn153  1  0.80914027  0.56183375  0.56500743  1
  Zn  Zn154  1  0.43803940  0.43690310  0.18663734  1
  Zn  Zn155  1  0.43854428  0.43801987  0.68890380  1
  Zn  Zn156  1  0.43614354  0.93802105  0.18638701  1
  Zn  Zn157  1  0.43889988  0.93861136  0.68703672  1
  Zn  Zn158  1  0.93783375  0.43479189  0.19084190  1
  Zn  Zn159  1  0.93695060  0.43635061  0.68941597  1
  Zn  Zn160  1  0.93812993  0.93635077  0.18827371  1
  Zn  Zn161  1  0.93986101  0.93735524  0.68664640  1
  Zn  Zn162  1  0.06271641  0.06119302  0.31315116  1
  Zn  Zn163  1  0.06372719  0.06115644  0.81506714  1
  Zn  Zn164  1  0.06465294  0.56039423  0.31180275  1
  Zn  Zn165  1  0.06179546  0.56249151  0.81052019  1
  Zn  Zn166  1  0.56282408  0.06065213  0.31149671  1
  Zn  Zn167  1  0.56158535  0.06471841  0.81200937  1
  Zn  Zn168  1  0.56345183  0.56299305  0.31326838  1
  Zn  Zn169  1  0.56427174  0.55842122  0.81076423  1
  Zn  Zn170  1  0.43875947  0.18727185  0.43598149  1
  Zn  Zn171  1  0.43764704  0.18987750  0.93592290  1
  Zn  Zn172  1  0.43730332  0.68640856  0.43951927  1
  Zn  Zn173  1  0.44130844  0.68935822  0.93771658  1
  Zn  Zn174  1  0.93909512  0.18786731  0.43240554  1
  Zn  Zn175  1  0.93746333  0.18832467  0.93581574  1
  Zn  Zn176  1  0.93371028  0.68990867  0.43981883  1
  Zn  Zn177  1  0.93787689  0.68731720  0.93786755  1
  Zn  Zn178  1  0.06375606  0.31391269  0.06310001  1
  Zn  Zn179  1  0.06067974  0.31228061  0.56393146  1
  Zn  Zn180  1  0.06049406  0.81249510  0.06175273  1
  Zn  Zn181  1  0.06129130  0.81028478  0.56304214  1
  Zn  Zn182  1  0.56297453  0.31156653  0.06086383  1
  Zn  Zn183  1  0.56196022  0.30957181  0.55986547  1
  Zn  Zn184  1  0.55963521  0.81095811  0.06128911  1
  Zn  Zn185  1  0.56275516  0.81254410  0.56166228  1
  O  O186  1  0.13229363  0.11321955  0.11416422  1
  O  O187  1  0.12493113  0.11734158  0.61734877  1
  O  O188  1  0.11667325  0.62654659  0.11782390  1
  O  O189  1  0.11671753  0.61672825  0.62702415  1
  O  O190  1  0.61905546  0.12329312  0.11705309  1
  O  O191  1  0.62487395  0.11476070  0.61890293  1
  O  O192  1  0.61954082  0.62089196  0.11884067  1
  O  O193  1  0.61364460  0.62318932  0.62539166  1
  O  O194  1  0.37598639  0.38187795  0.38159447  1
  O  O195  1  0.38140497  0.38047557  0.88042958  1
  O  O196  1  0.37974152  0.87494802  0.38177073  1
  O  O197  1  0.37942379  0.87931968  0.87915412  1
  O  O198  1  0.89001549  0.37258368  0.37063029  1
  O  O199  1  0.88449310  0.38308122  0.87828371  1
  O  O200  1  0.87902731  0.88060780  0.37962782  1
  O  O201  1  0.87902685  0.88262534  0.87977720  1
  O  O202  1  0.25168494  0.00794673  0.37117233  1
  O  O203  1  0.25719387  0.00579022  0.87383490  1
  O  O204  1  0.25581498  0.50490475  0.37064303  1
  O  O205  1  0.25635467  0.51230841  0.87307257  1
  O  O206  1  0.75572872  0.00375118  0.36892365  1
  O  O207  1  0.76206760  0.00951681  0.88219987  1
  O  O208  1  0.74419037  0.51075656  0.36547951  1
  O  O209  1  0.75559651  0.50422482  0.86460569  1
  O  O210  1  0.24903239  0.49370643  0.13247296  1
  O  O211  1  0.24071167  0.49414517  0.62899256  1
  O  O212  1  0.23850272  0.98923647  0.12595656  1
  O  O213  1  0.24272047  0.99160589  0.62607687  1
  O  O214  1  0.74624425  0.49596965  0.13477782  1
  O  O215  1  0.73896788  0.50502446  0.63604221  1
  O  O216  1  0.75176918  0.98948406  0.12824873  1
  O  O217  1  0.73845399  0.99084093  0.61656626  1
  O  O218  1  0.00806146  0.37149869  0.25817621  1
  O  O219  1  0.01068515  0.36787484  0.75736971  1
  O  O220  1  0.00612858  0.87305454  0.25730559  1
  O  O221  1  0.00560877  0.86912650  0.75599615  1
  O  O222  1  0.50712181  0.36813400  0.25032828  1
  O  O223  1  0.49176780  0.36455579  0.76055313  1
  O  O224  1  0.49825702  0.86843549  0.25578616  1
  O  O225  1  0.50885752  0.87531819  0.75515733  1
  O  O226  1  0.49344796  0.12936396  0.24484433  1
  O  O227  1  0.49218863  0.13487852  0.74898892  1
  O  O228  1  0.49397006  0.63014884  0.24519320  1
  O  O229  1  0.49495174  0.62574661  0.74065781  1
  O  O230  1  0.98556883  0.12533676  0.25434086  1
  O  O231  1  1.00383456  0.13620653  0.75272079  1
  O  O232  1  0.99866786  0.62508908  0.23835535  1
  O  O233  1  0.99054879  0.62935460  0.74390398  1
  O  O234  1  0.36785218  0.25673135  0.00102659  1
  O  O235  1  0.36975006  0.25469197  0.50482143  1
  O  O236  1  0.38176890  0.75837663  0.00895341  1
  O  O237  1  0.36871147  0.75495236  0.50597442  1
  O  O238  1  0.86907465  0.24975787  0.00811430  1
  O  O239  1  0.86017940  0.24568254  0.49556190  1
  O  O240  1  0.87563947  0.75640001  0.01010085  1
  O  O241  1  0.86645789  0.76034108  0.50317937  1
  O  O242  1  0.13100934  0.24448612  0.49511603  1
  O  O243  1  0.12951834  0.23939245  1.00126564  1
  O  O244  1  0.13148535  0.74816081  0.49373841  1
  O  O245  1  0.11742117  0.73723008  0.99344985  1
  O  O246  1  0.63342553  0.24462514  0.49350407  1
  O  O247  1  0.63268287  0.24289843  0.99731407  1
  O  O248  1  0.63102236  0.74887657  0.49258947  1
  O  O249  1  0.62512700  0.73816429  1.00031823  1
  O  O250  1  0.49883633  0.24284255  0.13154985  1
  O  O251  1  0.49326366  0.24938125  0.63255269  1
  O  O252  1  0.49278861  0.74428253  0.13166452  1
  O  O253  1  0.49410518  0.74047760  0.62422760  1
  O  O254  1  0.98554158  0.25454595  0.12521524  1
  O  O255  1  1.00493623  0.24593903  0.63896627  1
  O  O256  1  0.99170323  0.74184443  0.12535855  1
  O  O257  1  0.99846833  0.74141185  0.63347671  1
  O  O258  1  0.00680695  0.25935945  0.37001254  1
  O  O259  1  0.00474623  0.25715559  0.86920514  1
  O  O260  1  0.00528791  0.75584444  0.37532490  1
  O  O261  1  0.00548752  0.75608122  0.87068196  1
  O  O262  1  0.50830026  0.25158416  0.36769221  1
  O  O263  1  0.50139663  0.25795644  0.86646283  1
  O  O264  1  0.50328218  0.75398393  0.37043912  1
  O  O265  1  0.50478071  0.76015645  0.87174239  1
  O  O266  1  0.24476853  0.13045860  0.49416691  1
  O  O267  1  0.24336983  0.12885884  0.99643536  1
  O  O268  1  0.24889964  0.63115660  0.49361106  1
  O  O269  1  0.23947818  0.61964431  0.99167569  1
  O  O270  1  0.74365676  0.13141879  0.49104616  1
  O  O271  1  0.74447921  0.13058318  0.99135522  1
  O  O272  1  0.74858557  0.63470902  0.49024572  1
  O  O273  1  0.73817547  0.62623004  0.99994387  1
  O  O274  1  0.25373204  0.37104112  0.00420916  1
  O  O275  1  0.25496113  0.36887158  0.50549437  1
  O  O276  1  0.25542054  0.87896694  0.01164898  1
  O  O277  1  0.25496424  0.86833503  0.50589789  1
  O  O278  1  0.75190140  0.36903827  0.00656806  1
  O  O279  1  0.75226786  0.35862012  0.49104164  1
  O  O280  1  0.75618011  0.87543913  0.00918500  1
  O  O281  1  0.75397326  0.87259677  0.50736393  1
  O  O282  1  0.13432230  0.49299416  0.24802139  1
  O  O283  1  0.12610035  0.48924408  0.74280888  1
  O  O284  1  0.12316601  0.99457649  0.23907276  1
  O  O285  1  0.12533197  0.99214288  0.74420555  1
  O  O286  1  0.63347445  0.49571254  0.24506322  1
  O  O287  1  0.63632107  0.50359816  0.74193817  1
  O  O288  1  0.63364784  0.99724676  0.24542971  1
  O  O289  1  0.61882216  0.99163108  0.73789882  1
  O  O290  1  0.37397469  0.01305208  0.25152634  1
  O  O291  1  0.37409267  0.00677149  0.75595111  1
  O  O292  1  0.37075970  0.50535099  0.25612177  1
  O  O293  1  0.37301547  0.50715763  0.75680279  1
  O  O294  1  0.87058139  0.00604196  0.25318540  1
  O  O295  1  0.88471566  0.00190602  0.76559081  1
  O  O296  1  0.86197532  0.50145132  0.25456078  1
  O  O297  1  0.86673600  0.50784245  0.75408392  1
  O  O298  1  0.11759567  0.36962650  0.37015412  1
  O  O299  1  0.12184270  0.37707339  0.86676796  1
  O  O300  1  0.12003658  0.86988177  0.37014037  1
  O  O301  1  0.12036951  0.87041058  0.87148314  1
  O  O302  1  0.62414440  0.36954758  0.36740625  1
  O  O303  1  0.61102974  0.37490981  0.88122698  1
  O  O304  1  0.61710338  0.86858829  0.37322778  1
  O  O305  1  0.62047579  0.88051990  0.86482668  1
  O  O306  1  0.37983556  0.12598175  0.13361678  1
  O  O307  1  0.37509463  0.13195115  0.63114488  1
  O  O308  1  0.37902972  0.62886630  0.12998592  1
  O  O309  1  0.38355806  0.62773548  0.62998734  1
  O  O310  1  0.86783277  0.13328310  0.13302217  1
  O  O311  1  0.87857636  0.13095585  0.63021225  1
  O  O312  1  0.88277738  0.63340542  0.12365915  1
  O  O313  1  0.88171795  0.62616185  0.63538623  1
  O  O314  1  0.25236458  0.25762461  0.11773392  1
  O  O315  1  0.25451132  0.25608048  0.61922399  1
  O  O316  1  0.25508360  0.76053213  0.13011044  1
  O  O317  1  0.25480193  0.75371912  0.62035025  1
  O  O318  1  0.75837048  0.25517030  0.11938577  1
  O  O319  1  0.74863197  0.24461436  0.60655545  1
  O  O320  1  0.75881589  0.75835493  0.12383583  1
  O  O321  1  0.75010487  0.76343169  0.61814213  1
  O  O322  1  0.24413450  0.24477568  0.38103420  1
  O  O323  1  0.24774001  0.24284212  0.88299918  1
  O  O324  1  0.24462817  0.74445003  0.37988157  1
  O  O325  1  0.24445507  0.73739063  0.87191263  1
  O  O326  1  0.74469141  0.24312075  0.38080539  1
  O  O327  1  0.75026511  0.24202820  0.88212238  1
  O  O328  1  0.74453789  0.74486990  0.37730217  1
  O  O329  1  0.74437589  0.74581091  0.87919237  1
  O  O330  1  0.00990174  0.11387048  -0.00633298  1
  O  O331  1  0.00699473  0.11839170  0.49786731  1
  O  O332  1  0.00703263  0.62062732  0.00784433  1
  O  O333  1  -0.00115404  0.63115565  0.51607953  1
  O  O334  1  0.50374082  0.12096195  0.00363911  1
  O  O335  1  0.50731358  0.11967820  0.50136814  1
  O  O336  1  0.50838171  0.62184220  0.00704851  1
  O  O337  1  0.49986433  0.61782520  0.51132414  1
  O  O338  1  0.49266654  0.38115899  0.49819758  1
  O  O339  1  0.49303585  0.37469623  0.99090878  1
  O  O340  1  0.49389769  0.87928574  0.49483183  1
  O  O341  1  0.49417952  0.88156061  0.99457026  1
  O  O342  1  0.99912874  0.36853125  0.48380111  1
  O  O343  1  1.00140754  0.38344289  0.99448340  1
  O  O344  1  0.99363466  0.88041636  0.49511398  1
  O  O345  1  0.99525061  0.88384156  0.99414770  1
  O  O346  1  0.49439582  0.50032245  0.38285850  1
  O  O347  1  0.49361728  0.49044280  0.87470137  1
  O  O348  1  0.49828111  0.99281849  0.38151678  1
  O  O349  1  0.49344164  0.99520083  0.88037715  1
  O  O350  1  1.00042335  0.48430097  0.36991723  1
  O  O351  1  0.99489237  0.49621170  0.87911763  1
  O  O352  1  0.99449531  0.99305057  0.38037515  1
  O  O353  1  0.99386752  0.99431484  0.88521485  1
  O  O354  1  0.01063760  -0.00857906  0.11334274  1
  O  O355  1  0.00684737  0.00079063  0.61710208  1
  O  O356  1  -0.00130782  0.51034818  0.12046744  1
  O  O357  1  0.00967669  0.51038301  0.63430638  1
  O  O358  1  0.50009423  0.00631027  0.11738422  1
  O  O359  1  0.51051285  0.00073432  0.61712770  1
  O  O360  1  0.50742862  0.50673083  0.12492158  1
  O  O361  1  0.50799953  0.50706456  0.62305030  1
  O  O362  1  0.24586370  0.37913824  0.24567993  1
  O  O363  1  0.24114460  0.37398416  0.74520752  1
  O  O364  1  0.24325796  0.87765598  0.23934586  1
  O  O365  1  0.24294888  0.87493482  0.74362973  1
  O  O366  1  0.74511508  0.38292243  0.24644685  1
  O  O367  1  0.75499657  0.38393654  0.75485885  1
  O  O368  1  0.75054020  0.88070613  0.23900772  1
  O  O369  1  0.74153641  0.87331888  0.73840212  1
  O  O370  1  0.25919799  0.12471568  0.25443551  1
  O  O371  1  0.25565714  0.12461518  0.75784497  1
  O  O372  1  0.25561399  0.61933746  0.25616543  1
  O  O373  1  0.25594865  0.62368725  0.76054970  1
  O  O374  1  0.75887271  0.11868911  0.25395624  1
  O  O375  1  0.75047045  0.13258668  0.76456455  1
  O  O376  1  0.74940033  0.61794794  0.25692192  1
  O  O377  1  0.76219233  0.62563786  0.74917629  1
  O  O378  1  0.36934615  0.12465748  0.36573619  1
  O  O379  1  0.37008385  0.11922102  0.87076690  1
  O  O380  1  0.36944234  0.61977166  0.36965825  1
  O  O381  1  0.36928592  0.62206838  0.87244083  1
  O  O382  1  0.86960424  0.11863009  0.36488385  1
  O  O383  1  0.86735225  0.11683799  0.87564930  1
  O  O384  1  0.86272012  0.62809698  0.37052615  1
  O  O385  1  0.87711213  0.61899642  0.86506982  1
  O  O386  1  0.13182087  0.37748285  0.13174024  1
  O  O387  1  0.12844568  0.38161648  0.63270311  1
  O  O388  1  0.13059768  0.87963780  0.12750136  1
  O  O389  1  0.12957317  0.87892981  0.63026340  1
  O  O390  1  0.63154540  0.38027474  0.13037345  1
  O  O391  1  0.61961675  0.38600215  0.62373226  1
  O  O392  1  0.63668217  0.87474899  0.12469050  1
  O  O393  1  0.63079193  0.88305369  0.63013408  1
  O  O394  1  0.12440743  0.25490759  0.25556567  1
  O  O395  1  0.12022749  0.26068624  0.75273582  1
  O  O396  1  0.12247969  0.75610179  0.25810457  1
  O  O397  1  0.11913279  0.75513553  0.75750521  1
  O  O398  1  0.62247874  0.25437104  0.25409056  1
  O  O399  1  0.61030333  0.24517193  0.74976779  1
  O  O400  1  0.61644843  0.75247454  0.25599470  1
  O  O401  1  0.62189729  0.76612939  0.74919675  1
  O  O402  1  0.38151686  0.23932860  0.24928336  1
  O  O403  1  0.38204769  0.24460466  0.74458834  1
  O  O404  1  0.37912379  0.74306693  0.24332640  1
  O  O405  1  0.37763135  0.74293406  0.74232688  1
  O  O406  1  0.87371142  0.24005230  0.24070074  1
  O  O407  1  0.88953955  0.24621464  0.75310517  1
  O  O408  1  0.87771025  0.74890741  0.23643449  1
  O  O409  1  0.88081299  0.74231748  0.74964026  1
  O  O410  1  0.38011571  0.49440757  0.49638634  1
  O  O411  1  0.37761235  0.49332545  0.99248869  1
  O  O412  1  0.38118997  0.99295799  0.49997452  1
  O  O413  1  0.37994721  0.99286513  0.99417928  1
  O  O414  1  0.86093413  0.49862585  0.49090777  1
  O  O415  1  0.88112273  0.50014475  0.99293338  1
  O  O416  1  0.87953924  0.99640004  0.49307890  1
  O  O417  1  0.88387033  0.99680594  0.99369501  1
  O  O418  1  0.11844252  0.00506236  0.00636528  1
  O  O419  1  0.11939643  0.00422661  0.50438036  1
  O  O420  1  0.11779177  0.51321828  0.00213533  1
  O  O421  1  0.12852790  0.50057234  0.51460767  1
  O  O422  1  0.61688024  0.00746986  0.00167734  1
  O  O423  1  0.61934401  0.00469064  0.50682274  1
  O  O424  1  0.62470794  0.50906894  0.00768701  1
  O  O425  1  0.62069508  0.50288606  0.51121311  1
  O  O426  1  0.36860649  0.37391240  0.11807075  1
  O  O427  1  0.36906681  0.37051822  0.61995986  1
  O  O428  1  0.36609366  0.87035806  0.12049442  1
  O  O429  1  0.37001087  0.86910260  0.62018314  1
  O  O430  1  0.86843083  0.36566135  0.12524783  1
  O  O431  1  0.88454382  0.36388908  0.62508394  1
  O  O432  1  0.86890032  0.86842278  0.12001401  1
  O  O433  1  0.86524567  0.87798456  0.62040283  1
  O  O434  1  0.12996005  0.12991411  0.37957531  1
  O  O435  1  0.13235484  0.12285011  0.88857951  1
  O  O436  1  0.13041021  0.63007777  0.37725831  1
  O  O437  1  0.13128334  0.62908618  0.88101075  1
  O  O438  1  0.63067978  0.13007230  0.37819865  1
  O  O439  1  0.63416232  0.12492254  0.88050589  1
  O  O440  1  0.63456517  0.63206228  0.37642385  1
  O  O441  1  0.62288160  0.62459778  0.88629813  1
