# generated using pymatgen
data_V93Zn93O256
_symmetry_space_group_name_H-M   'P 1'
_cell_length_a   17.04693324
_cell_length_b   17.04493322
_cell_length_c   17.04608214
_cell_angle_alpha   89.94881525
_cell_angle_beta   90.03099604
_cell_angle_gamma   90.00336217
_symmetry_Int_Tables_number   1
_chemical_formula_structural   V93Zn93O256
_chemical_formula_sum   'V93 Zn93 O256'
_cell_volume   4952.97235187
_cell_formula_units_Z   1
loop_
 _symmetry_equiv_pos_site_id
 _symmetry_equiv_pos_as_xyz
  1  'x, y, z'
loop_
 _atom_site_type_symbol
 _atom_site_label
 _atom_site_symmetry_multiplicity
 _atom_site_fract_x
 _atom_site_fract_y
 _atom_site_fract_z
 _atom_site_occupancy
  V  V0  1  0.62515472  0.75038252  0.37582782  1
  V  V1  1  0.50106622  0.75199652  0.75029071  1
  V  V2  1  0.12268566  0.00130495  0.12564106  1
  V  V3  1  0.12437669  0.74893630  0.87687692  1
  V  V4  1  -0.00112732  0.12471596  0.62487792  1
  V  V5  1  0.74734404  0.12636302  0.37606802  1
  V  V6  1  0.62541727  0.12747155  -0.00022102  1
  V  V7  1  0.75002063  0.87369828  0.12527872  1
  V  V8  1  0.24675341  0.37840917  0.12555633  1
  V  V9  1  0.24977898  0.00001189  0.75049511  1
  V  V10  1  0.37486898  0.00039680  0.87660696  1
  V  V11  1  0.37571834  0.24962505  0.12653103  1
  V  V12  1  0.00020189  0.49803480  0.49954578  1
  V  V13  1  0.50218834  0.37350573  0.37246967  1
  V  V14  1  0.75253701  0.62644228  0.87310586  1
  V  V15  1  0.12692547  0.37470210  0.75019303  1
  V  V16  1  0.75226734  0.50095356  0.74854681  1
  V  V17  1  -0.00129011  0.37351393  0.37465761  1
  V  V18  1  0.62577823  0.74948172  0.87586755  1
  V  V19  1  0.37674896  0.36976636  0.50349009  1
  V  V20  1  0.12577453  0.62326215  0.50000149  1
  V  V21  1  0.37717100  0.50009641  0.87645639  1
  V  V22  1  0.87428259  -0.00784917  0.37771032  1
  V  V23  1  0.24927163  0.12596246  0.87563798  1
  V  V24  1  0.87704339  0.74805540  0.12522867  1
  V  V25  1  0.37694834  0.37509783  0.00095117  1
  V  V26  1  0.37505749  0.62473022  0.75174876  1
  V  V27  1  0.62590413  0.50040874  0.62457007  1
  V  V28  1  0.87394316  0.24966119  0.62505630  1
  V  V29  1  0.12102292  0.87302355  0.25225429  1
  V  V30  1  0.24907903  0.74840926  0.00104161  1
  V  V31  1  0.37459015  0.87588835  0.00047050  1
  V  V32  1  0.49838800  0.87528637  0.37596040  1
  V  V33  1  0.12574203  0.24928084  0.87664302  1
  V  V34  1  0.74818619  0.38875845  0.12500177  1
  V  V35  1  0.12463980  0.37462506  0.24871936  1
  V  V36  1  0.87317418  0.25200753  0.12399333  1
  V  V37  1  -0.00050252  0.00037934  0.00120898  1
  V  V38  1  0.00165400  0.37933808  0.87766844  1
  V  V39  1  0.49831911  0.75080815  0.25023195  1
  V  V40  1  0.12450145  0.74960777  0.37470614  1
  V  V41  1  -0.00411984  -0.00736415  0.50002220  1
  V  V42  1  0.74945707  0.12631806  0.87536500  1
  V  V43  1  0.49911786  0.00031020  0.50041245  1
  V  V44  1  0.87457156  0.37292720  0.49972825  1
  V  V45  1  -0.00149555  0.24924426  0.24905425  1
  V  V46  1  0.25045128  0.74935705  0.50163857  1
  V  V47  1  0.87918429  0.50182111  0.87469747  1
  V  V48  1  0.24778760  0.87401192  0.12537147  1
  V  V49  1  0.75557852  0.87696351  0.62022952  1
  V  V50  1  0.75111880  0.37535854  0.62368143  1
  V  V51  1  0.49956539  -0.00012413  0.00018063  1
  V  V52  1  0.25057211  0.24924839  0.50193335  1
  V  V53  1  0.74841880  0.00031213  0.74899002  1
  V  V54  1  0.24927502  0.12410655  0.37647105  1
  V  V55  1  0.25395433  0.37052117  0.62538189  1
  V  V56  1  0.12525308  0.87433889  0.75260532  1
  V  V57  1  0.50135642  0.62541760  0.62401270  1
  V  V58  1  0.12346101  0.12362302  0.50090919  1
  V  V59  1  0.37507062  0.12523450  0.25031978  1
  V  V60  1  0.49611048  0.25152677  0.74582703  1
  V  V61  1  0.50486023  0.61963921  0.12328224  1
  V  V62  1  -0.00242237  0.62509747  0.62655005  1
  V  V63  1  0.74965550  -0.00004676  0.24976517  1
  V  V64  1  0.24971071  0.62382144  0.37554568  1
  V  V65  1  0.87492377  0.87507391  0.00061787  1
  V  V66  1  0.87668532  0.37788186  -0.00121047  1
  V  V67  1  0.75075320  0.75030640  -0.00112864  1
  V  V68  1  0.87447240  0.12576884  0.74978694  1
  V  V69  1  0.87446387  0.00033863  0.87576765  1
  V  V70  1  0.75754838  0.75506588  0.49904665  1
  V  V71  1  0.62354018  0.00143937  0.62504662  1
  V  V72  1  0.24433287  0.49972148  0.24822338  1
  V  V73  1  0.12649279  0.49776764  0.62483978  1
  V  V74  1  0.12227381  0.61028307  0.00404605  1
  V  V75  1  0.37390161  -0.00069579  0.37554087  1
  V  V76  1  0.63079399  0.38725915  0.24415242  1
  V  V77  1  0.37468909  0.12701240  0.74891679  1
  V  V78  1  0.37464803  0.75029732  0.12598519  1
  V  V79  1  0.37474177  0.49951961  0.37538340  1
  V  V80  1  0.00362919  0.61188891  0.12191185  1
  V  V81  1  0.62490929  0.00069646  0.12432272  1
  V  V82  1  0.49466508  0.12939781  0.62378036  1
  V  V83  1  0.25045363  0.62361158  0.87639688  1
  V  V84  1  0.25064508  0.87403568  0.62535319  1
  V  V85  1  0.62382618  0.87532432  0.24977642  1
  V  V86  1  0.87241760  0.49921044  0.37340759  1
  V  V87  1  0.00008846  0.87400173  0.87519981  1
  V  V88  1  0.12353022  0.24844259  0.37539239  1
  V  V89  1  0.74960443  0.62129389  0.37183198  1
  V  V90  1  0.50332647  0.37547833  0.87430057  1
  V  V91  1  0.87420810  0.12551922  0.24820209  1
  V  V92  1  0.87347790  0.61942221  0.24855486  1
  Zn  Zn93  1  0.87580360  0.62946889  0.74789533  1
  Zn  Zn94  1  0.62604510  0.62607328  0.49850215  1
  Zn  Zn95  1  0.50894906  0.49605483  0.00540700  1
  Zn  Zn96  1  0.50055360  0.12548798  0.12557278  1
  Zn  Zn97  1  0.87936805  0.75693040  0.62273118  1
  Zn  Zn98  1  0.12442402  0.12607373  0.00156380  1
  Zn  Zn99  1  0.62546092  0.87622408  0.74960435  1
  Zn  Zn100  1  -0.00019770  0.24900619  0.75036449  1
  Zn  Zn101  1  0.50577477  0.24955036  0.24864566  1
  Zn  Zn102  1  0.37399817  0.62524887  0.24918092  1
  Zn  Zn103  1  0.62744048  0.25131942  0.37249394  1
  Zn  Zn104  1  0.62675258  0.37245272  0.74902898  1
  Zn  Zn105  1  0.62282597  0.12900456  0.49869534  1
  Zn  Zn106  1  0.63244967  0.61888990  0.00733426  1
  Zn  Zn107  1  -0.00000937  0.74637254  0.25095851  1
  Zn  Zn108  1  0.50136748  0.50113854  0.49912852  1
  Zn  Zn109  1  0.49987576  0.87579476  0.87464579  1
  Zn  Zn110  1  0.62664887  0.25139464  0.87341172  1
  Zn  Zn111  1  0.37583837  0.74920462  0.62421250  1
  Zn  Zn112  1  -0.00104184  0.12732927  0.12305002  1
  Zn  Zn113  1  0.74673506  0.24948335  0.50007960  1
  Zn  Zn114  1  0.24973114  0.24866665  0.00154163  1
  Zn  Zn115  1  0.37458651  0.87350766  0.50006996  1
  Zn  Zn116  1  0.24770386  -0.00039521  0.25129718  1
  Zn  Zn117  1  0.74850626  0.25347334  -0.00097448  1
  Zn  Zn118  1  -0.00640336  0.86860631  0.38071308  1
  Zn  Zn119  1  -0.00158453  0.75057405  0.74942174  1
  Zn  Zn120  1  0.25219858  0.49962904  0.74954947  1
  Zn  Zn121  1  0.12315702  -0.00034233  0.62549954  1
  Zn  Zn122  1  0.18850285  0.18834507  0.18905828  1
  Zn  Zn123  1  0.18615838  0.18735441  0.68813393  1
  Zn  Zn124  1  0.18566409  0.68542109  0.18636161  1
  Zn  Zn125  1  0.18613072  0.68763262  0.68955439  1
  Zn  Zn126  1  0.68808585  0.19554468  0.18795452  1
  Zn  Zn127  1  0.68414395  0.18834942  0.68753210  1
  Zn  Zn128  1  0.68776067  0.68762940  0.18991007  1
  Zn  Zn129  1  0.68925882  0.68949038  0.68724534  1
  Zn  Zn130  1  0.31246408  0.31109541  0.31385772  1
  Zn  Zn131  1  0.31459631  0.31190825  0.81285708  1
  Zn  Zn132  1  0.31020672  0.81282226  0.31182182  1
  Zn  Zn133  1  0.31318260  0.81134673  0.81378948  1
  Zn  Zn134  1  0.81034270  0.31287525  0.30966774  1
  Zn  Zn135  1  0.81127792  0.31183470  0.81062597  1
  Zn  Zn136  1  0.81112962  0.80815518  0.30931369  1
  Zn  Zn137  1  0.81436926  0.81316816  0.80680608  1
  Zn  Zn138  1  0.18717894  0.43562353  0.43723866  1
  Zn  Zn139  1  0.19242401  0.43575204  0.93719318  1
  Zn  Zn140  1  0.18531175  0.93801526  0.43883860  1
  Zn  Zn141  1  0.18729121  0.93758005  0.93875216  1
  Zn  Zn142  1  0.68645073  0.43822572  0.43858573  1
  Zn  Zn143  1  0.68847098  0.44115493  0.93854819  1
  Zn  Zn144  1  0.68482242  0.93935065  0.43930158  1
  Zn  Zn145  1  0.68661852  0.93737233  0.93678339  1
  Zn  Zn146  1  0.30853813  0.06266740  0.06223242  1
  Zn  Zn147  1  0.31290169  0.06031851  0.56280061  1
  Zn  Zn148  1  0.31708757  0.56239685  0.06168057  1
  Zn  Zn149  1  0.31417091  0.55977746  0.56330521  1
  Zn  Zn150  1  0.81125322  0.06368352  0.06253524  1
  Zn  Zn151  1  0.81259051  0.06243041  0.56079191  1
  Zn  Zn152  1  0.81696952  0.56393962  0.05832386  1
  Zn  Zn153  1  0.81235459  0.56370381  0.55737933  1
  Zn  Zn154  1  0.43622674  0.43727898  0.19064014  1
  Zn  Zn155  1  0.43759596  0.43958205  0.68931630  1
  Zn  Zn156  1  0.43678918  0.93901918  0.18706126  1
  Zn  Zn157  1  0.43602024  0.93922436  0.68741763  1
  Zn  Zn158  1  0.93574364  0.43681124  0.18806878  1
  Zn  Zn159  1  0.93916689  0.43633562  0.68952250  1
  Zn  Zn160  1  0.93742840  0.93702360  0.18923728  1
  Zn  Zn161  1  0.93741400  0.93926616  0.68879177  1
  Zn  Zn162  1  0.05905037  0.06160374  0.31310581  1
  Zn  Zn163  1  0.06211763  0.06166945  0.81194177  1
  Zn  Zn164  1  0.06025710  0.56238080  0.31101465  1
  Zn  Zn165  1  0.06628879  0.56217576  0.81145541  1
  Zn  Zn166  1  0.56121873  0.06158693  0.31204390  1
  Zn  Zn167  1  0.56188914  0.06361700  0.81250893  1
  Zn  Zn168  1  0.56234432  0.56414110  0.30898627  1
  Zn  Zn169  1  0.56549502  0.56231226  0.81304681  1
  Zn  Zn170  1  0.43700546  0.18853156  0.43708033  1
  Zn  Zn171  1  0.43830073  0.18917345  0.93715030  1
  Zn  Zn172  1  0.43617906  0.68887983  0.43907982  1
  Zn  Zn173  1  0.43741569  0.68840694  0.93933791  1
  Zn  Zn174  1  0.93450993  0.18357676  0.43780285  1
  Zn  Zn175  1  0.93876013  0.18908007  0.93870708  1
  Zn  Zn176  1  0.93798943  0.68664447  0.43778928  1
  Zn  Zn177  1  0.94105343  0.68635782  0.94022136  1
  Zn  Zn178  1  0.06109449  0.31525166  0.06165932  1
  Zn  Zn179  1  0.06258603  0.31032302  0.56350061  1
  Zn  Zn180  1  0.06080323  0.80678360  0.06308966  1
  Zn  Zn181  1  0.06604464  0.81105434  0.56352864  1
  Zn  Zn182  1  0.56305658  0.31262426  0.06428751  1
  Zn  Zn183  1  0.56504873  0.31114237  0.55934924  1
  Zn  Zn184  1  0.56190579  0.81044136  0.06198524  1
  Zn  Zn185  1  0.56828812  0.81444933  0.56114604  1
  O  O186  1  0.12424714  0.11361287  0.12631356  1
  O  O187  1  0.11799883  0.12352594  0.61917158  1
  O  O188  1  0.11611884  0.62910477  0.11616406  1
  O  O189  1  0.11880148  0.61843666  0.61937633  1
  O  O190  1  0.62607233  0.12008246  0.11660472  1
  O  O191  1  0.61199685  0.11924271  0.62438253  1
  O  O192  1  0.60920074  0.63299257  0.12700972  1
  O  O193  1  0.61751221  0.61741680  0.62568970  1
  O  O194  1  0.38105489  0.38196773  0.38091021  1
  O  O195  1  0.38332262  0.37897746  0.88062572  1
  O  O196  1  0.38041235  0.88142453  0.37479323  1
  O  O197  1  0.37501676  0.88188053  0.88270358  1
  O  O198  1  0.87924419  0.37918226  0.37830680  1
  O  O199  1  0.88207932  0.38063255  0.87939989  1
  O  O200  1  0.87400608  0.88809710  0.36624990  1
  O  O201  1  0.87917123  0.88105048  0.88088754  1
  O  O202  1  0.25515161  0.00673963  0.37467683  1
  O  O203  1  0.25481617  0.00543521  0.87018335  1
  O  O204  1  0.25692393  0.50226502  0.36896552  1
  O  O205  1  0.25947558  0.50571642  0.87334462  1
  O  O206  1  0.75556630  0.00574470  0.36989240  1
  O  O207  1  0.75521333  0.00518972  0.86995981  1
  O  O208  1  0.75610053  0.51398274  0.38347243  1
  O  O209  1  0.76011908  0.50564448  0.86771504  1
  O  O210  1  0.26055503  0.48911374  0.13709631  1
  O  O211  1  0.24462172  0.48768773  0.62420307  1
  O  O212  1  0.23852329  0.99299862  0.12671708  1
  O  O213  1  0.24807958  0.99077700  0.63149474  1
  O  O214  1  0.75677156  0.48774327  0.11989732  1
  O  O215  1  0.74399110  0.49715428  0.62754119  1
  O  O216  1  0.74494062  0.99326694  0.13035133  1
  O  O217  1  0.74423697  0.99594155  0.62809364  1
  O  O218  1  0.00435878  0.36959317  0.25529195  1
  O  O219  1  0.00752807  0.37189528  0.76008302  1
  O  O220  1  0.01139696  0.87112114  0.25215642  1
  O  O221  1  0.00709827  0.87602593  0.75693719  1
  O  O222  1  0.50942219  0.37523026  0.25666692  1
  O  O223  1  0.49899580  0.36722107  0.75613299  1
  O  O224  1  0.50462786  0.87087243  0.25546522  1
  O  O225  1  0.50059310  0.86343837  0.75037649  1
  O  O226  1  0.48689021  0.12684901  0.24881498  1
  O  O227  1  0.49468839  0.13183405  0.74342180  1
  O  O228  1  0.49672250  0.63200365  0.24084322  1
  O  O229  1  0.49675349  0.63339672  0.74294180  1
  O  O230  1  0.99219178  0.13182792  0.24861368  1
  O  O231  1  0.99219790  0.12421984  0.74360795  1
  O  O232  1  0.99186854  0.62596805  0.24263405  1
  O  O233  1  1.00192427  0.62473355  0.73724981  1
  O  O234  1  0.37334374  0.25520319  0.01032217  1
  O  O235  1  0.36789096  0.26326124  0.49334014  1
  O  O236  1  0.36827117  0.75625007  0.00546121  1
  O  O237  1  0.36621770  0.75304477  0.50382200  1
  O  O238  1  0.87427632  0.26220080  0.00404005  1
  O  O239  1  0.87339348  0.25569315  0.50664302  1
  O  O240  1  0.86980899  0.75616424  0.00476261  1
  O  O241  1  0.86220658  0.74741480  0.50105463  1
  O  O242  1  0.12972464  0.24375157  0.49396111  1
  O  O243  1  0.12628689  0.25038647  0.98788459  1
  O  O244  1  0.13162493  0.74259534  0.49437720  1
  O  O245  1  0.13211357  0.74356973  0.99455238  1
  O  O246  1  0.62886496  0.24671989  0.49104438  1
  O  O247  1  0.62508483  0.23793272  0.99932825  1
  O  O248  1  0.63527510  0.74768995  0.49232157  1
  O  O249  1  0.63159401  0.74727509  0.99113012  1
  O  O250  1  0.48634567  0.24854601  0.12736048  1
  O  O251  1  0.50399144  0.24084698  0.63273723  1
  O  O252  1  0.49359688  0.74462577  0.13133986  1
  O  O253  1  0.50287347  0.74212740  0.63326828  1
  O  O254  1  0.99255973  0.25128997  0.13125381  1
  O  O255  1  0.99310368  0.24300756  0.62705099  1
  O  O256  1  0.99184224  0.74003647  0.12747898  1
  O  O257  1  1.00021816  0.73831576  0.62306023  1
  O  O258  1  0.00335347  0.25415540  0.36979264  1
  O  O259  1  0.00869152  0.25981301  0.87330490  1
  O  O260  1  0.00771602  0.75135564  0.37428684  1
  O  O261  1  0.00639966  0.75734343  0.87536692  1
  O  O262  1  0.49812285  0.26464694  0.37261674  1
  O  O263  1  0.50088399  0.25990986  0.86671876  1
  O  O264  1  0.50465460  0.75461335  0.37049997  1
  O  O265  1  0.50801177  0.74883649  0.86681407  1
  O  O266  1  0.24506438  0.12953223  0.49664018  1
  O  O267  1  0.24528606  0.12810492  0.99174896  1
  O  O268  1  0.24497070  0.62781602  0.49597914  1
  O  O269  1  0.24364035  0.62908945  0.99689997  1
  O  O270  1  0.74815698  0.12466645  0.48765380  1
  O  O271  1  0.74045156  0.12534591  0.99422773  1
  O  O272  1  0.74887857  0.63518617  0.48927392  1
  O  O273  1  0.75267319  0.63366028  0.99187925  1
  O  O274  1  0.25766865  0.37415346  0.01098727  1
  O  O275  1  0.25672919  0.36989997  0.50600817  1
  O  O276  1  0.25469441  0.86891050  0.00600453  1
  O  O277  1  0.24787921  0.86912899  0.51015975  1
  O  O278  1  0.75962486  0.37409716  0.00496967  1
  O  O279  1  0.75778547  0.37457698  0.50554782  1
  O  O280  1  0.75540377  0.87035069  0.00588394  1
  O  O281  1  0.74392728  0.86719444  0.50769563  1
  O  O282  1  0.13769213  0.49199252  0.25867371  1
  O  O283  1  0.12993087  0.49206764  0.74332287  1
  O  O284  1  0.12363952  0.99153170  0.24276142  1
  O  O285  1  0.13261725  0.99276759  0.74969366  1
  O  O286  1  0.62270720  0.48615642  0.25109841  1
  O  O287  1  0.63212109  0.49926589  0.73899466  1
  O  O288  1  0.62951620  0.99433186  0.24409354  1
  O  O289  1  0.63060405  1.00003898  0.74398579  1
  O  O290  1  0.37194546  0.00950655  0.25491494  1
  O  O291  1  0.36930631  0.00624069  0.75704798  1
  O  O292  1  0.36406083  0.49847628  0.26231622  1
  O  O293  1  0.37397711  0.50761866  0.75753304  1
  O  O294  1  0.86920255  0.00523205  0.25623655  1
  O  O295  1  0.86843027  0.00637581  0.75686308  1
  O  O296  1  0.87836897  0.51182319  0.25704566  1
  O  O297  1  0.87077858  0.50076449  0.75971733  1
  O  O298  1  0.11877005  0.36765657  0.37019548  1
  O  O299  1  0.12026221  0.36976745  0.87193177  1
  O  O300  1  0.12514949  0.86904013  0.36612697  1
  O  O301  1  0.12023293  0.86947250  0.87217030  1
  O  O302  1  0.61802983  0.37802237  0.36509379  1
  O  O303  1  0.61431925  0.37445966  0.87170237  1
  O  O304  1  0.61850707  0.87123315  0.36882408  1
  O  O305  1  0.62323042  0.86244488  0.87318706  1
  O  O306  1  0.37178175  0.13258739  0.13342586  1
  O  O307  1  0.38700515  0.11864911  0.63199778  1
  O  O308  1  0.38362756  0.63308772  0.12764507  1
  O  O309  1  0.38563074  0.62406385  0.63108624  1
  O  O310  1  0.87385945  0.13282904  0.13079984  1
  O  O311  1  0.87871303  0.12968410  0.63008696  1
  O  O312  1  0.88096502  0.62772350  0.13093924  1
  O  O313  1  0.88894195  0.62200238  0.62309344  1
  O  O314  1  0.25988933  0.25946627  0.12636562  1
  O  O315  1  0.24440375  0.26283662  0.61884713  1
  O  O316  1  0.25461632  0.75464080  0.12054492  1
  O  O317  1  0.25031934  0.75766184  0.62094034  1
  O  O318  1  0.75772638  0.26338441  0.12196156  1
  O  O319  1  0.75554551  0.25675897  0.62463305  1
  O  O320  1  0.75593868  0.75419623  0.11973751  1
  O  O321  1  0.74936354  0.75901065  0.61595606  1
  O  O322  1  0.24335475  0.24442474  0.38131573  1
  O  O323  1  0.24138412  0.24619880  0.87604647  1
  O  O324  1  0.24498544  0.74303432  0.38084359  1
  O  O325  1  0.24541714  0.74303749  0.88169434  1
  O  O326  1  0.75298874  0.23663131  0.37459038  1
  O  O327  1  0.74687987  0.24263636  0.87695483  1
  O  O328  1  0.74573042  0.74341075  0.38073977  1
  O  O329  1  0.74436177  0.74717055  0.87810297  1
  O  O330  1  0.00301257  0.11685123  0.00267697  1
  O  O331  1  0.00411349  0.11625620  0.50481621  1
  O  O332  1  0.01042384  0.62787878  0.00905737  1
  O  O333  1  0.00611511  0.61750440  0.50661320  1
  O  O334  1  0.50892920  0.11926401  0.00114467  1
  O  O335  1  0.49728501  0.12057316  0.50836905  1
  O  O336  1  0.49962673  0.62793243  0.01631599  1
  O  O337  1  0.50168271  0.62410331  0.51197774  1
  O  O338  1  0.49246981  0.37772723  0.49208543  1
  O  O339  1  0.49575789  0.37411074  0.99077007  1
  O  O340  1  0.49873871  0.88095939  0.49389745  1
  O  O341  1  0.49262470  0.88120500  0.99924386  1
  O  O342  1  0.99521206  0.37861175  0.49405105  1
  O  O343  1  0.99033036  0.37281047  0.98871429  1
  O  O344  1  1.00628956  0.88822408  0.50048288  1
  O  O345  1  0.99367035  0.87968426  0.99561217  1
  O  O346  1  0.49094265  0.49240492  0.37438094  1
  O  O347  1  0.49445977  0.48896570  0.87002100  1
  O  O348  1  0.49403936  0.99485106  0.38005915  1
  O  O349  1  0.49280781  0.99857887  0.88122715  1
  O  O350  1  0.99423368  0.49303806  0.38004639  1
  O  O351  1  0.99212644  0.48922420  0.86757129  1
  O  O352  1  0.99057402  0.99809979  0.38257189  1
  O  O353  1  0.99419104  0.99401347  0.88107405  1
  O  O354  1  0.00790452  0.00027498  0.12063927  1
  O  O355  1  -0.00066035  0.00590530  0.61626866  1
  O  O356  1  -0.00399877  0.51246618  0.12755811  1
  O  O357  1  0.00652560  0.50461658  0.61902716  1
  O  O358  1  0.50691321  0.00241433  0.11869711  1
  O  O359  1  0.50366741  0.00780841  0.62122586  1
  O  O360  1  0.49238281  0.51684838  0.12801704  1
  O  O361  1  0.50859794  0.50917742  0.62660000  1
  O  O362  1  0.24564778  0.38055447  0.24525964  1
  O  O363  1  0.24760376  0.37482274  0.74045195  1
  O  O364  1  0.23752782  0.87605558  0.24435954  1
  O  O365  1  0.24585958  0.87905139  0.74462288  1
  O  O366  1  0.73816372  0.37476019  0.24286424  1
  O  O367  1  0.74909717  0.38274482  0.74189260  1
  O  O368  1  0.74338767  0.87922317  0.24432238  1
  O  O369  1  0.74745151  0.88281021  0.74017861  1
  O  O370  1  0.25931899  0.12428471  0.25756956  1
  O  O371  1  0.25502079  0.12057489  0.75454479  1
  O  O372  1  0.25027214  0.61514141  0.25579632  1
  O  O373  1  0.25664334  0.62426606  0.75754875  1
  O  O374  1  0.75423076  0.11916007  0.25588806  1
  O  O375  1  0.75462065  0.11969745  0.75481363  1
  O  O376  1  0.76016297  0.63141687  0.26099489  1
  O  O377  1  0.75374256  0.61918723  0.75511785  1
  O  O378  1  0.36968571  0.12081499  0.36812632  1
  O  O379  1  0.36913285  0.12034958  0.87004996  1
  O  O380  1  0.36971333  0.61408731  0.37559638  1
  O  O381  1  0.37080338  0.62047542  0.87204040  1
  O  O382  1  0.86656384  0.11505439  0.36791346  1
  O  O383  1  0.87002274  0.11983825  0.87084759  1
  O  O384  1  0.86942579  0.62035925  0.36753904  1
  O  O385  1  0.87340351  0.61567615  0.87478797  1
  O  O386  1  0.13891161  0.36691968  0.13139191  1
  O  O387  1  0.13291280  0.37831591  0.62914829  1
  O  O388  1  0.12717680  0.88060470  0.13248776  1
  O  O389  1  0.13599285  0.87544119  0.63287133  1
  O  O390  1  0.63129259  0.37254742  0.13639837  1
  O  O391  1  0.63013657  0.38559626  0.62475478  1
  O  O392  1  0.63048600  0.87955593  0.12966653  1
  O  O393  1  0.63475805  0.88380054  0.62718368  1
  O  O394  1  0.11908185  0.25456005  0.25639103  1
  O  O395  1  0.12442981  0.25594377  0.76150280  1
  O  O396  1  0.12508215  0.75741467  0.25587681  1
  O  O397  1  0.12314337  0.75629310  0.75940788  1
  O  O398  1  0.62207274  0.26285246  0.25433353  1
  O  O399  1  0.61084178  0.25165084  0.75264931  1
  O  O400  1  0.61951967  0.75714971  0.25642983  1
  O  O401  1  0.61693289  0.75099705  0.75773232  1
  O  O402  1  0.37524986  0.24208721  0.24342414  1
  O  O403  1  0.38756700  0.24304367  0.75468899  1
  O  O404  1  0.38020115  0.74908863  0.24479245  1
  O  O405  1  0.38576983  0.74367220  0.74977619  1
  O  O406  1  0.87996218  0.24645432  0.24366432  1
  O  O407  1  0.87673318  0.24300337  0.74343067  1
  O  O408  1  0.87661640  0.73760618  0.24425850  1
  O  O409  1  0.88038018  0.74673241  0.74222567  1
  O  O410  1  0.37481442  0.48958786  0.48918294  1
  O  O411  1  0.38260334  0.49295253  0.99406636  1
  O  O412  1  0.38101598  0.99737985  0.49281025  1
  O  O413  1  0.37908647  0.99583890  0.99652632  1
  O  O414  1  0.88160820  0.49289223  0.49335796  1
  O  O415  1  0.87144504  0.48941921  0.98524102  1
  O  O416  1  0.88406617  1.00553981  0.48866553  1
  O  O417  1  0.87890998  0.99433500  0.99575844  1
  O  O418  1  0.11862115  -0.00189610  0.01108247  1
  O  O419  1  0.11467723  0.00701766  0.50098825  1
  O  O420  1  0.13053150  0.51164791  -0.00352971  1
  O  O421  1  0.12003508  0.50342213  0.50392861  1
  O  O422  1  0.62064877  0.00747485  0.00474476  1
  O  O423  1  0.61600769  0.00474942  0.50649478  1
  O  O424  1  0.61937366  0.50895824  -0.00846597  1
  O  O425  1  0.62273077  0.50410084  0.51209468  1
  O  O426  1  0.36834499  0.36744152  0.12350821  1
  O  O427  1  0.36711205  0.38341205  0.61370075  1
  O  O428  1  0.36786001  0.87108927  0.12075277  1
  O  O429  1  0.36164697  0.87331078  0.62495276  1
  O  O430  1  0.86961281  0.37312890  0.11676192  1
  O  O431  1  0.87126154  0.37057925  0.61965342  1
  O  O432  1  0.86944149  0.86952596  0.12114284  1
  O  O433  1  0.85997168  0.87848528  0.62700805  1
  O  O434  1  0.12912598  0.12946703  0.38000321  1
  O  O435  1  0.12947710  0.13453781  0.87394038  1
  O  O436  1  0.13025403  0.62822861  0.38064766  1
  O  O437  1  0.12999125  0.62887967  0.88308583  1
  O  O438  1  0.63622339  0.12401334  0.37281988  1
  O  O439  1  0.63020258  0.12442677  0.88517901  1
  O  O440  1  0.63365955  0.63043111  0.37291090  1
  O  O441  1  0.63239290  0.63797645  0.87302521  1
