# generated using pymatgen
data_V93Zn93O256
_symmetry_space_group_name_H-M   'P 1'
_cell_length_a   17.04623961
_cell_length_b   17.04268246
_cell_length_c   17.04257413
_cell_angle_alpha   90.02247415
_cell_angle_beta   90.04512507
_cell_angle_gamma   90.05919170
_symmetry_Int_Tables_number   1
_chemical_formula_structural   V93Zn93O256
_chemical_formula_sum   'V93 Zn93 O256'
_cell_volume   4951.09583575
_cell_formula_units_Z   1
loop_
 _symmetry_equiv_pos_site_id
 _symmetry_equiv_pos_as_xyz
  1  'x, y, z'
loop_
 _atom_site_type_symbol
 _atom_site_label
 _atom_site_symmetry_multiplicity
 _atom_site_fract_x
 _atom_site_fract_y
 _atom_site_fract_z
 _atom_site_occupancy
  V  V0  1  0.49855869  0.12454292  0.62466158  1
  V  V1  1  0.00023392  0.37586006  0.37445080  1
  V  V2  1  0.62463406  0.75154302  0.87657131  1
  V  V3  1  0.12684849  0.87792863  0.24971847  1
  V  V4  1  0.00143047  0.00151249  -0.00174162  1
  V  V5  1  0.12507264  0.50003827  0.62587914  1
  V  V6  1  0.50095396  0.62769324  0.12929606  1
  V  V7  1  0.50408077  0.36795780  0.87560459  1
  V  V8  1  0.25047545  0.87786577  0.12880094  1
  V  V9  1  0.87509107  0.37476663  -0.00011764  1
  V  V10  1  0.37956939  0.62705417  0.25072861  1
  V  V11  1  0.37429424  0.24967459  0.12462570  1
  V  V12  1  0.49877256  -0.00411401  0.49688971  1
  V  V13  1  0.00023254  0.74971279  0.25009152  1
  V  V14  1  0.12560710  0.75035115  0.37517197  1
  V  V15  1  0.75056685  0.62526136  0.87562547  1
  V  V16  1  0.12603437  0.87474963  0.75199297  1
  V  V17  1  0.75102623  0.62468285  0.37403540  1
  V  V18  1  0.37467104  0.37278951  0.50068279  1
  V  V19  1  0.87371249  0.12505626  0.74953417  1
  V  V20  1  0.75043756  0.37436484  0.12296002  1
  V  V21  1  0.87508069  0.37548071  0.49852366  1
  V  V22  1  0.12586675  0.25005879  0.87513084  1
  V  V23  1  0.49912364  0.11862893  0.11932248  1
  V  V24  1  0.37665865  0.37475543  0.00025212  1
  V  V25  1  -0.00027039  0.87555984  0.87495728  1
  V  V26  1  0.00037767  0.37623168  0.87528743  1
  V  V27  1  0.12796061  0.00170304  0.12844905  1
  V  V28  1  0.12503969  0.12635778  -0.00021161  1
  V  V29  1  0.12520121  0.37590791  0.25083442  1
  V  V30  1  0.62507280  0.37405921  0.24901329  1
  V  V31  1  0.37559801  0.49867042  0.37483246  1
  V  V32  1  0.37565450  0.62513312  0.75306632  1
  V  V33  1  0.62313162  0.12551917  -0.00586432  1
  V  V34  1  0.87429617  0.24958966  0.62360855  1
  V  V35  1  0.24963635  0.25173667  -0.00039413  1
  V  V36  1  0.87029054  0.00025762  0.36701790  1
  V  V37  1  0.87555226  0.75025513  0.62588176  1
  V  V38  1  0.24992760  0.74976366  0.50219708  1
  V  V39  1  0.24769386  0.12390744  0.37517902  1
  V  V40  1  0.62526118  0.62580050  0.00187694  1
  V  V41  1  -0.00059511  0.87469639  0.37478776  1
  V  V42  1  0.61927357  0.87418775  0.24936830  1
  V  V43  1  0.74945658  0.74947304  0.49900246  1
  V  V44  1  0.00024511  0.49988104  0.49994457  1
  V  V45  1  0.62465485  0.87479493  0.75063312  1
  V  V46  1  0.25153144  0.00085360  0.75227619  1
  V  V47  1  0.61801589  0.75004974  0.37036841  1
  V  V48  1  0.87576757  0.75146025  0.12541499  1
  V  V49  1  0.00409095  0.50298290  -0.00067155  1
  V  V50  1  0.75098932  0.49975869  0.24978782  1
  V  V51  1  0.00033245  0.62549553  0.62530945  1
  V  V52  1  -0.00013470  0.74988635  0.75046442  1
  V  V53  1  0.50136257  0.62382912  0.62634022  1
  V  V54  1  0.37127566  -0.00185876  0.37162599  1
  V  V55  1  0.74885636  0.37465641  0.62453076  1
  V  V56  1  0.74913309  0.24925224  0.49757746  1
  V  V57  1  0.37394806  0.24984540  0.62606884  1
  V  V58  1  0.50056945  0.74988852  0.75244096  1
  V  V59  1  -0.00067240  0.12507877  0.62297412  1
  V  V60  1  0.75014731  0.50031145  0.75068439  1
  V  V61  1  0.24748681  0.62574950  0.88257518  1
  V  V62  1  0.25029666  0.50086993  0.75092026  1
  V  V63  1  0.25082026  0.49996780  0.25082145  1
  V  V64  1  0.62516942  0.36630245  0.75342338  1
  V  V65  1  0.37979438  0.75065765  0.13029185  1
  V  V66  1  0.74874895  0.87532125  0.62460393  1
  V  V67  1  0.87186881  0.00240358  0.87442358  1
  V  V68  1  0.62477996  0.24796859  0.37440645  1
  V  V69  1  0.50058664  0.49957541  0.50133979  1
  V  V70  1  0.38108460  0.87781914  0.00212290  1
  V  V71  1  0.62707559  0.00096493  0.12531679  1
  V  V72  1  0.12683127  0.50427296  0.12332852  1
  V  V73  1  0.25145208  0.87479331  0.62570068  1
  V  V74  1  0.87445029  0.87503381  0.49956471  1
  V  V75  1  -0.00207875  0.24912610  0.24733469  1
  V  V76  1  0.12593777  0.37543570  0.74929341  1
  V  V77  1  0.74519866  0.25027801  -0.00820221  1
  V  V78  1  0.75118809  0.88047556  0.13082785  1
  V  V79  1  0.36937370  0.12011104  0.24894420  1
  V  V80  1  0.25109292  0.62546244  0.37596953  1
  V  V81  1  0.49922662  0.24831631  0.25005558  1
  V  V82  1  0.75022689  0.75112922  0.00220331  1
  V  V83  1  0.62415863  -0.00180799  0.62372167  1
  V  V84  1  0.00402015  0.62705470  0.12153852  1
  V  V85  1  0.62578904  0.50064457  0.12494026  1
  V  V86  1  0.50092783  0.49968958  0.00002562  1
  V  V87  1  -0.00016681  0.25063754  0.74903615  1
  V  V88  1  0.74866367  0.12155954  0.36576315  1
  V  V89  1  0.50009573  0.37351672  0.37519828  1
  V  V90  1  0.00154888  0.00189714  0.50004237  1
  V  V91  1  0.12549682  0.74688215  0.88359135  1
  V  V92  1  0.37979551  -0.00081937  0.88028775  1
  Zn  Zn93  1  0.25034598  0.37448129  0.62484913  1
  Zn  Zn94  1  0.37637987  0.75055317  0.62644502  1
  Zn  Zn95  1  0.87642855  0.62353095  0.24947320  1
  Zn  Zn96  1  0.49505502  0.86859111  0.36979878  1
  Zn  Zn97  1  0.87479798  0.62536312  0.75127431  1
  Zn  Zn98  1  0.12568086  0.00206864  0.62583870  1
  Zn  Zn99  1  0.12543472  0.62318642  0.50028770  1
  Zn  Zn100  1  0.87338921  0.87751737  -0.00013291  1
  Zn  Zn101  1  0.50292747  0.87826261  0.88024895  1
  Zn  Zn102  1  0.74202301  0.12867682  0.87036040  1
  Zn  Zn103  1  0.87388716  0.24561815  0.12258318  1
  Zn  Zn104  1  0.62534073  0.49854419  0.62357687  1
  Zn  Zn105  1  0.24618738  0.25071127  0.50030209  1
  Zn  Zn106  1  0.62566584  0.12306738  0.49761672  1
  Zn  Zn107  1  0.25141117  0.37621532  0.12529838  1
  Zn  Zn108  1  0.87206411  0.12229765  0.24484057  1
  Zn  Zn109  1  0.50234055  0.24638608  0.75420685  1
  Zn  Zn110  1  -0.00295095  0.12487729  0.12482687  1
  Zn  Zn111  1  0.37549808  0.50046403  0.87649073  1
  Zn  Zn112  1  0.74858498  0.00145104  0.74889813  1
  Zn  Zn113  1  0.12560032  0.24951164  0.37568617  1
  Zn  Zn114  1  0.87653654  0.50280689  0.87531289  1
  Zn  Zn115  1  0.37491142  0.12631718  0.75342012  1
  Zn  Zn116  1  0.24823742  0.74646775  0.00450213  1
  Zn  Zn117  1  0.25160948  0.12579162  0.87499674  1
  Zn  Zn118  1  0.12596199  0.12814762  0.50074758  1
  Zn  Zn119  1  0.62487150  0.62431964  0.50021557  1
  Zn  Zn120  1  0.37427811  0.87352098  0.49763064  1
  Zn  Zn121  1  0.87568731  0.50042636  0.37356390  1
  Zn  Zn122  1  0.18655181  0.18893761  0.18730433  1
  Zn  Zn123  1  0.18664821  0.18575292  0.68635492  1
  Zn  Zn124  1  0.19030747  0.68913626  0.18942431  1
  Zn  Zn125  1  0.18607111  0.68639445  0.69172114  1
  Zn  Zn126  1  0.68730900  0.18967049  0.18287242  1
  Zn  Zn127  1  0.68720487  0.18507923  0.68510672  1
  Zn  Zn128  1  0.68818334  0.68998357  0.18967817  1
  Zn  Zn129  1  0.68694777  0.68783018  0.68851270  1
  Zn  Zn130  1  0.31144206  0.31000458  0.31214557  1
  Zn  Zn131  1  0.31480963  0.31401072  0.81297808  1
  Zn  Zn132  1  0.31114257  0.81256581  0.31083186  1
  Zn  Zn133  1  0.31398477  0.81129240  0.81502904  1
  Zn  Zn134  1  0.81382107  0.31171790  0.31171318  1
  Zn  Zn135  1  0.81451675  0.31446918  0.81333284  1
  Zn  Zn136  1  0.81036522  0.81216464  0.31055945  1
  Zn  Zn137  1  0.81157478  0.81400224  0.81218151  1
  Zn  Zn138  1  0.18759632  0.43587709  0.43933624  1
  Zn  Zn139  1  0.18841828  0.43752238  0.93735880  1
  Zn  Zn140  1  0.18781722  0.93824566  0.43711656  1
  Zn  Zn141  1  0.19091391  0.93564051  0.94069865  1
  Zn  Zn142  1  0.68604367  0.43820703  0.43769371  1
  Zn  Zn143  1  0.68656300  0.43773453  0.93564767  1
  Zn  Zn144  1  0.68655666  0.93654445  0.43591852  1
  Zn  Zn145  1  0.68661292  0.93962117  0.94192646  1
  Zn  Zn146  1  0.30942087  0.06263009  0.06026748  1
  Zn  Zn147  1  0.31306760  0.06223808  0.56011157  1
  Zn  Zn148  1  0.31515820  0.56216336  0.06310600  1
  Zn  Zn149  1  0.31387920  0.56169916  0.56443206  1
  Zn  Zn150  1  0.81131403  0.06483255  0.06064902  1
  Zn  Zn151  1  0.81149930  0.06292351  0.55757952  1
  Zn  Zn152  1  0.81609396  0.56315741  0.06291592  1
  Zn  Zn153  1  0.81381818  0.56249605  0.56273929  1
  Zn  Zn154  1  0.43861206  0.43838981  0.18712895  1
  Zn  Zn155  1  0.43746449  0.43775251  0.69019364  1
  Zn  Zn156  1  0.43965972  0.93840170  0.18726508  1
  Zn  Zn157  1  0.43678420  0.93635901  0.68979377  1
  Zn  Zn158  1  0.93595322  0.43666037  0.18724192  1
  Zn  Zn159  1  0.93679195  0.43770901  0.68639978  1
  Zn  Zn160  1  0.94103672  0.93705913  0.18548210  1
  Zn  Zn161  1  0.93664996  0.93745018  0.68840276  1
  Zn  Zn162  1  0.06040978  0.06287432  0.31116940  1
  Zn  Zn163  1  0.06270354  0.06404697  0.81223682  1
  Zn  Zn164  1  0.06325734  0.56336009  0.31221548  1
  Zn  Zn165  1  0.06451331  0.56476064  0.81175032  1
  Zn  Zn166  1  0.56177420  0.06032152  0.30820140  1
  Zn  Zn167  1  0.56044106  0.05971593  0.80994568  1
  Zn  Zn168  1  0.56334860  0.56216326  0.31254360  1
  Zn  Zn169  1  0.56444290  0.55892294  0.81415493  1
  Zn  Zn170  1  0.43555566  0.18552702  0.43901218  1
  Zn  Zn171  1  0.43556546  0.18616572  0.93784445  1
  Zn  Zn172  1  0.43576788  0.68555360  0.44071072  1
  Zn  Zn173  1  0.43589972  0.68973155  0.94096558  1
  Zn  Zn174  1  0.93586917  0.18817717  0.43342000  1
  Zn  Zn175  1  0.93651894  0.18800867  0.93805101  1
  Zn  Zn176  1  0.93723635  0.68641091  0.43908041  1
  Zn  Zn177  1  0.93568817  0.68798979  0.93839707  1
  Zn  Zn178  1  0.06353370  0.31542180  0.06403788  1
  Zn  Zn179  1  0.06391385  0.31218377  0.56052042  1
  Zn  Zn180  1  0.06100646  0.81672049  0.06162169  1
  Zn  Zn181  1  0.06431164  0.81355027  0.56341749  1
  Zn  Zn182  1  0.56262528  0.30905070  0.06217096  1
  Zn  Zn183  1  0.56346002  0.31150620  0.56318721  1
  Zn  Zn184  1  0.56212219  0.81249349  0.06393439  1
  Zn  Zn185  1  0.56333345  0.81039118  0.56071625  1
  O  O186  1  0.12513312  0.11554095  0.11981666  1
  O  O187  1  0.11520434  0.12098839  0.62220471  1
  O  O188  1  0.11649125  0.61582776  0.13137090  1
  O  O189  1  0.11817739  0.61857162  0.62499559  1
  O  O190  1  0.61816479  0.11860620  0.12028550  1
  O  O191  1  0.61463600  0.11846009  0.62123458  1
  O  O192  1  0.62135292  0.62111008  0.12140533  1
  O  O193  1  0.61260429  0.62318892  0.62476057  1
  O  O194  1  0.38134850  0.37871686  0.37910185  1
  O  O195  1  0.38511885  0.37851452  0.88189245  1
  O  O196  1  0.37625963  0.88423658  0.37303101  1
  O  O197  1  0.37461266  0.88023382  0.88626174  1
  O  O198  1  0.88108831  0.37649491  0.38192111  1
  O  O199  1  0.88349793  0.37937656  0.88137851  1
  O  O200  1  0.87821536  0.88085108  0.37953639  1
  O  O201  1  0.88048647  0.88542429  0.87491471  1
  O  O202  1  0.26264445  0.00747112  0.38003225  1
  O  O203  1  0.25808685  -0.00151130  0.86667349  1
  O  O204  1  0.25650237  0.50556451  0.37108101  1
  O  O205  1  0.24902777  0.50970569  0.86972277  1
  O  O206  1  0.75937686  0.00878808  0.38191451  1
  O  O207  1  0.76182582  0.00145692  0.87469654  1
  O  O208  1  0.74872048  0.50949981  0.36942861  1
  O  O209  1  0.75081373  0.50610873  0.86692984  1
  O  O210  1  0.24168679  0.50202351  0.13067206  1
  O  O211  1  0.24369270  0.49994474  0.63291478  1
  O  O212  1  0.23840349  0.99098107  0.12037769  1
  O  O213  1  0.25000990  0.99168630  0.63285500  1
  O  O214  1  0.74431682  0.49553378  0.12883078  1
  O  O215  1  0.74933589  0.49395644  0.63350021  1
  O  O216  1  0.74246880  0.98933817  0.12000205  1
  O  O217  1  0.74299322  0.99334397  0.62192954  1
  O  O218  1  0.00516008  0.36982144  0.25424125  1
  O  O219  1  0.00504860  0.37017542  0.75483428  1
  O  O220  1  0.00653668  0.86864053  0.25597206  1
  O  O221  1  0.00590900  0.86996341  0.75533543  1
  O  O222  1  0.50505625  0.36910803  0.25542421  1
  O  O223  1  0.50901250  0.37536805  0.75803823  1
  O  O224  1  0.51397721  0.87705471  0.25053448  1
  O  O225  1  0.50712051  0.86725507  0.75093523  1
  O  O226  1  0.49075055  0.12957787  0.24135878  1
  O  O227  1  0.49830580  0.12574876  0.73697943  1
  O  O228  1  0.49200368  0.61753177  0.24212548  1
  O  O229  1  0.49724900  0.62844375  0.74508769  1
  O  O230  1  0.99858660  0.13736445  0.24890778  1
  O  O231  1  0.99412953  0.13114394  0.74316593  1
  O  O232  1  0.99953993  0.63143852  0.23997817  1
  O  O233  1  0.99796375  0.63187014  0.74381874  1
  O  O234  1  0.36954493  0.25487643  0.00590390  1
  O  O235  1  0.37500867  0.25480057  0.50973302  1
  O  O236  1  0.37145155  0.75890868  0.01210540  1
  O  O237  1  0.36193917  0.75266409  0.50205635  1
  O  O238  1  0.86603854  0.25674967  0.00084512  1
  O  O239  1  0.86957411  0.25563057  0.50430761  1
  O  O240  1  0.86868556  0.75362044  0.00747300  1
  O  O241  1  0.87004460  0.75643681  0.50529881  1
  O  O242  1  0.12736669  0.24600830  0.49410563  1
  O  O243  1  0.12940352  0.24751796  0.99508534  1
  O  O244  1  0.13526769  0.74948591  0.49457552  1
  O  O245  1  0.12650927  0.75655544  0.98726136  1
  O  O246  1  0.63052883  0.24820509  0.49177647  1
  O  O247  1  0.63414995  0.23885271  1.00574443  1
  O  O248  1  0.63287173  0.74864453  0.48978535  1
  O  O249  1  0.63022122  0.74491873  0.99686646  1
  O  O250  1  0.49441409  0.24039511  0.13123570  1
  O  O251  1  0.49214860  0.23962812  0.62330697  1
  O  O252  1  0.48820718  0.74384950  0.12159430  1
  O  O253  1  0.49946510  0.74049597  0.63100843  1
  O  O254  1  0.99949065  0.25056726  0.13485983  1
  O  O255  1  0.99312509  0.24536282  0.62952573  1
  O  O256  1  0.99800523  0.74463872  0.12837555  1
  O  O257  1  0.99607297  0.74661968  0.63004664  1
  O  O258  1  0.00124797  0.25678825  0.36456739  1
  O  O259  1  0.00538735  0.25628589  0.86883018  1
  O  O260  1  0.00510508  0.75531299  0.37148466  1
  O  O261  1  0.00656719  0.75425743  0.87136656  1
  O  O262  1  0.50408214  0.25310646  0.37005439  1
  O  O263  1  0.49489932  0.26338195  0.87404944  1
  O  O264  1  0.51333878  0.75009057  0.38397438  1
  O  O265  1  0.50766917  0.75128504  0.87095835  1
  O  O266  1  0.24885372  0.12577961  0.48871323  1
  O  O267  1  0.24253540  0.13367423  0.99818539  1
  O  O268  1  0.25001829  0.63391403  0.49566368  1
  O  O269  1  0.25545151  0.62579868  0.98692311  1
  O  O270  1  0.74789562  0.13191300  0.48818829  1
  O  O271  1  0.74050703  0.13363108  0.99745400  1
  O  O272  1  0.74878721  0.62984223  0.49070256  1
  O  O273  1  0.74462241  0.63046355  0.99700367  1
  O  O274  1  0.25769157  0.37005051  0.00175920  1
  O  O275  1  0.25991107  0.37298573  0.50341571  1
  O  O276  1  0.25919417  0.87204877  0.01357135  1
  O  O277  1  0.24887589  0.86748394  0.50858598  1
  O  O278  1  0.75294710  0.36947749  0.00280945  1
  O  O279  1  0.75439838  0.36962772  0.50417998  1
  O  O280  1  0.74967431  0.86857274  0.01231952  1
  O  O281  1  0.75522921  0.86925462  0.50447249  1
  O  O282  1  0.13060796  0.49642236  0.24211104  1
  O  O283  1  0.12972235  0.49438020  0.74529120  1
  O  O284  1  0.11653047  0.99304056  0.23713511  1
  O  O285  1  0.13512131  0.99326388  0.75141822  1
  O  O286  1  0.63063271  0.49320958  0.24428492  1
  O  O287  1  0.63674042  0.49027414  0.74854614  1
  O  O288  1  0.62271960  0.99194494  0.23556421  1
  O  O289  1  0.62603033  0.99278000  0.74170377  1
  O  O290  1  0.38249230  0.01033825  0.25915490  1
  O  O291  1  0.36487390  -0.00183953  0.75872801  1
  O  O292  1  0.37003097  0.50480872  0.25556068  1
  O  O293  1  0.36836061  0.50697799  0.75341728  1
  O  O294  1  0.88292996  -0.00081922  0.26447122  1
  O  O295  1  0.87433719  0.00599949  0.75832572  1
  O  O296  1  0.86652356  0.50228537  0.25231807  1
  O  O297  1  0.86193459  0.49977246  0.75153961  1
  O  O298  1  0.11843432  0.37599119  0.36707837  1
  O  O299  1  0.11919600  0.36971307  0.86940112  1
  O  O300  1  0.12017576  0.87088225  0.36979260  1
  O  O301  1  0.12079938  0.86769234  0.87089792  1
  O  O302  1  0.61949152  0.36849171  0.36847456  1
  O  O303  1  0.61584637  0.37938401  0.86575248  1
  O  O304  1  0.62565044  0.86804819  0.36545497  1
  O  O305  1  0.62389977  0.87067619  0.87109918  1
  O  O306  1  0.38029381  0.12675774  0.12998888  1
  O  O307  1  0.38327889  0.13106945  0.62528512  1
  O  O308  1  0.37961127  0.63304355  0.12997279  1
  O  O309  1  0.38596291  0.62605589  0.63265885  1
  O  O310  1  0.87835829  0.12612887  0.12874317  1
  O  O311  1  0.87889511  0.13041712  0.62880773  1
  O  O312  1  0.88659545  0.63202219  0.12698570  1
  O  O313  1  0.88149107  0.63327304  0.62679245  1
  O  O314  1  0.25657067  0.25259512  0.11866791  1
  O  O315  1  0.26221379  0.24957537  0.62430130  1
  O  O316  1  0.25836052  0.75768053  0.12380298  1
  O  O317  1  0.24890828  0.75683324  0.61891247  1
  O  O318  1  0.75073356  0.25768502  0.11367961  1
  O  O319  1  0.75507588  0.25438296  0.61782854  1
  O  O320  1  0.75540135  0.75769599  0.12116316  1
  O  O321  1  0.75463052  0.75462437  0.61936780  1
  O  O322  1  0.24990684  0.23712800  0.37634693  1
  O  O323  1  0.24372659  0.24994082  0.88081146  1
  O  O324  1  0.24579186  0.74642987  0.38307262  1
  O  O325  1  0.24173734  0.74324244  0.87642487  1
  O  O326  1  0.74452740  0.24259528  0.37850235  1
  O  O327  1  0.75291424  0.24961119  0.88735594  1
  O  O328  1  0.74316579  0.74236595  0.37877404  1
  O  O329  1  0.74432679  0.74595129  0.88140787  1
  O  O330  1  0.00799063  0.11964627  0.00085378  1
  O  O331  1  -0.00258160  0.11579596  0.50324509  1
  O  O332  1  -0.00325758  0.61626937  0.01083804  1
  O  O333  1  0.00225388  0.61897644  0.50674157  1
  O  O334  1  0.50821304  0.13432629  0.01226068  1
  O  O335  1  0.49975519  0.11370162  0.50805178  1
  O  O336  1  0.50609712  0.62028591  0.00754139  1
  O  O337  1  0.49925998  0.61870403  0.51067267  1
  O  O338  1  0.49478137  0.37916995  0.49429605  1
  O  O339  1  0.49815717  0.37866689  0.99398632  1
  O  O340  1  0.49653743  0.88510615  0.49840340  1
  O  O341  1  0.48566999  0.87351494  1.00213798  1
  O  O342  1  0.99428112  0.38024492  0.49468578  1
  O  O343  1  0.99597103  0.38365278  0.99531014  1
  O  O344  1  0.99493476  0.88178033  0.49491068  1
  O  O345  1  0.99701865  0.88343302  0.99223975  1
  O  O346  1  0.49479949  0.49356484  0.37996834  1
  O  O347  1  0.49950126  0.49072180  0.88309353  1
  O  O348  1  0.49118036  1.00083410  0.38270104  1
  O  O349  1  0.48366050  0.99610498  0.86810249  1
  O  O350  1  0.99876465  0.49522120  0.38100453  1
  O  O351  1  1.00286383  0.49677531  0.88446051  1
  O  O352  1  0.99227094  0.99475531  0.38254560  1
  O  O353  1  0.99252917  0.99557208  0.87773555  1
  O  O354  1  0.01165357  -0.00132295  0.11668394  1
  O  O355  1  -0.00175149  0.00460216  0.61477667  1
  O  O356  1  0.00738638  0.50749095  0.11966229  1
  O  O357  1  0.00484499  0.50510325  0.62056468  1
  O  O358  1  0.50703098  0.01259015  0.12709856  1
  O  O359  1  0.50152832  0.00538541  0.61710005  1
  O  O360  1  0.50735776  0.50586463  0.11973114  1
  O  O361  1  0.50022183  0.50868015  0.62108116  1
  O  O362  1  0.24504155  0.38251003  0.24879879  1
  O  O363  1  0.24357120  0.38245281  0.74991035  1
  O  O364  1  0.24323251  0.87112372  0.23676775  1
  O  O365  1  0.24669249  0.88077617  0.74387043  1
  O  O366  1  0.74387967  0.37889240  0.24417263  1
  O  O367  1  0.74413069  0.38030163  0.74620007  1
  O  O368  1  0.73918304  0.87040385  0.23734799  1
  O  O369  1  0.74256326  0.87662912  0.74198440  1
  O  O370  1  0.26289674  0.12880069  0.25623475  1
  O  O371  1  0.25108124  0.11173170  0.75077109  1
  O  O372  1  0.25775053  0.61950620  0.25676749  1
  O  O373  1  0.25581057  0.62080991  0.75934515  1
  O  O374  1  0.75016257  0.13152198  0.26242269  1
  O  O375  1  0.75621215  0.12269339  0.75250236  1
  O  O376  1  0.75065661  0.61939026  0.25834712  1
  O  O377  1  0.74904870  0.61584632  0.75550675  1
  O  O378  1  0.36911585  0.11807143  0.36734304  1
  O  O379  1  0.37202460  0.11518647  0.87397712  1
  O  O380  1  0.37092906  0.61894558  0.37056291  1
  O  O381  1  0.36649922  0.62481453  0.87057151  1
  O  O382  1  0.86605625  0.11666508  0.37229967  1
  O  O383  1  0.87557813  0.11613217  0.86797366  1
  O  O384  1  0.86249089  0.62519312  0.37279656  1
  O  O385  1  0.86666105  0.62313231  0.87227473  1
  O  O386  1  0.12658385  0.38875338  0.13193088  1
  O  O387  1  0.12593023  0.38121537  0.63247387  1
  O  O388  1  0.13218011  0.88137409  0.12831440  1
  O  O389  1  0.13592045  0.87693460  0.63205176  1
  O  O390  1  0.62937950  0.38054749  0.12972467  1
  O  O391  1  0.63086598  0.37639420  0.63399030  1
  O  O392  1  0.63020438  0.88067573  0.12982514  1
  O  O393  1  0.62953383  0.87857713  0.62973945  1
  O  O394  1  0.11661274  0.25771884  0.25049043  1
  O  O395  1  0.11926034  0.25496675  0.75431074  1
  O  O396  1  0.12007049  0.75683894  0.25579496  1
  O  O397  1  0.11922412  0.75639769  0.75995536  1
  O  O398  1  0.61869511  0.25503033  0.25397416  1
  O  O399  1  0.62368790  0.26209532  0.74508984  1
  O  O400  1  0.62864796  0.75903356  0.26030995  1
  O  O401  1  0.62075211  0.75527845  0.75730855  1
  O  O402  1  0.38026328  0.24023341  0.24473125  1
  O  O403  1  0.37905358  0.24822802  0.73942363  1
  O  O404  1  0.36955295  0.74347890  0.23882744  1
  O  O405  1  0.38234344  0.74343892  0.74958411  1
  O  O406  1  0.88633415  0.25064097  0.24616492  1
  O  O407  1  0.88040786  0.24601419  0.74390221  1
  O  O408  1  0.88300288  0.74997079  0.24323554  1
  O  O409  1  0.88187329  0.75073861  0.74353992  1
  O  O410  1  0.38075888  0.49391689  0.49416731  1
  O  O411  1  0.38369860  0.49276725  1.00124211  1
  O  O412  1  0.38287323  0.99776394  0.49019884  1
  O  O413  1  0.36695867  0.99075238  0.99131245  1
  O  O414  1  0.88176104  0.49274511  0.49896934  1
  O  O415  1  0.88779413  0.49456318  0.99997393  1
  O  O416  1  0.88368427  0.99445783  0.49071114  1
  O  O417  1  0.88139229  1.00116359  0.98911851  1
  O  O418  1  0.12135876  0.00523930  0.00646477  1
  O  O419  1  0.11073640  0.00052830  0.49990066  1
  O  O420  1  0.11454305  0.49381410  0.01078148  1
  O  O421  1  0.11848532  0.50068594  0.50756484  1
  O  O422  1  0.62782852  0.01018729  0.01465982  1
  O  O423  1  0.61399316  -0.00081741  0.50415007  1
  O  O424  1  0.62119086  0.50640097  0.00639628  1
  O  O425  1  0.61631150  0.50265734  0.50254576  1
  O  O426  1  0.37620459  0.36758438  0.11924014  1
  O  O427  1  0.37708811  0.36518546  0.62023972  1
  O  O428  1  0.36966767  0.87122658  0.12325326  1
  O  O429  1  0.36175851  0.87263615  0.62399249  1
  O  O430  1  0.86733025  0.37492361  0.11639073  1
  O  O431  1  0.86906875  0.36831370  0.61930609  1
  O  O432  1  0.86683056  0.87183980  0.12453050  1
  O  O433  1  0.86950075  0.87001539  0.61920287  1
  O  O434  1  0.13805660  0.12184712  0.37278254  1
  O  O435  1  0.12670662  0.13282587  0.88099526  1
  O  O436  1  0.13308986  0.63243874  0.37615220  1
  O  O437  1  0.13496641  0.63643078  0.86898811  1
  O  O438  1  0.63123568  0.12853531  0.37413109  1
  O  O439  1  0.62231214  0.11451432  0.88937535  1
  O  O440  1  0.63417001  0.63282943  0.37394462  1
  O  O441  1  0.63070187  0.63084960  0.88231576  1
