# generated using pymatgen
data_V93Zn93O256
_symmetry_space_group_name_H-M   'P 1'
_cell_length_a   17.06003334
_cell_length_b   17.05751387
_cell_length_c   17.05628536
_cell_angle_alpha   89.97553928
_cell_angle_beta   89.97155340
_cell_angle_gamma   90.02453650
_symmetry_Int_Tables_number   1
_chemical_formula_structural   V93Zn93O256
_chemical_formula_sum   'V93 Zn93 O256'
_cell_volume   4963.40745962
_cell_formula_units_Z   1
loop_
 _symmetry_equiv_pos_site_id
 _symmetry_equiv_pos_as_xyz
  1  'x, y, z'
loop_
 _atom_site_type_symbol
 _atom_site_label
 _atom_site_symmetry_multiplicity
 _atom_site_fract_x
 _atom_site_fract_y
 _atom_site_fract_z
 _atom_site_occupancy
  V  V0  1  0.74783667  0.12392828  0.37810868  1
  V  V1  1  0.74881991  0.62255816  0.87283793  1
  V  V2  1  0.25026730  0.74983251  -0.00096474  1
  V  V3  1  0.50105840  0.87354771  0.87479434  1
  V  V4  1  0.00674206  0.87121314  0.37517766  1
  V  V5  1  0.62433260  0.24566677  0.38029204  1
  V  V6  1  0.25122941  0.25026413  -0.00088063  1
  V  V7  1  0.50163727  0.62417069  0.12374280  1
  V  V8  1  0.24363980  0.62987212  0.37372675  1
  V  V9  1  0.50091062  -0.00074129  0.00049375  1
  V  V10  1  0.49959848  0.50016929  0.50018890  1
  V  V11  1  0.00039602  0.37536135  0.37454017  1
  V  V12  1  -0.00012899  0.12408524  0.12439295  1
  V  V13  1  0.25013837  0.12488749  0.87459165  1
  V  V14  1  0.61547739  0.00449963  0.61447532  1
  V  V15  1  0.00286867  0.62615953  0.62400739  1
  V  V16  1  0.87443788  0.12331843  0.25112200  1
  V  V17  1  0.87292754  0.37161135  0.50491628  1
  V  V18  1  0.37571905  0.62446503  0.74879830  1
  V  V19  1  0.12516726  0.75077814  0.87527677  1
  V  V20  1  0.87200618  0.49907392  0.87348186  1
  V  V21  1  0.49981786  0.12492726  0.12756611  1
  V  V22  1  0.12438161  0.12473606  0.50056886  1
  V  V23  1  0.62443642  0.62374139  0.50016198  1
  V  V24  1  0.49987993  0.37700469  0.37456137  1
  V  V25  1  0.37565981  0.87498218  0.00045504  1
  V  V26  1  0.74995192  0.62526237  0.37441877  1
  V  V27  1  0.87382216  0.87544704  -0.00040075  1
  V  V28  1  0.37579306  0.24891026  0.62423139  1
  V  V29  1  0.74941813  0.24715684  0.00352630  1
  V  V30  1  0.62542217  0.12366638  -0.00090768  1
  V  V31  1  0.12585998  0.37518202  0.24913980  1
  V  V32  1  0.50283785  0.24834036  0.74807419  1
  V  V33  1  0.62493197  0.50092557  0.12414445  1
  V  V34  1  -0.00012224  0.24920691  0.24996253  1
  V  V35  1  0.50578817  0.75529157  0.24999088  1
  V  V36  1  0.49994516  0.24891019  0.24859058  1
  V  V37  1  0.37622796  0.75031116  0.12403734  1
  V  V38  1  0.24961920  -0.00076636  0.24904971  1
  V  V39  1  0.87169166  0.62261196  0.74896812  1
  V  V40  1  0.75011017  0.50022343  0.24995837  1
  V  V41  1  0.74810089  0.87609882  0.62646529  1
  V  V42  1  0.74629452  0.87453402  0.13216416  1
  V  V43  1  0.87304177  0.12786063  0.74279187  1
  V  V44  1  0.50330252  0.87819638  0.37598299  1
  V  V45  1  0.00069055  0.50115853  0.49981711  1
  V  V46  1  0.25049963  0.37592371  0.62480633  1
  V  V47  1  0.37850393  0.87830372  0.49926174  1
  V  V48  1  0.24824372  0.49935964  0.74890818  1
  V  V49  1  0.50267868  0.37434344  0.87253569  1
  V  V50  1  0.50121389  0.75062559  0.74989093  1
  V  V51  1  0.75228569  0.25206914  0.50225804  1
  V  V52  1  0.24389946  0.75045445  0.49562443  1
  V  V53  1  0.25019229  0.87513283  0.62418618  1
  V  V54  1  0.24888457  0.25114305  0.49999198  1
  V  V55  1  0.12508494  0.62570840  -0.00025715  1
  V  V56  1  0.24980116  0.87614971  0.12585385  1
  V  V57  1  0.75014999  0.37404017  0.12632960  1
  V  V58  1  0.12454137  0.24996383  0.87301563  1
  V  V59  1  0.37509324  0.37648421  0.49875044  1
  V  V60  1  0.75204194  0.74958992  0.50122087  1
  V  V61  1  0.87587614  -0.00078966  0.37576484  1
  V  V62  1  0.37776567  0.00072487  0.37657984  1
  V  V63  1  0.00165906  0.37497013  0.87548287  1
  V  V64  1  -0.00017917  -0.00043332  0.50019605  1
  V  V65  1  0.87469337  0.24884837  0.12602875  1
  V  V66  1  0.00172223  0.50045730  -0.00049556  1
  V  V67  1  0.12424469  0.12400124  -0.00033402  1
  V  V68  1  0.25105431  0.37517874  0.12460313  1
  V  V69  1  0.87449964  0.49943040  0.37465759  1
  V  V70  1  0.62555780  0.75287245  0.37295976  1
  V  V71  1  0.12454599  0.25021491  0.37509942  1
  V  V72  1  -0.00067161  0.00046963  0.00007631  1
  V  V73  1  0.37550399  0.00002103  0.87486466  1
  V  V74  1  -0.00336885  0.25046678  0.74261226  1
  V  V75  1  0.12420444  0.00095670  0.62538445  1
  V  V76  1  0.62526100  0.37475690  0.25095013  1
  V  V77  1  0.50020898  0.62470916  0.62440006  1
  V  V78  1  0.74955470  0.74909893  -0.00033195  1
  V  V79  1  0.37590479  0.49867328  0.87630208  1
  V  V80  1  0.37608661  0.12591655  0.24851417  1
  V  V81  1  0.24939667  0.12472766  0.37368123  1
  V  V82  1  -0.00010684  0.62531278  0.12454984  1
  V  V83  1  -0.00041569  0.87466081  0.87419427  1
  V  V84  1  0.87629817  0.62463472  0.24867033  1
  V  V85  1  0.62542189  -0.00370366  0.13701617  1
  V  V86  1  0.00129303  0.75035305  0.75028002  1
  V  V87  1  0.37473654  0.62403525  0.25188309  1
  V  V88  1  0.37681881  0.12474468  0.74834847  1
  V  V89  1  0.63690311  0.49260644  0.63086051  1
  V  V90  1  0.00680133  0.74975649  0.25319555  1
  V  V91  1  0.24950516  -0.00044601  0.74941593  1
  V  V92  1  0.87121870  0.00157576  0.87211228  1
  Zn  Zn93  1  0.12423322  0.37443252  0.74768929  1
  Zn  Zn94  1  0.37660758  0.25014000  0.12332467  1
  Zn  Zn95  1  0.62353608  0.62296219  -0.00251483  1
  Zn  Zn96  1  0.37778007  0.37324175  0.00147491  1
  Zn  Zn97  1  0.87659613  0.37538390  0.00272617  1
  Zn  Zn98  1  0.24867485  0.50034620  0.25145524  1
  Zn  Zn99  1  0.50192054  0.49935651  -0.00018717  1
  Zn  Zn100  1  0.87508075  0.75267430  0.62644572  1
  Zn  Zn101  1  -0.00415419  0.12771910  0.62141023  1
  Zn  Zn102  1  0.12607461  0.50018792  0.12472927  1
  Zn  Zn103  1  0.62604378  0.75056942  0.87377798  1
  Zn  Zn104  1  0.74734760  -0.00616642  0.25535506  1
  Zn  Zn105  1  0.87690116  0.87485941  0.50110707  1
  Zn  Zn106  1  0.12776093  0.87323946  0.25120179  1
  Zn  Zn107  1  0.64295959  0.37449842  0.74884757  1
  Zn  Zn108  1  0.49947323  0.12357129  0.60368781  1
  Zn  Zn109  1  0.74565957  0.00276850  0.74704254  1
  Zn  Zn110  1  0.87540460  0.75188346  0.12624401  1
  Zn  Zn111  1  0.37383247  0.50107946  0.37577718  1
  Zn  Zn112  1  0.12476921  0.87571900  0.74982962  1
  Zn  Zn113  1  0.80452575  0.31643608  0.66517728  1
  Zn  Zn114  1  0.12264509  0.62775374  0.49410468  1
  Zn  Zn115  1  0.12335069  -0.00191466  0.12674956  1
  Zn  Zn116  1  0.12701662  0.50044502  0.62177668  1
  Zn  Zn117  1  0.74858377  0.12390154  0.87337689  1
  Zn  Zn118  1  0.62641721  0.25044503  0.87289235  1
  Zn  Zn119  1  0.62451167  0.87886685  0.75118129  1
  Zn  Zn120  1  0.37465374  0.75025165  0.62340656  1
  Zn  Zn121  1  0.24990673  0.62497623  0.87455616  1
  Zn  Zn122  1  0.18743729  0.18771131  0.18587400  1
  Zn  Zn123  1  0.18605692  0.18723857  0.68744542  1
  Zn  Zn124  1  0.18737961  0.68795433  0.18521176  1
  Zn  Zn125  1  0.18851193  0.68926215  0.68665771  1
  Zn  Zn126  1  0.68497993  0.18347776  0.19107530  1
  Zn  Zn127  1  0.68271396  0.18068546  0.68736124  1
  Zn  Zn128  1  0.68761995  0.68720624  0.18595971  1
  Zn  Zn129  1  0.68481044  0.68589196  0.68677384  1
  Zn  Zn130  1  0.31322640  0.31228984  0.31134671  1
  Zn  Zn131  1  0.31481576  0.31282413  0.81148203  1
  Zn  Zn132  1  0.31485278  0.81210224  0.31270376  1
  Zn  Zn133  1  0.31334915  0.81289486  0.81209958  1
  Zn  Zn134  1  0.81278507  0.31214889  0.31449935  1
  Zn  Zn135  1  0.81469497  0.30944682  0.82693110  1
  Zn  Zn136  1  0.81967414  0.81070894  0.31358510  1
  Zn  Zn137  1  0.81310983  0.81066384  0.81086355  1
  Zn  Zn138  1  0.18826435  0.44280391  0.43598336  1
  Zn  Zn139  1  0.18698646  0.43633032  0.93750217  1
  Zn  Zn140  1  0.18851641  0.93823664  0.43773785  1
  Zn  Zn141  1  0.18658055  0.93697244  0.93788877  1
  Zn  Zn142  1  0.68676974  0.43603258  0.43999081  1
  Zn  Zn143  1  0.68643342  0.43601113  0.93830398  1
  Zn  Zn144  1  0.68972012  0.93338854  0.43858166  1
  Zn  Zn145  1  0.68583381  0.93577118  0.94018811  1
  Zn  Zn146  1  0.31230723  0.06262734  0.06284607  1
  Zn  Zn147  1  0.31313340  0.06260056  0.56199520  1
  Zn  Zn148  1  0.31241979  0.56192735  0.06238281  1
  Zn  Zn149  1  0.31358357  0.56461551  0.56147653  1
  Zn  Zn150  1  0.81205844  0.05948964  0.06456965  1
  Zn  Zn151  1  0.80941482  0.06095784  0.56046101  1
  Zn  Zn152  1  0.81411514  0.56241399  0.06124489  1
  Zn  Zn153  1  0.81511970  0.56170121  0.56160588  1
  Zn  Zn154  1  0.43756268  0.43773883  0.18712699  1
  Zn  Zn155  1  0.44016053  0.43681185  0.68622956  1
  Zn  Zn156  1  0.43789371  0.93923082  0.18961530  1
  Zn  Zn157  1  0.43680455  0.93633777  0.68679254  1
  Zn  Zn158  1  0.93811159  0.43742605  0.18585645  1
  Zn  Zn159  1  0.94063927  0.44113447  0.68932218  1
  Zn  Zn160  1  0.93488174  0.93610767  0.18858041  1
  Zn  Zn161  1  0.93599386  0.93821318  0.68678444  1
  Zn  Zn162  1  0.06317333  0.05989347  0.31240526  1
  Zn  Zn163  1  0.06040540  0.06410093  0.81108019  1
  Zn  Zn164  1  0.06372723  0.56079299  0.31036389  1
  Zn  Zn165  1  0.06239116  0.56398552  0.81320436  1
  Zn  Zn166  1  0.56219892  0.06108538  0.43165879  1
  Zn  Zn167  1  0.56379151  0.06005477  0.80902559  1
  Zn  Zn168  1  0.56257610  0.56438514  0.31230688  1
  Zn  Zn169  1  0.56394588  0.56146208  0.80939719  1
  Zn  Zn170  1  0.43272724  0.19266955  0.43272904  1
  Zn  Zn171  1  0.43743054  0.18804621  0.93732101  1
  Zn  Zn172  1  0.43475295  0.69081027  0.43760511  1
  Zn  Zn173  1  0.43769494  0.68549129  0.93662276  1
  Zn  Zn174  1  0.93601673  0.18710849  0.43782854  1
  Zn  Zn175  1  0.93731325  0.18694697  0.93485138  1
  Zn  Zn176  1  0.93709197  0.68809875  0.43582985  1
  Zn  Zn177  1  0.93696830  0.68755341  0.93782736  1
  Zn  Zn178  1  0.06423192  0.31220732  0.06124690  1
  Zn  Zn179  1  0.06393030  0.31614096  0.56252876  1
  Zn  Zn180  1  0.06253804  0.81237642  0.06464502  1
  Zn  Zn181  1  0.06366680  0.81366053  0.56294036  1
  Zn  Zn182  1  0.56269918  0.31366044  0.06193417  1
  Zn  Zn183  1  0.56280586  0.31310095  0.56248245  1
  Zn  Zn184  1  0.56523903  0.81177660  0.06188152  1
  Zn  Zn185  1  0.56383701  0.81316898  0.56215635  1
  O  O186  1  0.11739296  0.12422096  0.11742944  1
  O  O187  1  0.12391903  0.11858522  0.61738410  1
  O  O188  1  0.11839447  0.62337445  0.11746142  1
  O  O189  1  0.11190716  0.62398937  0.62443268  1
  O  O190  1  0.62048496  0.11657657  0.11764760  1
  O  O191  1  0.62124683  0.10782557  0.62380654  1
  O  O192  1  0.61935638  0.61784010  0.12462242  1
  O  O193  1  0.61957408  0.61539634  0.61943000  1
  O  O194  1  0.38182873  0.37618990  0.38026238  1
  O  O195  1  0.38418562  0.38331326  0.87437411  1
  O  O196  1  0.38262171  0.87961334  0.38112267  1
  O  O197  1  0.38048371  0.88098361  0.88137557  1
  O  O198  1  0.88140704  0.38064993  0.38147792  1
  O  O199  1  0.88236322  0.38489304  0.88083117  1
  O  O200  1  0.88498577  0.88180439  0.37766794  1
  O  O201  1  0.87903296  0.88287273  0.87855739  1
  O  O202  1  0.25600590  0.00593864  0.36927726  1
  O  O203  1  0.25597098  0.00490572  0.87024171  1
  O  O204  1  0.25557672  0.51222677  0.37175111  1
  O  O205  1  0.25946511  0.49864636  0.86597019  1
  O  O206  1  0.75410187  0.00694420  0.37573983  1
  O  O207  1  0.76162105  -0.00042636  0.87530348  1
  O  O208  1  0.75379762  0.50550424  0.36976708  1
  O  O209  1  0.76168688  0.50949208  0.88328953  1
  O  O210  1  0.24863205  0.48815052  0.12675080  1
  O  O211  1  0.25189426  0.49572857  0.63412604  1
  O  O212  1  0.25038203  0.99347028  0.13128237  1
  O  O213  1  0.24461852  0.99537761  0.62992584  1
  O  O214  1  0.74651876  0.49423339  0.13066891  1
  O  O215  1  0.73545822  0.50433601  0.61912245  1
  O  O216  1  0.74288453  0.99066301  0.12563059  1
  O  O217  1  0.73914584  0.99058410  0.62187828  1
  O  O218  1  0.00445983  0.36882368  0.25490853  1
  O  O219  1  -0.00037733  0.36704749  0.75642609  1
  O  O220  1  -0.00059091  0.86655032  0.25704496  1
  O  O221  1  -0.00042244  0.86816913  0.75619002  1
  O  O222  1  0.50585652  0.36974774  0.25435217  1
  O  O223  1  0.49835166  0.36298279  0.75728057  1
  O  O224  1  0.49141845  0.86246366  0.26000804  1
  O  O225  1  0.49759012  0.86496396  0.75580736  1
  O  O226  1  0.49126278  0.13385349  0.24179810  1
  O  O227  1  0.49360991  0.13638722  0.75366013  1
  O  O228  1  0.49249606  0.63423197  0.24608306  1
  O  O229  1  0.49547637  0.63257449  0.74546803  1
  O  O230  1  0.99494276  0.13024152  0.24534991  1
  O  O231  1  0.99075501  0.13414108  0.74932613  1
  O  O232  1  0.99579594  0.63075876  0.24617866  1
  O  O233  1  0.99252249  0.62959888  0.74289975  1
  O  O234  1  0.36666068  0.25173115  0.00159993  1
  O  O235  1  0.36701915  0.25724212  0.50439419  1
  O  O236  1  0.37080284  0.75522978  0.00466884  1
  O  O237  1  0.36490789  0.76076433  0.50120560  1
  O  O238  1  0.86506093  0.24771434  0.00690705  1
  O  O239  1  0.86641326  0.26071425  0.49292636  1
  O  O240  1  0.86453457  0.75562861  0.00002451  1
  O  O241  1  0.86137265  0.74846303  0.50202980  1
  O  O242  1  0.12963039  0.24562595  0.49436600  1
  O  O243  1  0.13036253  0.24314295  0.99242074  1
  O  O244  1  0.13951818  0.74842247  0.50342139  1
  O  O245  1  0.13038492  0.74552075  0.99472507  1
  O  O246  1  0.63469138  0.26092159  0.48588785  1
  O  O247  1  0.63295276  0.23937313  1.00312179  1
  O  O248  1  0.63449790  0.74359792  0.49495351  1
  O  O249  1  0.63802529  0.74626063  0.99701294  1
  O  O250  1  0.50077670  0.24446233  0.13090756  1
  O  O251  1  0.49529604  0.24799083  0.63249755  1
  O  O252  1  0.49669612  0.74658170  0.13211679  1
  O  O253  1  0.49953468  0.74424838  0.63342539  1
  O  O254  1  0.99444995  0.24445666  0.13012321  1
  O  O255  1  1.00557622  0.24947666  0.63868474  1
  O  O256  1  0.99619634  0.74417397  0.13318498  1
  O  O257  1  0.99772946  0.74181343  0.62920373  1
  O  O258  1  0.00530224  0.25525108  0.36949480  1
  O  O259  1  0.00395356  0.25501516  0.86649989  1
  O  O260  1  -0.00629506  0.75920683  0.36621309  1
  O  O261  1  0.00463819  0.75515687  0.87063452  1
  O  O262  1  0.50821942  0.25711955  0.36867202  1
  O  O263  1  0.50051581  0.25801014  0.86679514  1
  O  O264  1  0.50445901  0.75634760  0.36746495  1
  O  O265  1  0.50073792  0.75406087  0.86641417  1
  O  O266  1  0.24481199  0.13133728  0.49359477  1
  O  O267  1  0.24466161  0.12926990  0.99373464  1
  O  O268  1  0.25129848  0.63341941  0.49151417  1
  O  O269  1  0.24458358  0.63235847  0.99871672  1
  O  O270  1  0.75997923  0.13577239  0.48513915  1
  O  O271  1  0.74116340  0.13130325  1.00419335  1
  O  O272  1  0.74569996  0.63201231  0.49434432  1
  O  O273  1  0.75215890  0.63361063  0.99072656  1
  O  O274  1  0.25017250  0.36886825  0.00853128  1
  O  O275  1  0.25484087  0.37082561  0.50389164  1
  O  O276  1  0.25707720  0.87028207  0.00486271  1
  O  O277  1  0.25702810  0.86831875  0.50230999  1
  O  O278  1  0.74951550  0.36273683  0.00753284  1
  O  O279  1  0.76172519  0.36566489  0.49281893  1
  O  O280  1  0.75474494  0.86621017  0.00594679  1
  O  O281  1  0.75141574  0.86388703  0.50752346  1
  O  O282  1  0.12752859  0.49034365  0.24605760  1
  O  O283  1  0.13794599  0.49961026  0.75027953  1
  O  O284  1  0.13427512  0.99769314  0.24731108  1
  O  O285  1  0.13157962  1.00014916  0.74462961  1
  O  O286  1  0.63138510  0.49521928  0.24546002  1
  O  O287  1  0.62239715  0.49830228  0.73383224  1
  O  O288  1  0.62826307  1.00160556  0.23537205  1
  O  O289  1  0.62776240  0.99719867  0.73667543  1
  O  O290  1  0.36958294  0.00598535  0.25675337  1
  O  O291  1  0.37017718  0.00500493  0.75514012  1
  O  O292  1  0.37496777  0.51459933  0.25048286  1
  O  O293  1  0.36821580  0.50338172  0.75676941  1
  O  O294  1  0.87194378  0.00628147  0.25776350  1
  O  O295  1  0.87312731  0.00760506  0.75879405  1
  O  O296  1  0.86962695  0.50405820  0.25554371  1
  O  O297  1  0.88173414  0.51155894  0.76217847  1
  O  O298  1  0.12008945  0.36944082  0.37033133  1
  O  O299  1  0.11919813  0.36779416  0.87174007  1
  O  O300  1  0.11050084  0.88072104  0.37291849  1
  O  O301  1  0.11735065  0.86905008  0.87376867  1
  O  O302  1  0.62036650  0.36835848  0.36889463  1
  O  O303  1  0.61523087  0.37449672  0.86925501  1
  O  O304  1  0.61331768  0.86714963  0.38264427  1
  O  O305  1  0.61660535  0.87281202  0.87280754  1
  O  O306  1  0.38170121  0.12570549  0.13037873  1
  O  O307  1  0.37827500  0.13023748  0.63027573  1
  O  O308  1  0.38010773  0.63080818  0.13247956  1
  O  O309  1  0.38290786  0.62674536  0.63129949  1
  O  O310  1  0.87980081  0.12934664  0.13115662  1
  O  O311  1  0.87542437  0.11730073  0.63881414  1
  O  O312  1  0.88144481  0.62558034  0.13165296  1
  O  O313  1  0.88329107  0.62453116  0.63361502  1
  O  O314  1  0.25054856  0.25900934  0.11849680  1
  O  O315  1  0.25550867  0.25496023  0.61963121  1
  O  O316  1  0.25734265  0.75585669  0.11891898  1
  O  O317  1  0.25319180  0.75645799  0.61661639  1
  O  O318  1  0.75375931  0.25294863  0.12127114  1
  O  O319  1  0.74177468  0.24151049  0.60679207  1
  O  O320  1  0.75096578  0.75631542  0.11642678  1
  O  O321  1  0.74750117  0.75637931  0.61636613  1
  O  O322  1  0.24386713  0.24518329  0.38028560  1
  O  O323  1  0.24566503  0.24429421  0.87791180  1
  O  O324  1  0.25702890  0.74184283  0.38363060  1
  O  O325  1  0.24480946  0.74922919  0.88128042  1
  O  O326  1  0.74303228  0.24379100  0.37998884  1
  O  O327  1  0.74649690  0.24413690  0.89227294  1
  O  O328  1  0.74628844  0.74612025  0.38162872  1
  O  O329  1  0.75047794  0.74135194  0.88274059  1
  O  O330  1  0.00408957  0.12066134  0.00430781  1
  O  O331  1  0.00592868  0.11965589  0.50056396  1
  O  O332  1  0.00496989  0.62122126  0.00474577  1
  O  O333  1  -0.00123678  0.62156542  0.50784327  1
  O  O334  1  0.50737591  0.12018860  0.00602440  1
  O  O335  1  0.49729846  0.12728190  0.49233713  1
  O  O336  1  0.50240237  0.62284221  0.00782790  1
  O  O337  1  0.50494606  0.62210456  0.50348938  1
  O  O338  1  0.49397054  0.37930987  0.49388383  1
  O  O339  1  0.49924670  0.37595653  0.98683228  1
  O  O340  1  0.48774702  0.86397189  0.48942169  1
  O  O341  1  0.49452959  0.87924665  0.99551939  1
  O  O342  1  0.99291241  0.37947612  0.49353462  1
  O  O343  1  0.99921542  0.38081686  0.99382311  1
  O  O344  1  0.99871598  0.87927456  0.49217614  1
  O  O345  1  0.99333764  0.87991439  0.99449059  1
  O  O346  1  0.50011808  0.49446642  0.38139871  1
  O  O347  1  0.49205738  0.49145909  0.87080571  1
  O  O348  1  0.49458651  0.98523688  0.37373922  1
  O  O349  1  0.49442435  0.99457381  0.88039484  1
  O  O350  1  0.99404008  0.49519778  0.37953920  1
  O  O351  1  0.99247478  0.49604848  0.87950477  1
  O  O352  1  0.99486875  0.99279741  0.38016302  1
  O  O353  1  0.99029551  0.99550530  0.87931994  1
  O  O354  1  -0.00138774  0.00626199  0.11801925  1
  O  O355  1  0.00642066  0.00092311  0.61822870  1
  O  O356  1  0.00108659  0.50633223  0.11759139  1
  O  O357  1  0.00112855  0.51097012  0.61934200  1
  O  O358  1  0.50704985  0.00309084  0.11981376  1
  O  O359  1  0.51245711  -0.00226977  0.62544279  1
  O  O360  1  0.50688733  0.50581339  0.12474666  1
  O  O361  1  0.50668330  0.50596059  0.61839645  1
  O  O362  1  0.24484148  0.37404085  0.24121497  1
  O  O363  1  0.25150917  0.38400062  0.74363054  1
  O  O364  1  0.25126645  0.87979383  0.24456234  1
  O  O365  1  0.25035570  0.88213210  0.74311187  1
  O  O366  1  0.74540154  0.38030798  0.24625821  1
  O  O367  1  0.75470437  0.36387424  0.75107191  1
  O  O368  1  0.75672290  0.87218676  0.23612690  1
  O  O369  1  0.74792089  0.87356657  0.73766720  1
  O  O370  1  0.25523801  0.12091444  0.25446685  1
  O  O371  1  0.25662079  0.11981642  0.75524763  1
  O  O372  1  0.25945600  0.62889448  0.25546845  1
  O  O373  1  0.25658451  0.61575013  0.75028483  1
  O  O374  1  0.75601023  0.12459086  0.26267480  1
  O  O375  1  0.75889883  0.12467368  0.75411450  1
  O  O376  1  0.75548159  0.62017576  0.25510211  1
  O  O377  1  0.76134604  0.63369600  0.75971612  1
  O  O378  1  0.36704726  0.12077135  0.36791115  1
  O  O379  1  0.36963656  0.11869831  0.86984267  1
  O  O380  1  0.36848290  0.62622376  0.36496973  1
  O  O381  1  0.37456959  0.61389259  0.86784346  1
  O  O382  1  0.86874562  0.11960665  0.36927519  1
  O  O383  1  0.87436158  0.11564146  0.86608415  1
  O  O384  1  0.86912810  0.61834269  0.36938999  1
  O  O385  1  0.86919495  0.61848917  0.86816551  1
  O  O386  1  0.13466827  0.37404412  0.13054986  1
  O  O387  1  0.13434330  0.37963137  0.62775199  1
  O  O388  1  0.13445110  0.87745825  0.12683694  1
  O  O389  1  0.13234383  0.88314021  0.62675761  1
  O  O390  1  0.63065947  0.37984045  0.13217607  1
  O  O391  1  0.62287357  0.38907421  0.62488985  1
  O  O392  1  0.63599004  0.88392005  0.11677751  1
  O  O393  1  0.63211099  0.88419818  0.62401442  1
  O  O394  1  0.11899674  0.25433694  0.25607163  1
  O  O395  1  0.11583897  0.24956204  0.75664621  1
  O  O396  1  0.11070398  0.75080819  0.24606853  1
  O  O397  1  0.11901793  0.75163525  0.75688674  1
  O  O398  1  0.62127679  0.25496489  0.26009782  1
  O  O399  1  0.61396591  0.24956987  0.75093485  1
  O  O400  1  0.61272504  0.74359762  0.25565614  1
  O  O401  1  0.61180248  0.75135213  0.75085465  1
  O  O402  1  0.38175841  0.24377843  0.24850705  1
  O  O403  1  0.38218196  0.24437026  0.74379095  1
  O  O404  1  0.38438925  0.74159173  0.24436681  1
  O  O405  1  0.38515911  0.74405502  0.74909002  1
  O  O406  1  0.88057034  0.24438778  0.24608677  1
  O  O407  1  0.88194832  0.24267836  0.75125796  1
  O  O408  1  0.88554861  0.74129449  0.24810422  1
  O  O409  1  0.88279296  0.73841957  0.74949291  1
  O  O410  1  0.38222090  0.49370749  0.49934393  1
  O  O411  1  0.37679202  0.49834917  0.98675093  1
  O  O412  1  0.36713385  0.98645714  0.49251157  1
  O  O413  1  0.38132034  0.99512117  0.99461521  1
  O  O414  1  0.87991164  0.49255750  0.49318977  1
  O  O415  1  0.88268252  0.50030997  0.98948165  1
  O  O416  1  0.88205024  0.99936366  0.49270676  1
  O  O417  1  0.87951454  0.99678522  0.99085486  1
  O  O418  1  0.11709151  0.00686214  -0.00004757  1
  O  O419  1  0.12028510  0.00623561  0.50478778  1
  O  O420  1  0.11880544  0.50760107  -0.00083183  1
  O  O421  1  0.11594933  0.50512327  0.50124928  1
  O  O422  1  0.61982434  0.00839075  0.00630033  1
  O  O423  1  0.62496965  -0.00227310  0.50887171  1
  O  O424  1  0.62370274  0.50199992  0.00889207  1
  O  O425  1  0.61926326  0.50456561  0.50759914  1
  O  O426  1  0.36489458  0.37305283  0.12353700  1
  O  O427  1  0.37055773  0.36867406  0.61867059  1
  O  O428  1  0.37134835  0.86993777  0.11933415  1
  O  O429  1  0.36911942  0.87550714  0.61463560  1
  O  O430  1  0.86820090  0.36737106  0.12413735  1
  O  O431  1  0.88093710  0.37985067  0.61022154  1
  O  O432  1  0.86457250  0.87523303  0.11646625  1
  O  O433  1  0.86305489  0.87328893  0.62199048  1
  O  O434  1  0.12994042  0.13066709  0.38032884  1
  O  O435  1  0.13065059  0.12970909  0.87982687  1
  O  O436  1  0.13920112  0.62277075  0.37314042  1
  O  O437  1  0.12646006  0.63275528  0.88170286  1
  O  O438  1  0.63569616  0.13549656  0.37550537  1
  O  O439  1  0.62565158  0.12403597  0.88878810  1
  O  O440  1  0.63124641  0.63145839  0.38036650  1
  O  O441  1  0.63800871  0.62395473  0.87403895  1
