# generated using pymatgen
data_V93Zn93O256
_symmetry_space_group_name_H-M   'P 1'
_cell_length_a   17.06129610
_cell_length_b   17.05521673
_cell_length_c   17.06048572
_cell_angle_alpha   90.07448132
_cell_angle_beta   89.97898960
_cell_angle_gamma   90.04069866
_symmetry_Int_Tables_number   1
_chemical_formula_structural   V93Zn93O256
_chemical_formula_sum   'V93 Zn93 O256'
_cell_volume   4964.32435024
_cell_formula_units_Z   1
loop_
 _symmetry_equiv_pos_site_id
 _symmetry_equiv_pos_as_xyz
  1  'x, y, z'
loop_
 _atom_site_type_symbol
 _atom_site_label
 _atom_site_symmetry_multiplicity
 _atom_site_fract_x
 _atom_site_fract_y
 _atom_site_fract_z
 _atom_site_occupancy
  V  V0  1  0.49533365  0.49416641  0.50120041  1
  V  V1  1  0.62666464  0.25365123  0.86790343  1
  V  V2  1  0.62369205  0.87466448  0.25062181  1
  V  V3  1  0.12509750  0.74906191  0.87468558  1
  V  V4  1  0.25251682  0.24512284  -0.00599466  1
  V  V5  1  -0.00035890  0.12555878  0.62538518  1
  V  V6  1  0.24718631  0.49882924  0.24824367  1
  V  V7  1  0.12458798  0.00123935  0.62487925  1
  V  V8  1  0.87295209  0.37542758  0.50400552  1
  V  V9  1  0.12434307  0.62395232  0.49944554  1
  V  V10  1  0.13073346  0.12126027  -0.00580928  1
  V  V11  1  0.62280816  0.62158676  0.00213105  1
  V  V12  1  0.49935227  0.74886940  0.25046433  1
  V  V13  1  0.37457947  0.62425465  0.24959879  1
  V  V14  1  0.74877390  0.62126042  0.87174568  1
  V  V15  1  0.24880501  0.25033175  0.49828544  1
  V  V16  1  0.87466249  0.24926766  0.12397132  1
  V  V17  1  0.25370269  0.37604783  0.62048728  1
  V  V18  1  0.50034126  0.87627157  0.87461688  1
  V  V19  1  0.37552933  0.74914452  0.62438734  1
  V  V20  1  0.12533196  -0.00151700  0.12468805  1
  V  V21  1  0.50333220  0.62415841  0.62496342  1
  V  V22  1  0.25100055  0.50027491  0.74755304  1
  V  V23  1  0.37345480  0.00302390  0.87583641  1
  V  V24  1  0.37576086  0.37473991  -0.00199132  1
  V  V25  1  0.12612113  0.24842087  0.87239331  1
  V  V26  1  0.87585526  0.12578861  0.75102249  1
  V  V27  1  0.12524299  0.87460283  0.24985693  1
  V  V28  1  0.74928658  0.62528194  0.37530320  1
  V  V29  1  0.38017385  0.24429968  0.12829374  1
  V  V30  1  0.00555545  0.62011326  0.11935791  1
  V  V31  1  0.50158436  0.12399280  0.62475421  1
  V  V32  1  0.87356373  0.62285678  0.74947263  1
  V  V33  1  0.87364676  0.74974393  0.62458484  1
  V  V34  1  0.62388544  0.25261578  0.37414421  1
  V  V35  1  0.24966904  0.00302350  0.75431616  1
  V  V36  1  0.62482296  0.12554774  0.50248504  1
  V  V37  1  0.37609085  0.87827786  0.49774755  1
  V  V38  1  0.75059749  0.25449269  0.50505613  1
  V  V39  1  0.12232636  0.37594387  0.24865529  1
  V  V40  1  0.62094503  0.00387082  0.12647153  1
  V  V41  1  0.24952352  0.62320710  0.37452093  1
  V  V42  1  -0.00119740  0.49891099  0.50041538  1
  V  V43  1  -0.00077157  0.87572543  0.37568989  1
  V  V44  1  -0.00034469  0.74944168  0.25016798  1
  V  V45  1  0.74990249  0.12557546  0.37628479  1
  V  V46  1  0.87561599  0.12429498  0.25006282  1
  V  V47  1  0.25238810  0.00384671  0.25160514  1
  V  V48  1  0.37553567  0.25340677  0.62040898  1
  V  V49  1  0.62437881  0.74937400  0.37526385  1
  V  V50  1  0.62495131  0.00229562  0.62565936  1
  V  V51  1  0.50541114  0.37508216  0.86916317  1
  V  V52  1  0.25175326  0.62610921  0.87408553  1
  V  V53  1  0.74914995  0.37729749  0.12581587  1
  V  V54  1  0.12411029  0.74906406  0.37532634  1
  V  V55  1  -0.00078807  0.87348084  0.87475105  1
  V  V56  1  0.37602124  0.62601870  0.74923417  1
  V  V57  1  0.87411833  0.62457852  0.25154253  1
  V  V58  1  0.87529305  0.00020249  0.37600602  1
  V  V59  1  0.12565761  0.49926088  0.62509190  1
  V  V60  1  0.24987329  0.87328357  0.12463705  1
  V  V61  1  0.87390371  0.25357294  0.62826043  1
  V  V62  1  0.62449042  0.75074151  0.87400891  1
  V  V63  1  0.24961168  0.87592525  0.62521202  1
  V  V64  1  0.74922150  0.87512658  0.12470882  1
  V  V65  1  0.74956434  0.75098081  -0.00009883  1
  V  V66  1  0.74855957  0.75018222  0.50034002  1
  V  V67  1  0.63050481  0.48716620  0.63124370  1
  V  V68  1  -0.00003108  0.00067157  0.50069027  1
  V  V69  1  0.00013468  -0.00227677  -0.00047571  1
  V  V70  1  0.37313032  0.12644870  0.75441234  1
  V  V71  1  0.74970286  0.12549758  0.87554793  1
  V  V72  1  0.88433440  0.49942904  0.88283277  1
  V  V73  1  0.62026510  0.12664296  0.00447473  1
  V  V74  1  0.25007070  0.74930616  -0.00170876  1
  V  V75  1  0.87272674  0.49986418  0.37749142  1
  V  V76  1  0.37552241  0.87548444  -0.00041273  1
  V  V77  1  -0.00065757  0.62470499  0.62459903  1
  V  V78  1  0.49975514  0.00255918  0.00397644  1
  V  V79  1  0.49455066  0.37202110  0.37511173  1
  V  V80  1  0.37545758  0.74804115  0.12523786  1
  V  V81  1  -0.00010584  0.75028022  0.74986019  1
  V  V82  1  0.74980782  0.00067999  0.75105459  1
  V  V83  1  0.37761035  0.49937586  0.87412017  1
  V  V84  1  -0.00036702  0.12193091  0.12676595  1
  V  V85  1  0.74846884  -0.00016329  0.25058935  1
  V  V86  1  0.74968043  0.87517074  0.62513341  1
  V  V87  1  0.87567839  -0.00068729  0.87625386  1
  V  V88  1  0.24970918  0.74940881  0.50015279  1
  V  V89  1  0.24569355  0.37972346  0.12183429  1
  V  V90  1  0.62385544  0.87630792  0.75080027  1
  V  V91  1  0.87382849  0.75039318  0.12513774  1
  V  V92  1  0.37500247  0.49722051  0.37683973  1
  Zn  Zn93  1  0.37771270  0.00403112  0.37452666  1
  Zn  Zn94  1  0.49984212  0.75163923  0.74950043  1
  Zn  Zn95  1  0.12232483  0.24829638  0.37504129  1
  Zn  Zn96  1  0.25093866  0.12625830  0.37527047  1
  Zn  Zn97  1  0.12500860  0.12628134  0.49689859  1
  Zn  Zn98  1  0.12319920  0.37521200  0.75080230  1
  Zn  Zn99  1  0.50278627  0.25269942  0.74750110  1
  Zn  Zn100  1  0.88394825  0.38133350  0.00703149  1
  Zn  Zn101  1  0.00027787  0.25376304  0.75336179  1
  Zn  Zn102  1  0.75051501  0.25342878  0.00000796  1
  Zn  Zn103  1  0.49973608  0.87675714  0.37516059  1
  Zn  Zn104  1  0.38693783  0.11996513  0.25033635  1
  Zn  Zn105  1  0.62400601  0.37854488  0.24944954  1
  Zn  Zn106  1  0.50079187  -0.00039935  0.49733991  1
  Zn  Zn107  1  0.62587058  0.62198270  0.50013483  1
  Zn  Zn108  1  0.50819456  0.24482416  0.24055793  1
  Zn  Zn109  1  0.00237090  0.24834925  0.25339384  1
  Zn  Zn110  1  0.87429558  0.87496633  0.00051220  1
  Zn  Zn111  1  0.12604377  0.61851059  -0.00119471  1
  Zn  Zn112  1  0.87428746  0.87573218  0.50038627  1
  Zn  Zn113  1  0.62156511  0.49795150  0.12826967  1
  Zn  Zn114  1  0.00037491  0.37202591  0.37516177  1
  Zn  Zn115  1  0.00703973  0.37785262  0.88252425  1
  Zn  Zn116  1  0.12521241  0.87537474  0.74972556  1
  Zn  Zn117  1  0.49885690  0.61941541  0.12559253  1
  Zn  Zn118  1  0.75093459  0.48309372  0.75011856  1
  Zn  Zn119  1  0.06137125  0.45805632  0.05745713  1
  Zn  Zn120  1  0.74678087  0.50014411  0.25114328  1
  Zn  Zn121  1  0.50014907  0.49862861  0.00198255  1
  Zn  Zn122  1  0.18875848  0.18902216  0.18407077  1
  Zn  Zn123  1  0.18870102  0.18568336  0.68512246  1
  Zn  Zn124  1  0.18763177  0.68715837  0.18788126  1
  Zn  Zn125  1  0.18696263  0.68777761  0.68798466  1
  Zn  Zn126  1  0.69031401  0.18842669  0.18778553  1
  Zn  Zn127  1  0.68885224  0.30993283  0.68843883  1
  Zn  Zn128  1  0.68721531  0.68730621  0.18803979  1
  Zn  Zn129  1  0.68606388  0.68683124  0.68814913  1
  Zn  Zn130  1  0.31098950  0.31461610  0.31077034  1
  Zn  Zn131  1  0.31288153  0.31406512  0.80920356  1
  Zn  Zn132  1  0.31181901  0.81277415  0.31296686  1
  Zn  Zn133  1  0.31332675  0.81438128  0.81123835  1
  Zn  Zn134  1  0.81262065  0.31363542  0.31226537  1
  Zn  Zn135  1  0.81724727  0.31339948  0.81875570  1
  Zn  Zn136  1  0.81182487  0.81242597  0.31264504  1
  Zn  Zn137  1  0.81238049  0.81194149  0.81203246  1
  Zn  Zn138  1  0.18636357  0.43454119  0.43580585  1
  Zn  Zn139  1  0.19245900  0.43619274  0.93280910  1
  Zn  Zn140  1  0.18711290  0.93838290  0.43743737  1
  Zn  Zn141  1  0.18746983  0.93453253  0.93495227  1
  Zn  Zn142  1  0.68475277  0.43869421  0.44083051  1
  Zn  Zn143  1  0.69232848  0.43617282  0.94098416  1
  Zn  Zn144  1  0.68664337  0.93658320  0.43809705  1
  Zn  Zn145  1  0.68628363  0.93860570  0.93941956  1
  Zn  Zn146  1  0.31251344  0.06134524  0.06461661  1
  Zn  Zn147  1  0.31128146  0.06469906  0.56468175  1
  Zn  Zn148  1  0.31169175  0.56146753  0.06009290  1
  Zn  Zn149  1  0.31408079  0.56291917  0.56128858  1
  Zn  Zn150  1  0.81034246  0.06204278  0.06184647  1
  Zn  Zn151  1  0.81267448  0.06470412  0.56310485  1
  Zn  Zn152  1  0.81132042  0.56478934  0.06432377  1
  Zn  Zn153  1  0.80982585  0.56317547  0.56204256  1
  Zn  Zn154  1  0.43785431  0.43414282  0.18791178  1
  Zn  Zn155  1  0.43823936  0.43754844  0.68839393  1
  Zn  Zn156  1  0.43867551  0.93579700  0.18689682  1
  Zn  Zn157  1  0.43677442  0.93852098  0.68645001  1
  Zn  Zn158  1  0.93295901  0.43755458  0.19347351  1
  Zn  Zn159  1  0.93894011  0.43579369  0.69436772  1
  Zn  Zn160  1  0.93654037  0.93685506  0.18821905  1
  Zn  Zn161  1  0.93703629  0.93687019  0.68819323  1
  Zn  Zn162  1  0.06598924  0.06464427  0.31502778  1
  Zn  Zn163  1  0.06143954  0.06302835  0.81123222  1
  Zn  Zn164  1  0.06037413  0.55900725  0.31061142  1
  Zn  Zn165  1  0.06495957  0.56516313  0.81058206  1
  Zn  Zn166  1  0.55793057  0.06409047  0.31354428  1
  Zn  Zn167  1  0.56126203  0.06500808  0.81349057  1
  Zn  Zn168  1  0.56338216  0.56182495  0.31148517  1
  Zn  Zn169  1  0.56269562  0.56009563  0.81088626  1
  Zn  Zn170  1  0.43416693  0.18370317  0.43512277  1
  Zn  Zn171  1  0.44098105  0.18981623  0.93713437  1
  Zn  Zn172  1  0.43882045  0.68607723  0.43777922  1
  Zn  Zn173  1  0.43891280  0.68842711  0.93732803  1
  Zn  Zn174  1  0.93975921  0.18771592  0.43725592  1
  Zn  Zn175  1  0.94187141  0.18597880  0.93992488  1
  Zn  Zn176  1  0.93571416  0.68776133  0.43850124  1
  Zn  Zn177  1  0.93589531  0.68750273  0.93846547  1
  Zn  Zn178  1  0.06179536  0.29884286  0.06255315  1
  Zn  Zn179  1  0.06277902  0.31340247  0.56371330  1
  Zn  Zn180  1  0.06244264  0.80904945  0.06086429  1
  Zn  Zn181  1  0.06227700  0.81458560  0.56281328  1
  Zn  Zn182  1  0.56392785  0.31433237  0.05594021  1
  Zn  Zn183  1  0.55672269  0.31093666  0.55716150  1
  Zn  Zn184  1  0.56175421  0.81216304  0.06362073  1
  Zn  Zn185  1  0.56279637  0.81240041  0.56186278  1
  O  O186  1  0.12021113  0.11858292  0.11531100  1
  O  O187  1  0.11682094  0.11853922  0.62427970  1
  O  O188  1  0.10830798  0.62995995  0.12671118  1
  O  O189  1  0.12000808  0.61980319  0.61834182  1
  O  O190  1  0.63370826  0.12092190  0.11210889  1
  O  O191  1  0.61144797  0.12006062  0.61957370  1
  O  O192  1  0.62530991  0.62541516  0.11233436  1
  O  O193  1  0.61443929  0.61670842  0.62491064  1
  O  O194  1  0.38643277  0.38103047  0.36918545  1
  O  O195  1  0.38198809  0.37862381  0.87866948  1
  O  O196  1  0.37432734  0.87414717  0.38791875  1
  O  O197  1  0.38034506  0.88176519  0.88077948  1
  O  O198  1  0.87562018  0.38027041  0.38663670  1
  O  O199  1  0.87840318  0.39113164  0.88112498  1
  O  O200  1  0.88148652  0.88212978  0.37508738  1
  O  O201  1  0.88048773  0.88114187  0.87643063  1
  O  O202  1  0.25101784  -0.00274643  0.36148821  1
  O  O203  1  0.25669501  -0.00581480  0.86281730  1
  O  O204  1  0.25529865  0.50427686  0.37075439  1
  O  O205  1  0.25902650  0.50576985  0.86564200  1
  O  O206  1  0.75441530  0.00579267  0.37041662  1
  O  O207  1  0.75482806  0.00594949  0.87180125  1
  O  O208  1  0.75558216  0.50742562  0.37867204  1
  O  O209  1  0.75739820  0.51003257  0.87314623  1
  O  O210  1  0.25838871  0.48573894  0.13079725  1
  O  O211  1  0.24744653  0.49405986  0.62698987  1
  O  O212  1  0.24437704  0.99205099  0.13059351  1
  O  O213  1  0.24516148  0.99528683  0.63387730  1
  O  O214  1  0.75059458  0.48907352  0.12633154  1
  O  O215  1  0.73235549  0.50281780  0.62328118  1
  O  O216  1  0.74313994  0.99522781  0.13133449  1
  O  O217  1  0.74537674  0.99627694  0.63150315  1
  O  O218  1  0.01106541  0.37458735  0.24923351  1
  O  O219  1  0.00609366  0.37109047  0.75947050  1
  O  O220  1  0.00593267  0.86980315  0.25531010  1
  O  O221  1  0.00095618  0.86782619  0.75645385  1
  O  O222  1  0.50315887  0.36612330  0.26176261  1
  O  O223  1  0.49511966  0.37250459  0.76475016  1
  O  O224  1  0.50655434  0.86665564  0.25108789  1
  O  O225  1  0.50601189  0.87592156  0.75609736  1
  O  O226  1  0.49938643  0.13364716  0.25036853  1
  O  O227  1  0.49145843  0.12627370  0.74057322  1
  O  O228  1  0.49158378  0.63100147  0.24940552  1
  O  O229  1  0.49469664  0.62528925  0.73985170  1
  O  O230  1  0.99324889  0.12161325  0.24307453  1
  O  O231  1  0.99205385  0.12719425  0.74394183  1
  O  O232  1  0.99426007  0.63073073  0.24286301  1
  O  O233  1  0.99404185  0.63082487  0.74287369  1
  O  O234  1  0.36863435  0.25265700  0.00544663  1
  O  O235  1  0.36710132  0.24467562  0.51503302  1
  O  O236  1  0.37011567  0.75639101  0.00433325  1
  O  O237  1  0.36883428  0.75569082  0.50518561  1
  O  O238  1  0.87570060  0.24725141  0.01500387  1
  O  O239  1  0.86852888  0.25568725  0.50758749  1
  O  O240  1  0.86667745  0.75162412  0.00621592  1
  O  O241  1  0.86779136  0.75190898  0.50731708  1
  O  O242  1  0.13642482  0.24987765  0.50134513  1
  O  O243  1  0.13411304  0.23963208  0.99340972  1
  O  O244  1  0.12955919  0.74392273  0.49504431  1
  O  O245  1  0.13272563  0.74575274  0.99280266  1
  O  O246  1  0.63357608  0.24678993  0.49480911  1
  O  O247  1  0.62697005  0.23999240  0.99093870  1
  O  O248  1  0.63124260  0.74820358  0.49395388  1
  O  O249  1  0.62988862  0.74256841  0.99350663  1
  O  O250  1  0.48256921  0.26005699  0.12152090  1
  O  O251  1  0.49249661  0.24351822  0.62634179  1
  O  O252  1  0.49228204  0.74734229  0.13161965  1
  O  O253  1  0.49561666  0.73904290  0.62508258  1
  O  O254  1  0.99112089  0.23948163  0.13013102  1
  O  O255  1  0.98916911  0.24471396  0.62578241  1
  O  O256  1  0.99384632  0.74273722  0.13152759  1
  O  O257  1  0.99449243  0.74432337  0.62907747  1
  O  O258  1  0.00209235  0.25368883  0.37042781  1
  O  O259  1  0.01341575  0.25057669  0.87673806  1
  O  O260  1  0.00487395  0.75440983  0.37031527  1
  O  O261  1  0.00372832  0.75282425  0.86957644  1
  O  O262  1  0.50975213  0.25870645  0.38426913  1
  O  O263  1  0.50902092  0.25749784  0.87288547  1
  O  O264  1  0.50626527  0.75081281  0.36882347  1
  O  O265  1  0.50631230  0.75824280  0.87270026  1
  O  O266  1  0.24773516  0.13782649  0.50328666  1
  O  O267  1  0.24015797  0.13225688  1.00631420  1
  O  O268  1  0.24426655  0.62943878  0.49454169  1
  O  O269  1  0.25351053  0.63396392  0.99118268  1
  O  O270  1  0.74627859  0.13533801  0.49576850  1
  O  O271  1  0.74104422  0.12303563  0.98838131  1
  O  O272  1  0.74778419  0.63284297  0.49371842  1
  O  O273  1  0.74248783  0.63072402  0.99035584  1
  O  O274  1  0.25581050  0.36504238  0.00543770  1
  O  O275  1  0.24734614  0.36900587  0.51357253  1
  O  O276  1  0.25583695  0.86959656  0.00476894  1
  O  O277  1  0.25614055  0.86868427  0.50531405  1
  O  O278  1  0.75922081  0.37264534  0.01174161  1
  O  O279  1  0.75996634  0.36493617  0.49533237  1
  O  O280  1  0.74956624  0.86902354  0.00677189  1
  O  O281  1  0.75118315  0.86877343  0.50783658  1
  O  O282  1  0.13311092  0.48839373  0.25410752  1
  O  O283  1  0.13390314  0.50229702  0.74192657  1
  O  O284  1  0.13191852  0.99326449  0.24364740  1
  O  O285  1  0.13470556  1.00048988  0.74553620  1
  O  O286  1  0.62952041  0.49654471  0.24673344  1
  O  O287  1  0.62537130  0.50071100  0.73400368  1
  O  O288  1  0.63050523  0.99533872  0.24603082  1
  O  O289  1  0.63035025  0.99616769  0.74592389  1
  O  O290  1  0.36375357  -0.00155076  0.24722110  1
  O  O291  1  0.36866497  0.00719720  0.75413853  1
  O  O292  1  0.36805510  0.50432727  0.25695226  1
  O  O293  1  0.37036763  0.50694666  0.75366999  1
  O  O294  1  0.86820081  0.00478335  0.25561759  1
  O  O295  1  0.86977514  0.00553278  0.75647600  1
  O  O296  1  0.87084675  0.50720927  0.26062154  1
  O  O297  1  0.87155612  0.50679998  0.76038272  1
  O  O298  1  0.12375737  0.37122952  0.36349450  1
  O  O299  1  0.12782899  0.36156403  0.87326802  1
  O  O300  1  0.11910552  0.86840682  0.36994435  1
  O  O301  1  0.11756446  0.86706329  0.87218186  1
  O  O302  1  0.61691614  0.36609216  0.37738187  1
  O  O303  1  0.61755012  0.36534356  0.88575715  1
  O  O304  1  0.62535895  0.86748134  0.36775476  1
  O  O305  1  0.62031198  0.87134184  0.87031308  1
  O  O306  1  0.36984456  0.14189166  0.12291760  1
  O  O307  1  0.38394390  0.13134267  0.63300117  1
  O  O308  1  0.37324511  0.63113974  0.13188005  1
  O  O309  1  0.38413635  0.62850696  0.62893317  1
  O  O310  1  0.87808376  0.12945384  0.13031941  1
  O  O311  1  0.87866847  0.13442098  0.63051764  1
  O  O312  1  0.88206489  0.63169981  0.13124204  1
  O  O313  1  0.87949905  0.62928022  0.62951832  1
  O  O314  1  0.25667488  0.25931221  0.11295775  1
  O  O315  1  0.25624941  0.25750270  0.61984881  1
  O  O316  1  0.25497873  0.75456416  0.11971590  1
  O  O317  1  0.25497532  0.75428610  0.61923988  1
  O  O318  1  0.75939888  0.25673200  0.12365637  1
  O  O319  1  0.75962349  0.25020365  0.61332173  1
  O  O320  1  0.75445793  0.75540909  0.11999812  1
  O  O321  1  0.75383300  0.75461629  0.62106153  1
  O  O322  1  0.25317841  0.25540745  0.39030547  1
  O  O323  1  0.24516467  0.25350753  0.88752150  1
  O  O324  1  0.24323100  0.74321861  0.38005889  1
  O  O325  1  0.24626926  0.74623574  0.87819933  1
  O  O326  1  0.74357074  0.24597119  0.38456395  1
  O  O327  1  0.74518412  0.24073464  0.87914166  1
  O  O328  1  0.74487827  0.74513387  0.38026301  1
  O  O329  1  0.74529429  0.74098973  0.87889112  1
  O  O330  1  0.01056537  0.11690897  0.00682990  1
  O  O331  1  0.00006643  0.11795617  0.50803483  1
  O  O332  1  0.00015266  0.63031374  0.01651183  1
  O  O333  1  0.00478061  0.61971563  0.50565380  1
  O  O334  1  0.51277964  0.11833642  -0.00711532  1
  O  O335  1  0.50393860  0.12490630  0.51040812  1
  O  O336  1  0.51132788  0.62402044  -0.00022612  1
  O  O337  1  0.50139977  0.61519218  0.50992852  1
  O  O338  1  0.50134217  0.38501176  0.48982152  1
  O  O339  1  0.49270450  0.37586726  0.98718439  1
  O  O340  1  0.48786182  0.87556576  0.50119329  1
  O  O341  1  0.49456868  0.88101461  0.99410295  1
  O  O342  1  0.98991275  0.38108099  0.49997229  1
  O  O343  1  1.00133235  0.37653610  1.00263082  1
  O  O344  1  0.99760570  0.88149921  0.49326207  1
  O  O345  1  0.99874008  0.88035830  0.99349352  1
  O  O346  1  0.49646362  0.49232999  0.38249447  1
  O  O347  1  0.49549395  0.49184184  0.87592058  1
  O  O348  1  0.49603249  0.99448464  0.38049313  1
  O  O349  1  0.49407737  0.99506887  0.88204091  1
  O  O350  1  0.99097540  0.49941660  0.38375164  1
  O  O351  1  0.98655417  0.50664776  0.87276639  1
  O  O352  1  0.99519939  0.99510208  0.38003336  1
  O  O353  1  0.99531524  0.99436289  0.87978497  1
  O  O354  1  0.00601575  0.00203451  0.11958713  1
  O  O355  1  0.00384683  0.00478675  0.62097710  1
  O  O356  1  -0.00668069  0.51577868  0.12971592  1
  O  O357  1  0.00488578  0.50585552  0.62048030  1
  O  O358  1  0.50844625  -0.00652053  0.11606336  1
  O  O359  1  0.50477044  0.00899172  0.62333820  1
  O  O360  1  0.50206145  0.50067730  0.12003156  1
  O  O361  1  0.50635652  0.50382564  0.61949137  1
  O  O362  1  0.24255233  0.37894921  0.23991613  1
  O  O363  1  0.24825327  0.38182672  0.73858440  1
  O  O364  1  0.24417448  0.88045481  0.24374057  1
  O  O365  1  0.25087645  0.88601325  0.74303447  1
  O  O366  1  0.74882300  0.37606655  0.23928186  1
  O  O367  1  0.75517439  0.37233323  0.75021292  1
  O  O368  1  0.74384212  0.88031901  0.24457122  1
  O  O369  1  0.74398522  0.88120218  0.74549448  1
  O  O370  1  0.24999398  0.11088247  0.24434485  1
  O  O371  1  0.26221296  0.11366145  0.74163202  1
  O  O372  1  0.25381954  0.61935178  0.25560971  1
  O  O373  1  0.25727987  0.62062789  0.75357193  1
  O  O374  1  0.75496839  0.11886729  0.25681396  1
  O  O375  1  0.75810845  0.11720427  0.76676758  1
  O  O376  1  0.75744886  0.62603001  0.25738513  1
  O  O377  1  0.75419557  0.62505151  0.76064639  1
  O  O378  1  0.36661050  0.12206446  0.36902527  1
  O  O379  1  0.38304096  0.12038598  0.86197670  1
  O  O380  1  0.36825607  0.61921663  0.36979562  1
  O  O381  1  0.37174563  0.62069672  0.86855463  1
  O  O382  1  0.86899308  0.11981845  0.37021017  1
  O  O383  1  0.86922363  0.12026532  0.87340306  1
  O  O384  1  0.86932781  0.62037683  0.37138843  1
  O  O385  1  0.86721091  0.61812136  0.87076602  1
  O  O386  1  0.13283691  0.37292252  0.12811822  1
  O  O387  1  0.13469315  0.38176298  0.62774156  1
  O  O388  1  0.12977688  0.87835193  0.12975846  1
  O  O389  1  0.13166767  0.88199409  0.62734403  1
  O  O390  1  0.63683020  0.37211924  0.12442093  1
  O  O391  1  0.62080781  0.38224069  0.62433454  1
  O  O392  1  0.63074418  0.88093292  0.13096713  1
  O  O393  1  0.62985309  0.88158145  0.63072959  1
  O  O394  1  0.12670260  0.26250444  0.24814662  1
  O  O395  1  0.12869750  0.24509779  0.76349260  1
  O  O396  1  0.12036589  0.75524853  0.25644849  1
  O  O397  1  0.11786682  0.75106722  0.75567136  1
  O  O398  1  0.62899041  0.25127504  0.26548286  1
  O  O399  1  0.62378610  0.24884337  0.76443855  1
  O  O400  1  0.61952208  0.75487034  0.25491506  1
  O  O401  1  0.62335047  0.75801728  0.75623531  1
  O  O402  1  0.36901862  0.25100418  0.23262379  1
  O  O403  1  0.37305638  0.24041594  0.74019877  1
  O  O404  1  0.37817033  0.74445675  0.24527916  1
  O  O405  1  0.37681286  0.74440044  0.74226719  1
  O  O406  1  0.87437818  0.24227962  0.24000963  1
  O  O407  1  0.87548425  0.24383816  0.74194624  1
  O  O408  1  0.88059986  0.74498757  0.24554283  1
  O  O409  1  0.87971640  0.74296005  0.74448141  1
  O  O410  1  0.38727162  0.50532877  0.49367619  1
  O  O411  1  0.37424080  0.49236735  0.99039636  1
  O  O412  1  0.37246402  0.98773803  0.50207024  1
  O  O413  1  0.37874740  0.99553046  0.99606918  1
  O  O414  1  0.87815367  0.49232377  0.49911809  1
  O  O415  1  0.87268280  0.50625496  0.98516773  1
  O  O416  1  0.88042322  0.99937877  0.49370598  1
  O  O417  1  0.88204433  0.99916701  0.99417580  1
  O  O418  1  0.12246923  0.00467024  0.00385164  1
  O  O419  1  0.11851175  0.00089823  0.50740027  1
  O  O420  1  0.13961376  0.50701603  -0.00014905  1
  O  O421  1  0.11963191  0.50487207  0.50493021  1
  O  O422  1  0.61985664  0.00809572  0.00517473  1
  O  O423  1  0.62638948  0.00781928  0.50795828  1
  O  O424  1  0.62583036  0.51249723  -0.00001130  1
  O  O425  1  0.61392870  0.50062812  0.51247237  1
  O  O426  1  0.36465655  0.36554904  0.11821428  1
  O  O427  1  0.36650858  0.36459190  0.63225375  1
  O  O428  1  0.36900507  0.86807360  0.11829931  1
  O  O429  1  0.36974984  0.86921623  0.61783172  1
  O  O430  1  0.86933987  0.36581999  0.12742946  1
  O  O431  1  0.88070793  0.36588487  0.61500721  1
  O  O432  1  0.86747991  0.86880984  0.12452285  1
  O  O433  1  0.86707061  0.86797239  0.62534183  1
  O  O434  1  0.13350970  0.13035014  0.37811103  1
  O  O435  1  0.12127700  0.13010978  0.88767824  1
  O  O436  1  0.12933210  0.62907101  0.37993967  1
  O  O437  1  0.13418156  0.63245345  0.87413994  1
  O  O438  1  0.63055791  0.13436795  0.38331528  1
  O  O439  1  0.63232172  0.13147440  0.88158506  1
  O  O440  1  0.63104508  0.63170406  0.37721324  1
  O  O441  1  0.63187877  0.62893334  0.87949536  1
