# generated using pymatgen
data_V93Zn93O256
_symmetry_space_group_name_H-M   'P 1'
_cell_length_a   17.05438870
_cell_length_b   17.05315737
_cell_length_c   17.05161211
_cell_angle_alpha   89.99386533
_cell_angle_beta   90.03336977
_cell_angle_gamma   89.98961861
_symmetry_Int_Tables_number   1
_chemical_formula_structural   V93Zn93O256
_chemical_formula_sum   'V93 Zn93 O256'
_cell_volume   4959.13942417
_cell_formula_units_Z   1
loop_
 _symmetry_equiv_pos_site_id
 _symmetry_equiv_pos_as_xyz
  1  'x, y, z'
loop_
 _atom_site_type_symbol
 _atom_site_label
 _atom_site_symmetry_multiplicity
 _atom_site_fract_x
 _atom_site_fract_y
 _atom_site_fract_z
 _atom_site_occupancy
  V  V0  1  0.12484402  0.12495818  0.00093548  1
  V  V1  1  0.62462850  0.87594502  0.24843042  1
  V  V2  1  0.24979455  0.61991666  0.36754690  1
  V  V3  1  0.87676584  0.74770331  0.12333394  1
  V  V4  1  0.24762849  -0.00186997  0.25010250  1
  V  V5  1  0.49392923  0.13153548  0.62509207  1
  V  V6  1  0.74985324  0.50044588  0.75034253  1
  V  V7  1  0.87609734  0.37335850  0.50060402  1
  V  V8  1  0.87513782  0.25036344  0.62588907  1
  V  V9  1  0.62344269  0.24972352  0.87522584  1
  V  V10  1  0.75119258  0.87190865  0.62278908  1
  V  V11  1  0.74962539  0.87778473  0.12325666  1
  V  V12  1  0.37403709  0.00057716  0.87372591  1
  V  V13  1  0.75039351  0.75100278  -0.00207697  1
  V  V14  1  0.75355354  0.37784119  0.12630331  1
  V  V15  1  0.49998088  0.87434273  0.37409387  1
  V  V16  1  0.12475354  0.62492556  -0.00023582  1
  V  V17  1  0.62763831  0.37616394  0.25114509  1
  V  V18  1  0.50015371  0.12523564  0.12468107  1
  V  V19  1  0.12262390  -0.00213241  0.62335828  1
  V  V20  1  0.87338945  0.12532450  0.75091799  1
  V  V21  1  0.87556381  0.62505098  0.74879580  1
  V  V22  1  0.50040158  0.50051855  0.00065455  1
  V  V23  1  0.37488137  0.49886588  0.87574765  1
  V  V24  1  0.00034675  0.12473234  0.12612937  1
  V  V25  1  0.37375141  0.87463664  -0.00068843  1
  V  V26  1  0.50015610  0.00078514  0.00000777  1
  V  V27  1  0.49902752  0.74904111  0.24886266  1
  V  V28  1  -0.00338904  0.49373893  0.00123170  1
  V  V29  1  0.24938788  0.12355791  0.87591551  1
  V  V30  1  0.62309255  0.87551619  0.74916265  1
  V  V31  1  0.12514449  0.12393766  0.49935738  1
  V  V32  1  0.12619322  0.75502659  0.37108275  1
  V  V33  1  0.63105649  0.62521706  0.49568569  1
  V  V34  1  0.12789981  0.37798830  0.25234437  1
  V  V35  1  0.25147758  0.37764909  0.13159115  1
  V  V36  1  0.12556610  -0.00215854  0.12664513  1
  V  V37  1  -0.00079853  0.12427983  0.62535768  1
  V  V38  1  -0.00546709  0.87981465  0.37427184  1
  V  V39  1  -0.00083960  0.00012299  0.00099464  1
  V  V40  1  0.12773334  0.49643342  0.62639328  1
  V  V41  1  0.37446185  0.62422495  0.74856658  1
  V  V42  1  0.37353313  0.74991713  0.62246747  1
  V  V43  1  0.62471967  0.00083671  0.12459362  1
  V  V44  1  -0.00041211  0.25069203  0.75280322  1
  V  V45  1  0.87113901  0.50724839  0.37257349  1
  V  V46  1  0.49812030  0.87536992  0.87380674  1
  V  V47  1  0.87499247  0.11924417  0.25424432  1
  V  V48  1  0.49823535  0.75024199  0.74898472  1
  V  V49  1  0.75014111  0.62508349  0.87437749  1
  V  V50  1  0.37643634  0.25049075  0.12620853  1
  V  V51  1  0.75141898  0.24905905  0.50104698  1
  V  V52  1  0.62383254  0.37456148  0.74973894  1
  V  V53  1  0.50186174  0.24959895  0.24961652  1
  V  V54  1  0.87381346  0.00135889  0.87484647  1
  V  V55  1  0.24951194  0.49942525  0.74932565  1
  V  V56  1  0.00421087  0.75406546  0.24785285  1
  V  V57  1  0.62660274  0.25038708  0.37492835  1
  V  V58  1  0.37578064  0.37552700  0.00190888  1
  V  V59  1  0.62512970  0.50105504  0.62429179  1
  V  V60  1  0.24938945  0.62470973  0.87588000  1
  V  V61  1  0.49849504  0.00045692  0.49917901  1
  V  V62  1  0.00196617  0.24955022  0.25074094  1
  V  V63  1  0.37394981  0.87326030  0.50023338  1
  V  V64  1  0.62451449  0.12576759  0.50033667  1
  V  V65  1  -0.00113861  0.74964346  0.74899571  1
  V  V66  1  0.37302051  0.49916130  0.36978997  1
  V  V67  1  0.62309190  0.00022233  0.62534214  1
  V  V68  1  0.87539291  0.49364910  0.87962710  1
  V  V69  1  0.37275727  0.13129467  0.74706866  1
  V  V70  1  0.49993231  0.62590583  0.12430442  1
  V  V71  1  0.12393975  0.25191956  0.87712668  1
  V  V72  1  0.24578864  0.87425598  0.12794935  1
  V  V73  1  0.87502817  0.87608653  -0.00142224  1
  V  V74  1  -0.00044879  0.87467580  0.87410014  1
  V  V75  1  0.12468786  0.87495489  0.74924685  1
  V  V76  1  0.12837007  0.50092405  0.13113312  1
  V  V77  1  0.74895921  0.00087471  0.75065115  1
  V  V78  1  0.62404652  0.75000581  0.87385449  1
  V  V79  1  0.63241843  0.74600465  0.37361278  1
  V  V80  1  0.00186869  0.37493564  0.37658273  1
  V  V81  1  0.00002598  0.62482964  0.62569352  1
  V  V82  1  0.75467393  0.11752742  0.37604848  1
  V  V83  1  0.00099910  0.49935508  0.50076678  1
  V  V84  1  0.13007449  0.24937058  0.37781320  1
  V  V85  1  0.37398778  -0.00030834  0.37382664  1
  V  V86  1  0.62427914  0.62475664  -0.00019906  1
  V  V87  1  0.12616411  0.62445123  0.49806292  1
  V  V88  1  0.50049189  0.62495294  0.62321553  1
  V  V89  1  0.75251382  0.25391342  0.00027302  1
  V  V90  1  0.37453387  0.36969081  0.50681657  1
  V  V91  1  0.87653515  0.25492756  0.12227637  1
  V  V92  1  0.37466286  0.75000067  0.12487774  1
  Zn  Zn93  1  0.25032020  0.74951131  0.49799943  1
  Zn  Zn94  1  -0.00361642  0.37262016  0.87809283  1
  Zn  Zn95  1  0.75506619  0.74753470  0.49455655  1
  Zn  Zn96  1  0.24861318  0.75070576  -0.00069615  1
  Zn  Zn97  1  0.75001815  0.37484011  0.62441885  1
  Zn  Zn98  1  0.49468159  0.25301763  0.74808944  1
  Zn  Zn99  1  0.00021300  0.62335476  0.12856385  1
  Zn  Zn100  1  0.49836992  0.37419662  0.87629665  1
  Zn  Zn101  1  0.37273224  0.61926910  0.24715361  1
  Zn  Zn102  1  0.12532376  0.37482884  0.75293857  1
  Zn  Zn103  1  0.25198725  0.12400129  0.37443874  1
  Zn  Zn104  1  0.50010853  0.49957382  0.49820925  1
  Zn  Zn105  1  0.62704515  0.50239232  0.12672397  1
  Zn  Zn106  1  -0.00814874  0.00218813  0.49194555  1
  Zn  Zn107  1  0.25695411  0.36521782  0.63217920  1
  Zn  Zn108  1  0.86871758  0.63360242  0.25870957  1
  Zn  Zn109  1  0.37490033  0.12627746  0.25168282  1
  Zn  Zn110  1  0.86966600  0.88016353  0.49439898  1
  Zn  Zn111  1  0.74921121  0.12548688  0.87666754  1
  Zn  Zn112  1  0.24853885  0.87209384  0.62260919  1
  Zn  Zn113  1  0.62518039  0.12575677  -0.00037231  1
  Zn  Zn114  1  0.12534302  0.74988489  0.87521230  1
  Zn  Zn115  1  0.87489981  0.74996375  0.61964920  1
  Zn  Zn116  1  0.25064160  -0.00161057  0.74888287  1
  Zn  Zn117  1  0.25886441  0.24289484  0.51121500  1
  Zn  Zn118  1  0.25079883  0.24965600  0.00250458  1
  Zn  Zn119  1  0.49944038  0.37671468  0.37607773  1
  Zn  Zn120  1  0.74509631  0.51151706  0.25539408  1
  Zn  Zn121  1  0.75254877  -0.00118756  0.25175848  1
  Zn  Zn122  1  0.19015031  0.18712274  0.18876561  1
  Zn  Zn123  1  0.18755341  0.18648785  0.68992355  1
  Zn  Zn124  1  0.18825404  0.68767975  0.18771720  1
  Zn  Zn125  1  0.18778999  0.68724708  0.68641865  1
  Zn  Zn126  1  0.68833246  0.18702943  0.18799372  1
  Zn  Zn127  1  0.68661424  0.18694626  0.68682368  1
  Zn  Zn128  1  0.68900695  0.68767159  0.18753803  1
  Zn  Zn129  1  0.68678899  0.68719154  0.68622422  1
  Zn  Zn130  1  0.31496973  0.31433965  0.31471491  1
  Zn  Zn131  1  0.30872049  0.31293758  0.81514771  1
  Zn  Zn132  1  0.31224341  0.81086439  0.31167178  1
  Zn  Zn133  1  0.30921653  0.81044275  0.81185542  1
  Zn  Zn134  1  0.81405011  0.31118700  0.31344452  1
  Zn  Zn135  1  0.80985165  0.31294636  0.81154116  1
  Zn  Zn136  1  0.81341287  0.81490270  0.30758041  1
  Zn  Zn137  1  0.81284892  0.81273710  0.80909609  1
  Zn  Zn138  1  0.19296414  0.43724839  0.44006543  1
  Zn  Zn139  1  0.18911394  0.43751388  0.94202388  1
  Zn  Zn140  1  0.18635588  0.93553089  0.43728695  1
  Zn  Zn141  1  0.18751301  0.93826402  0.93851323  1
  Zn  Zn142  1  0.68950573  0.43726668  0.43946864  1
  Zn  Zn143  1  0.68753879  0.43648551  0.93884593  1
  Zn  Zn144  1  0.68450511  0.93665153  0.43821672  1
  Zn  Zn145  1  0.68609499  0.93803031  0.93700517  1
  Zn  Zn146  1  0.31371174  0.06320175  0.06274186  1
  Zn  Zn147  1  0.31003547  0.05967753  0.56312682  1
  Zn  Zn148  1  0.31208149  0.56170275  0.06324702  1
  Zn  Zn149  1  0.31208512  0.56035580  0.55688602  1
  Zn  Zn150  1  0.81153781  0.06651209  0.06362906  1
  Zn  Zn151  1  0.81424073  0.05860023  0.56190625  1
  Zn  Zn152  1  0.81123755  0.56323521  0.06238870  1
  Zn  Zn153  1  0.81244487  0.56075034  0.56222722  1
  Zn  Zn154  1  0.44092288  0.43819777  0.18799137  1
  Zn  Zn155  1  0.44020502  0.43941716  0.68740592  1
  Zn  Zn156  1  0.43539579  0.93721765  0.18724704  1
  Zn  Zn157  1  0.43542598  0.94037274  0.68599988  1
  Zn  Zn158  1  0.94182522  0.43759531  0.19000912  1
  Zn  Zn159  1  0.93907736  0.43580122  0.69032676  1
  Zn  Zn160  1  0.93926087  0.93485868  0.18869888  1
  Zn  Zn161  1  0.93602001  0.93865178  0.68582687  1
  Zn  Zn162  1  0.06603436  0.06248169  0.30936852  1
  Zn  Zn163  1  0.06146024  0.06252554  0.81232183  1
  Zn  Zn164  1  0.05672957  0.56763479  0.31215680  1
  Zn  Zn165  1  0.06135029  0.56156302  0.81371479  1
  Zn  Zn166  1  0.56378775  0.06320257  0.31140687  1
  Zn  Zn167  1  0.56072551  0.06479450  0.81162902  1
  Zn  Zn168  1  0.55901895  0.56192233  0.31330355  1
  Zn  Zn169  1  0.56069079  0.56198602  0.81293071  1
  Zn  Zn170  1  0.43898933  0.18778709  0.43421150  1
  Zn  Zn171  1  0.43723482  0.18810474  0.93772232  1
  Zn  Zn172  1  0.44010906  0.68553627  0.43641185  1
  Zn  Zn173  1  0.43565177  0.68743489  0.93787415  1
  Zn  Zn174  1  0.93923966  0.18742866  0.43783018  1
  Zn  Zn175  1  0.93685228  0.18683010  0.93893875  1
  Zn  Zn176  1  0.93955371  0.69251460  0.44133217  1
  Zn  Zn177  1  0.93965597  0.68436765  0.93624774  1
  Zn  Zn178  1  0.06424852  0.31369529  0.06338820  1
  Zn  Zn179  1  0.06421659  0.31028501  0.56415244  1
  Zn  Zn180  1  0.06311755  0.81299635  0.06120884  1
  Zn  Zn181  1  0.06067817  0.81019662  0.55844879  1
  Zn  Zn182  1  0.56448231  0.31390872  0.06338950  1
  Zn  Zn183  1  0.56079754  0.31367096  0.56132114  1
  Zn  Zn184  1  0.56171234  0.81296596  0.06148961  1
  Zn  Zn185  1  0.56239797  0.81062467  0.55977195  1
  O  O186  1  0.11893719  0.12024091  0.12078769  1
  O  O187  1  0.11872700  0.11661239  0.61825013  1
  O  O188  1  0.12554633  0.61653888  0.11801327  1
  O  O189  1  0.12036985  0.61540303  0.61988278  1
  O  O190  1  0.61868197  0.11958009  0.12368395  1
  O  O191  1  0.61659447  0.11907584  0.62020845  1
  O  O192  1  0.61881760  0.62565622  0.11648618  1
  O  O193  1  0.61949246  0.62092180  0.61821048  1
  O  O194  1  0.37546313  0.38343939  0.38378760  1
  O  O195  1  0.37510661  0.38108637  0.88295626  1
  O  O196  1  0.38119985  0.87908469  0.37983347  1
  O  O197  1  0.37908317  0.87962827  0.87796177  1
  O  O198  1  0.88336767  0.37970393  0.38100072  1
  O  O199  1  0.87304528  0.39023895  0.87189775  1
  O  O200  1  0.89096908  0.87075336  0.37203108  1
  O  O201  1  0.87960254  0.88123420  0.87898331  1
  O  O202  1  0.25352999  -0.00294980  0.36455291  1
  O  O203  1  0.25590390  0.00611225  0.87386778  1
  O  O204  1  0.25810314  0.50982647  0.37895897  1
  O  O205  1  0.25515976  0.50491283  0.87046758  1
  O  O206  1  0.74405724  0.01421923  0.37402843  1
  O  O207  1  0.75565245  0.00103424  0.86918428  1
  O  O208  1  0.76838117  0.49381061  0.37533526  1
  O  O209  1  0.75645285  0.50575064  0.87213561  1
  O  O210  1  0.23909980  0.49039656  0.12125525  1
  O  O211  1  0.24060645  0.50083125  0.63049865  1
  O  O212  1  0.24698838  0.99308077  0.13048602  1
  O  O213  1  0.23385741  0.99669016  0.62632702  1
  O  O214  1  0.75212021  0.48750839  0.12626074  1
  O  O215  1  0.74327147  0.49778346  0.63280333  1
  O  O216  1  0.74347220  0.99477178  0.12421836  1
  O  O217  1  0.74187231  0.99251090  0.63142370  1
  O  O218  1  0.00883635  0.36793407  0.25649972  1
  O  O219  1  0.00430588  0.36632519  0.75583573  1
  O  O220  1  -0.00162920  0.86391430  0.25901909  1
  O  O221  1  0.00672990  0.87083170  0.75412015  1
  O  O222  1  0.51358000  0.36859440  0.24919251  1
  O  O223  1  0.51101355  0.37269757  0.75215426  1
  O  O224  1  0.50515078  0.86945971  0.25390136  1
  O  O225  1  0.50359659  0.87028244  0.75421141  1
  O  O226  1  0.49947745  0.13201322  0.24301881  1
  O  O227  1  0.49059007  0.12566351  0.74144266  1
  O  O228  1  0.49909234  0.63207545  0.24156189  1
  O  O229  1  0.49411498  0.63073456  0.74460466  1
  O  O230  1  0.99426475  0.12994669  0.24583925  1
  O  O231  1  0.99332810  0.13062113  0.74555224  1
  O  O232  1  0.99062897  0.63911342  0.24754974  1
  O  O233  1  0.99555383  0.62959115  0.74553729  1
  O  O234  1  0.37457657  0.25762260  0.00769783  1
  O  O235  1  0.37520649  0.26503061  0.49168045  1
  O  O236  1  0.37294069  0.75670011  0.00660403  1
  O  O237  1  0.37720074  0.75609096  0.50506193  1
  O  O238  1  0.86811080  0.24612442  0.01276643  1
  O  O239  1  0.87202596  0.25375741  0.50625530  1
  O  O240  1  0.87142369  0.75659033  0.00356577  1
  O  O241  1  0.87048892  0.75840001  0.50230193  1
  O  O242  1  0.12217024  0.24008715  0.49080853  1
  O  O243  1  0.12409990  0.24296819  0.99293558  1
  O  O244  1  0.12428098  0.74131536  0.48848139  1
  O  O245  1  0.12478464  0.73671643  0.99928134  1
  O  O246  1  0.63094706  0.24465614  0.49561280  1
  O  O247  1  0.63289213  0.25104346  0.99121360  1
  O  O248  1  0.62566136  0.74288108  0.48972974  1
  O  O249  1  0.63020642  0.74602377  0.99271413  1
  O  O250  1  0.49641449  0.24562191  0.12998463  1
  O  O251  1  0.50530229  0.23464345  0.62688657  1
  O  O252  1  0.49457802  0.74585407  0.12865287  1
  O  O253  1  0.49463008  0.74499163  0.63069371  1
  O  O254  1  0.99470742  0.24614569  0.12970122  1
  O  O255  1  0.99542506  0.24366105  0.63184791  1
  O  O256  1  0.99335679  0.75281480  0.13098685  1
  O  O257  1  0.99928760  0.74234522  0.63092793  1
  O  O258  1  0.01046443  0.25478196  0.37064958  1
  O  O259  1  0.00722211  0.25047202  0.87304902  1
  O  O260  1  0.00695767  0.75663000  0.36653869  1
  O  O261  1  0.00169495  0.75670989  0.86822439  1
  O  O262  1  0.50988633  0.25164386  0.36744468  1
  O  O263  1  0.51164521  0.25266577  0.87328300  1
  O  O264  1  0.50840534  0.75571007  0.36828530  1
  O  O265  1  0.50377135  0.75534180  0.86874831  1
  O  O266  1  0.23692351  0.12386029  0.49709668  1
  O  O267  1  0.24258911  0.12599968  0.99493280  1
  O  O268  1  0.24329036  0.62717552  0.48794757  1
  O  O269  1  0.23949157  0.62331483  0.99521141  1
  O  O270  1  0.74516413  0.12925494  0.49425530  1
  O  O271  1  0.74705592  0.14032180  0.99992957  1
  O  O272  1  0.73530818  0.62789962  0.50664290  1
  O  O273  1  0.74444859  0.63173292  0.99381957  1
  O  O274  1  0.25634780  0.37337874  0.01360548  1
  O  O275  1  0.26517858  0.37346729  0.50317948  1
  O  O276  1  0.25594843  0.87508035  0.00922099  1
  O  O277  1  0.25834005  0.87141991  0.50112847  1
  O  O278  1  0.74486278  0.36415798  0.01263901  1
  O  O279  1  0.75744932  0.36639255  0.50215441  1
  O  O280  1  0.75561019  0.86991171  0.00284942  1
  O  O281  1  0.74617308  0.87398860  0.51190226  1
  O  O282  1  0.11448152  0.49566852  0.23786862  1
  O  O283  1  0.13019135  0.50070464  0.74192787  1
  O  O284  1  0.13815387  1.00449547  0.24111910  1
  O  O285  1  0.12317855  0.99111582  0.74199483  1
  O  O286  1  0.62687272  0.48907935  0.24961855  1
  O  O287  1  0.62946215  0.49307013  0.74690985  1
  O  O288  1  0.62616814  0.99311102  0.24247732  1
  O  O289  1  0.62810288  0.99478850  0.74557248  1
  O  O290  1  0.36587984  0.00065809  0.25549656  1
  O  O291  1  0.37309582  0.00950559  0.75625612  1
  O  O292  1  0.37990837  0.49931708  0.26389749  1
  O  O293  1  0.37023381  0.50544841  0.75505716  1
  O  O294  1  0.87428874  0.01566705  0.24203195  1
  O  O295  1  0.86950245  0.00575965  0.75557226  1
  O  O296  1  0.88015685  0.49905570  0.26675455  1
  O  O297  1  0.87023477  0.50567902  0.75819583  1
  O  O298  1  0.12238840  0.36856317  0.37316007  1
  O  O299  1  0.12532583  0.36208514  0.87791537  1
  O  O300  1  0.11765863  0.86037101  0.37776209  1
  O  O301  1  0.11822443  0.87592041  0.86589505  1
  O  O302  1  0.62796099  0.36928449  0.36607168  1
  O  O303  1  0.62476779  0.36779120  0.86644246  1
  O  O304  1  0.61831923  0.86840477  0.36891885  1
  O  O305  1  0.61813403  0.86950579  0.86901256  1
  O  O306  1  0.38226422  0.13240242  0.12624989  1
  O  O307  1  0.38256623  0.11718387  0.63384325  1
  O  O308  1  0.38020368  0.63109262  0.12567894  1
  O  O309  1  0.38016055  0.62874463  0.62889100  1
  O  O310  1  0.88031392  0.13548332  0.13324428  1
  O  O311  1  0.88018491  0.13073954  0.63150628  1
  O  O312  1  0.87821099  0.64190946  0.11741506  1
  O  O313  1  0.88207823  0.62374951  0.63121415  1
  O  O314  1  0.25588704  0.25968477  0.12459239  1
  O  O315  1  0.23627675  0.25539079  0.62030168  1
  O  O316  1  0.25442700  0.75913178  0.12433133  1
  O  O317  1  0.25784553  0.75037734  0.62054291  1
  O  O318  1  0.75766555  0.25685921  0.12042358  1
  O  O319  1  0.75706928  0.25003632  0.61875579  1
  O  O320  1  0.75819074  0.75800067  0.11693593  1
  O  O321  1  0.74849938  0.76194023  0.62517128  1
  O  O322  1  0.23722798  0.24877470  0.37695708  1
  O  O323  1  0.23928894  0.24261248  0.87899246  1
  O  O324  1  0.24120120  0.74254631  0.37426986  1
  O  O325  1  0.24581942  0.74108283  0.87855088  1
  O  O326  1  0.74614114  0.24053259  0.38138078  1
  O  O327  1  0.74311182  0.25172245  0.88442070  1
  O  O328  1  0.73545046  0.75856497  0.37320743  1
  O  O329  1  0.74443168  0.74556018  0.87834561  1
  O  O330  1  0.00400070  0.11878942  0.00744444  1
  O  O331  1  0.00999047  0.12395876  0.50522201  1
  O  O332  1  0.01040325  0.61544458  0.00155046  1
  O  O333  1  0.00668612  0.61875200  0.50571325  1
  O  O334  1  0.50136110  0.11803665  0.00617893  1
  O  O335  1  0.50385191  0.12036602  0.50658065  1
  O  O336  1  0.50507665  0.62089998  0.00424069  1
  O  O337  1  0.51191462  0.62459164  0.50664627  1
  O  O338  1  0.48905416  0.37669911  0.49721366  1
  O  O339  1  0.49401534  0.38264159  1.00102217  1
  O  O340  1  0.49513647  0.88144152  0.49415813  1
  O  O341  1  0.49382316  0.88017314  0.99304214  1
  O  O342  1  0.99602650  0.37934242  0.49602120  1
  O  O343  1  1.00514780  0.38950024  0.99922279  1
  O  O344  1  1.00039618  0.87415465  0.48286393  1
  O  O345  1  0.99466666  0.88110310  0.99454431  1
  O  O346  1  0.48994571  0.49756233  0.37880619  1
  O  O347  1  0.49250832  0.49896674  0.88196486  1
  O  O348  1  0.49545389  0.99461558  0.37959932  1
  O  O349  1  0.49481888  0.99432251  0.87939719  1
  O  O350  1  0.99425917  0.49376202  0.38179266  1
  O  O351  1  0.99185721  0.49896205  0.88296973  1
  O  O352  1  1.01119826  0.98185569  0.36930568  1
  O  O353  1  0.99352387  0.99520502  0.88117603  1
  O  O354  1  0.00516002  0.00410238  0.12081541  1
  O  O355  1  0.01048571  0.00562051  0.62565509  1
  O  O356  1  0.00736982  0.50143943  0.11797356  1
  O  O357  1  0.00762100  0.50507502  0.62102923  1
  O  O358  1  0.50435327  0.00417504  0.11938776  1
  O  O359  1  0.50449599  0.00863429  0.61879426  1
  O  O360  1  0.50240279  0.50779584  0.11815940  1
  O  O361  1  0.50840034  0.50851743  0.62402076  1
  O  O362  1  0.24409980  0.37101340  0.23925614  1
  O  O363  1  0.24640534  0.38404834  0.74914585  1
  O  O364  1  0.25615916  0.88432838  0.23721821  1
  O  O365  1  0.23650354  0.87609332  0.74730606  1
  O  O366  1  0.74269547  0.37398095  0.24287708  1
  O  O367  1  0.73890003  0.38150868  0.74845904  1
  O  O368  1  0.74386023  0.87880550  0.24123710  1
  O  O369  1  0.74203414  0.88063606  0.74361027  1
  O  O370  1  0.25382503  0.11307170  0.25133006  1
  O  O371  1  0.25690295  0.12092401  0.75685505  1
  O  O372  1  0.25242203  0.62832449  0.26277530  1
  O  O373  1  0.25543060  0.61933096  0.75556608  1
  O  O374  1  0.75836416  0.12572955  0.25867836  1
  O  O375  1  0.75584639  0.11828758  0.75086932  1
  O  O376  1  0.75835687  0.62222025  0.24318644  1
  O  O377  1  0.75399195  0.61979651  0.75558476  1
  O  O378  1  0.37198731  0.11583813  0.37382414  1
  O  O379  1  0.37011799  0.11961676  0.86850819  1
  O  O380  1  0.36746426  0.61741162  0.37494838  1
  O  O381  1  0.36970778  0.61905077  0.86901459  1
  O  O382  1  0.86687105  0.13314865  0.36544749  1
  O  O383  1  0.87305495  0.11899168  0.86923517  1
  O  O384  1  0.88262373  0.60944957  0.37970336  1
  O  O385  1  0.86926412  0.61678311  0.86911869  1
  O  O386  1  0.13225263  0.38155233  0.13102462  1
  O  O387  1  0.12328167  0.38982570  0.62554757  1
  O  O388  1  0.13749680  0.88143162  0.11690890  1
  O  O389  1  0.12104959  0.88159036  0.63180471  1
  O  O390  1  0.63598663  0.37505292  0.13511899  1
  O  O391  1  0.62527027  0.38030227  0.63440006  1
  O  O392  1  0.62991447  0.87979651  0.12855052  1
  O  O393  1  0.62908438  0.88020683  0.63017967  1
  O  O394  1  0.12112250  0.25461477  0.25880874  1
  O  O395  1  0.11770133  0.24768454  0.76349766  1
  O  O396  1  0.11456851  0.74304680  0.25814723  1
  O  O397  1  0.11832943  0.75948128  0.74979399  1
  O  O398  1  0.62277597  0.25797451  0.25451103  1
  O  O399  1  0.62696993  0.25877690  0.75825005  1
  O  O400  1  0.61937705  0.75596567  0.25519842  1
  O  O401  1  0.61785446  0.75492985  0.75519288  1
  O  O402  1  0.38337224  0.25077555  0.24452427  1
  O  O403  1  0.37534282  0.23565082  0.75774616  1
  O  O404  1  0.38246393  0.74897155  0.24235869  1
  O  O405  1  0.37952199  0.74390169  0.74401810  1
  O  O406  1  0.88187562  0.24148475  0.24260006  1
  O  O407  1  0.87897496  0.24546622  0.74627895  1
  O  O408  1  0.88285352  0.75313927  0.23759233  1
  O  O409  1  0.88118178  0.74231438  0.74788553  1
  O  O410  1  0.37724990  0.48972530  0.49024858  1
  O  O411  1  0.38022160  0.49519619  0.99538202  1
  O  O412  1  0.37966130  0.99393375  0.49425869  1
  O  O413  1  0.38081418  0.99440379  0.99384036  1
  O  O414  1  0.88085921  0.49400052  0.49187255  1
  O  O415  1  0.88504537  0.50932391  0.99089181  1
  O  O416  1  0.88064493  0.99357658  0.50291677  1
  O  O417  1  0.87956770  0.99608683  0.99619609  1
  O  O418  1  0.11793878  0.00581200  0.00576491  1
  O  O419  1  0.11998093  0.00716300  0.50588651  1
  O  O420  1  0.11792221  0.50667879  0.00947254  1
  O  O421  1  0.12083933  0.50412162  0.50741067  1
  O  O422  1  0.61780021  0.00110562  0.00552681  1
  O  O423  1  0.61752469  0.00675002  0.50508677  1
  O  O424  1  0.61967499  0.50716904  0.00129460  1
  O  O425  1  0.62486044  0.50762914  0.50466218  1
  O  O426  1  0.36840992  0.37209398  0.12281887  1
  O  O427  1  0.37719478  0.38069051  0.61058323  1
  O  O428  1  0.36663351  0.87046908  0.11833336  1
  O  O429  1  0.37448971  0.86901587  0.61857734  1
  O  O430  1  0.86793326  0.36319095  0.13627057  1
  O  O431  1  0.87471730  0.36859917  0.61925399  1
  O  O432  1  0.87116107  0.86751868  0.11803022  1
  O  O433  1  0.86056892  0.87335322  0.62922229  1
  O  O434  1  0.12424437  0.13251051  0.38283067  1
  O  O435  1  0.12795230  0.13168205  0.88093806  1
  O  O436  1  0.13049452  0.63036912  0.37816767  1
  O  O437  1  0.13024049  0.62295657  0.88470858  1
  O  O438  1  0.63320668  0.13066645  0.38052841  1
  O  O439  1  0.62773177  0.13687916  0.87518320  1
  O  O440  1  0.61886996  0.63501203  0.38303397  1
  O  O441  1  0.63000138  0.63090424  0.87909510  1
