# generated using pymatgen
data_V93Zn93O256
_symmetry_space_group_name_H-M   'P 1'
_cell_length_a   17.05468286
_cell_length_b   17.05400538
_cell_length_c   17.05749814
_cell_angle_alpha   90.02031909
_cell_angle_beta   89.96791864
_cell_angle_gamma   89.98069649
_symmetry_Int_Tables_number   1
_chemical_formula_structural   V93Zn93O256
_chemical_formula_sum   'V93 Zn93 O256'
_cell_volume   4961.18310340
_cell_formula_units_Z   1
loop_
 _symmetry_equiv_pos_site_id
 _symmetry_equiv_pos_as_xyz
  1  'x, y, z'
loop_
 _atom_site_type_symbol
 _atom_site_label
 _atom_site_symmetry_multiplicity
 _atom_site_fract_x
 _atom_site_fract_y
 _atom_site_fract_z
 _atom_site_occupancy
  V  V0  1  0.37504262  0.24761919  0.12423459  1
  V  V1  1  0.62557512  0.38061000  0.74507198  1
  V  V2  1  0.50441897  0.50123041  0.00497046  1
  V  V3  1  0.00330805  0.50701273  0.50031525  1
  V  V4  1  0.50037057  0.86833665  0.37249640  1
  V  V5  1  0.49984273  0.37289165  0.37640060  1
  V  V6  1  0.37468503  0.24779810  0.62701396  1
  V  V7  1  0.24839587  0.12397351  0.37514676  1
  V  V8  1  0.74854186  0.50101332  0.74655220  1
  V  V9  1  0.74955501  0.24955089  0.49976865  1
  V  V10  1  0.24965401  -0.00147593  0.25092484  1
  V  V11  1  0.62409079  -0.00092293  0.62623130  1
  V  V12  1  0.75087934  0.75045832  -0.00119620  1
  V  V13  1  0.12592569  0.75418564  0.87271611  1
  V  V14  1  0.24742607  -0.00201781  0.75032159  1
  V  V15  1  0.24954911  0.50086591  0.75072682  1
  V  V16  1  0.62535237  0.87525138  0.75083408  1
  V  V17  1  0.00009342  0.87592280  0.37547378  1
  V  V18  1  0.62403803  0.37720746  0.24823572  1
  V  V19  1  0.24557807  0.87382039  0.62822266  1
  V  V20  1  0.12553792  0.49937857  0.12480316  1
  V  V21  1  0.12637323  0.74233277  0.37898584  1
  V  V22  1  0.87671242  0.75080575  0.62546195  1
  V  V23  1  0.87602681  0.62720119  0.74976775  1
  V  V24  1  0.87527174  0.49994632  0.37359989  1
  V  V25  1  0.74928020  0.74971284  0.49961933  1
  V  V26  1  0.87540461  0.25047970  0.62532686  1
  V  V27  1  0.87594353  0.50098656  0.87410211  1
  V  V28  1  0.87455925  0.25150922  0.12359818  1
  V  V29  1  0.37522048  0.37385558  -0.00107391  1
  V  V30  1  0.12382268  0.25030952  0.87428705  1
  V  V31  1  -0.00046377  0.12124449  0.12142964  1
  V  V32  1  0.12551291  0.24955733  0.37559161  1
  V  V33  1  0.37662727  0.74799517  0.62707260  1
  V  V34  1  0.87472081  0.62439376  0.24971844  1
  V  V35  1  0.87534212  0.87515713  0.50019478  1
  V  V36  1  0.62730883  0.61736323  0.50664417  1
  V  V37  1  0.75048654  0.62549770  0.87407776  1
  V  V38  1  0.87114745  0.12685300  0.75394049  1
  V  V39  1  0.50390948  0.61752872  0.62649765  1
  V  V40  1  0.49994886  0.87429348  0.87460265  1
  V  V41  1  0.25047775  0.74999528  0.00030247  1
  V  V42  1  0.37464403  0.37535331  0.49953634  1
  V  V43  1  0.62319282  0.62119714  0.00471277  1
  V  V44  1  -0.00088270  -0.00043195  0.50067344  1
  V  V45  1  0.37469749  0.87419734  0.50008395  1
  V  V46  1  0.87322134  0.12414103  0.25083801  1
  V  V47  1  0.12387130  -0.00218773  0.62838459  1
  V  V48  1  0.00455472  0.75527621  0.75011551  1
  V  V49  1  0.12433836  0.50621311  0.62098406  1
  V  V50  1  -0.00069575  0.12511273  0.62465154  1
  V  V51  1  0.87767149  0.00284925  0.87852620  1
  V  V52  1  0.25006699  0.87403972  0.12541538  1
  V  V53  1  0.37440471  0.00071654  0.87539687  1
  V  V54  1  0.00152319  0.75034889  0.25000126  1
  V  V55  1  0.87754654  0.87875709  -0.00030465  1
  V  V56  1  0.12506772  0.87467769  0.25029250  1
  V  V57  1  0.24542135  0.74126862  0.50066770  1
  V  V58  1  0.12515811  0.37550288  0.24898585  1
  V  V59  1  0.12518719  0.62591247  -0.00055369  1
  V  V60  1  0.24887153  0.37420279  0.62509647  1
  V  V61  1  0.37583968  0.12435368  0.24910298  1
  V  V62  1  0.62979558  0.24357986  0.87444303  1
  V  V63  1  0.62473487  0.87526783  0.24965209  1
  V  V64  1  0.74953548  0.87891482  0.12621354  1
  V  V65  1  0.62575334  0.12463036  0.49900154  1
  V  V66  1  0.00086497  0.62571799  0.12408645  1
  V  V67  1  0.74979471  0.00274719  0.75432867  1
  V  V68  1  0.74817249  0.50064147  0.24730163  1
  V  V69  1  0.74942997  0.24515505  -0.00421738  1
  V  V70  1  0.25098402  0.62574786  0.87463199  1
  V  V71  1  0.74475898  0.37991400  0.12301913  1
  V  V72  1  0.00344183  0.87835507  0.87699837  1
  V  V73  1  0.38270687  0.74246516  0.12816559  1
  V  V74  1  0.50053436  0.24944188  0.74991928  1
  V  V75  1  0.37516612  0.87549728  0.00000974  1
  V  V76  1  0.24798165  0.37516845  0.12461584  1
  V  V77  1  0.87747852  0.75191952  0.12450082  1
  V  V78  1  0.50068753  -0.00165948  0.50045623  1
  V  V79  1  0.50064919  0.37467517  0.87421001  1
  V  V80  1  0.37377658  -0.00169146  0.37486083  1
  V  V81  1  0.87439073  0.37555237  0.49997765  1
  V  V82  1  0.12135271  0.12090870  -0.00152306  1
  V  V83  1  -0.00055943  0.50066465  -0.00145620  1
  V  V84  1  0.74805633  0.37961894  0.62445980  1
  V  V85  1  0.12327928  0.37478012  0.74971381  1
  V  V86  1  0.00057527  0.37499441  0.37429660  1
  V  V87  1  0.37434060  0.50055352  0.87554376  1
  V  V88  1  0.24899219  0.24964202  -0.00117542  1
  V  V89  1  0.50044534  0.24839714  0.24869099  1
  V  V90  1  0.12364152  0.00006545  0.12305510  1
  V  V91  1  0.62522644  0.75115353  0.87446743  1
  V  V92  1  -0.00032097  0.37669294  0.87422392  1
  Zn  Zn93  1  0.74926822  0.00155301  0.25377626  1
  Zn  Zn94  1  0.87370115  0.37625772  -0.00085817  1
  Zn  Zn95  1  0.50201420  0.74799789  0.75022141  1
  Zn  Zn96  1  0.25536856  0.62254950  0.37266311  1
  Zn  Zn97  1  0.37840944  0.62416964  0.75152440  1
  Zn  Zn98  1  0.24932482  0.24712744  0.50134749  1
  Zn  Zn99  1  0.75181623  0.12401605  0.37473676  1
  Zn  Zn100  1  -0.00067201  0.25066843  0.24887791  1
  Zn  Zn101  1  0.00409987  0.62920930  0.62247838  1
  Zn  Zn102  1  0.50604450  0.49429626  0.50621757  1
  Zn  Zn103  1  0.12491206  0.12495142  0.50008939  1
  Zn  Zn104  1  0.62459357  0.12240404  0.00109976  1
  Zn  Zn105  1  0.49787091  0.12281630  0.62586217  1
  Zn  Zn106  1  0.38279621  0.61619552  0.25153791  1
  Zn  Zn107  1  0.62202596  0.00352433  0.12287548  1
  Zn  Zn108  1  0.50773104  0.73685862  0.24359647  1
  Zn  Zn109  1  0.74839200  0.62354328  0.37506788  1
  Zn  Zn110  1  0.62761403  0.24784193  0.37289988  1
  Zn  Zn111  1  0.56479409  0.55988623  0.17123414  1
  Zn  Zn112  1  0.50228907  0.12159835  0.12275284  1
  Zn  Zn113  1  0.37250514  0.50193880  0.37390437  1
  Zn  Zn114  1  0.50452673  0.00198289  0.00137313  1
  Zn  Zn115  1  0.87380474  0.00091579  0.37572735  1
  Zn  Zn116  1  0.62592318  0.74794216  0.37538301  1
  Zn  Zn117  1  -0.00047453  0.25054414  0.74947071  1
  Zn  Zn118  1  0.24866646  0.12511466  0.87371390  1
  Zn  Zn119  1  0.37510453  0.12473438  0.75074878  1
  Zn  Zn120  1  0.75010477  0.87570662  0.62507452  1
  Zn  Zn121  1  0.25191047  0.50278275  0.25310616  1
  Zn  Zn122  1  0.18795300  0.18814805  0.18813246  1
  Zn  Zn123  1  0.18728135  0.18498918  0.68889611  1
  Zn  Zn124  1  0.19195510  0.68519072  0.18988731  1
  Zn  Zn125  1  0.18774626  0.68674332  0.69002429  1
  Zn  Zn126  1  0.68666512  0.18991268  0.18457656  1
  Zn  Zn127  1  0.68732573  0.18888571  0.68551554  1
  Zn  Zn128  1  0.69299319  0.69278767  0.18826083  1
  Zn  Zn129  1  0.68834194  0.68887289  0.68649328  1
  Zn  Zn130  1  0.31103361  0.31251233  0.31105547  1
  Zn  Zn131  1  0.31047369  0.31347520  0.81279290  1
  Zn  Zn132  1  0.31286674  0.80832694  0.31147120  1
  Zn  Zn133  1  0.31257634  0.81378683  0.81179491  1
  Zn  Zn134  1  0.81124377  0.31078259  0.31190381  1
  Zn  Zn135  1  0.81218393  0.31466353  0.81244084  1
  Zn  Zn136  1  0.81344599  0.81237780  0.31397493  1
  Zn  Zn137  1  0.81371809  0.81560189  0.81209040  1
  Zn  Zn138  1  0.18894192  0.43745773  0.43775673  1
  Zn  Zn139  1  0.18660870  0.43752186  0.93766418  1
  Zn  Zn140  1  0.18571196  0.93375259  0.44044367  1
  Zn  Zn141  1  0.18742246  0.93693511  0.93842632  1
  Zn  Zn142  1  0.68846210  0.43681693  0.43442079  1
  Zn  Zn143  1  0.68745158  0.43533407  0.93409107  1
  Zn  Zn144  1  0.68968436  0.93871846  0.43543205  1
  Zn  Zn145  1  0.68939729  0.93986199  0.93697918  1
  Zn  Zn146  1  0.31033859  0.06336391  0.06203104  1
  Zn  Zn147  1  0.31087402  0.06307672  0.56036034  1
  Zn  Zn148  1  0.31260328  0.56104917  0.06165001  1
  Zn  Zn149  1  0.31487880  0.56068867  0.56372620  1
  Zn  Zn150  1  0.81131487  0.06373709  0.06222390  1
  Zn  Zn151  1  0.81146088  0.06166285  0.56548616  1
  Zn  Zn152  1  0.81268877  0.56325617  0.06173286  1
  Zn  Zn153  1  0.81544282  0.56365244  0.56425342  1
  Zn  Zn154  1  0.43252948  0.43152927  0.18889504  1
  Zn  Zn155  1  0.43587215  0.43605143  0.68903550  1
  Zn  Zn156  1  0.43841598  0.93553415  0.18591930  1
  Zn  Zn157  1  0.43716212  0.93561290  0.68882758  1
  Zn  Zn158  1  0.93681490  0.43670777  0.18659661  1
  Zn  Zn159  1  0.93711435  0.43881671  0.68678677  1
  Zn  Zn160  1  0.93821964  0.93995133  0.18817256  1
  Zn  Zn161  1  0.93642121  0.93674234  0.68878777  1
  Zn  Zn162  1  0.05980736  0.06330945  0.31064074  1
  Zn  Zn163  1  0.05995429  0.06326586  0.81045942  1
  Zn  Zn164  1  0.06323921  0.56117112  0.31082940  1
  Zn  Zn165  1  0.06335027  0.56548898  0.81053426  1
  Zn  Zn166  1  0.56156364  0.05949182  0.31225374  1
  Zn  Zn167  1  0.55926739  0.06353468  0.81206998  1
  Zn  Zn168  1  0.56140589  0.56135276  0.33056878  1
  Zn  Zn169  1  0.56181872  0.56339616  0.81518717  1
  Zn  Zn170  1  0.43785937  0.18670557  0.43734713  1
  Zn  Zn171  1  0.43984878  0.18514265  0.93733938  1
  Zn  Zn172  1  0.43726303  0.68365241  0.44160640  1
  Zn  Zn173  1  0.43917886  0.68712978  0.94008650  1
  Zn  Zn174  1  0.93878798  0.18783436  0.43802932  1
  Zn  Zn175  1  0.93758372  0.18986257  0.93753240  1
  Zn  Zn176  1  0.93641351  0.68799199  0.43543989  1
  Zn  Zn177  1  0.93784362  0.69003326  0.93638219  1
  Zn  Zn178  1  0.06078824  0.31107595  0.06060411  1
  Zn  Zn179  1  0.06108584  0.31500622  0.56134551  1
  Zn  Zn180  1  0.06274297  0.81414762  0.05942545  1
  Zn  Zn181  1  0.06288310  0.81374618  0.56203279  1
  Zn  Zn182  1  0.56284258  0.31102081  0.06173834  1
  Zn  Zn183  1  0.56224565  0.30932300  0.56371471  1
  Zn  Zn184  1  0.56320364  0.81491687  0.05870270  1
  Zn  Zn185  1  0.56373459  0.81060273  0.56364368  1
  O  O186  1  0.11832729  0.12187576  0.11876103  1
  O  O187  1  0.11910964  0.11527520  0.62344265  1
  O  O188  1  0.11972634  0.62104880  0.11883277  1
  O  O189  1  0.12414785  0.61003368  0.62960828  1
  O  O190  1  0.62192940  0.12207405  0.12294160  1
  O  O191  1  0.62278558  0.11890142  0.61532664  1
  O  O192  1  0.63257433  0.62935260  0.10998839  1
  O  O193  1  0.61472075  0.63237955  0.61830086  1
  O  O194  1  0.38259227  0.36923441  0.38520986  1
  O  O195  1  0.38000561  0.38003667  0.88027034  1
  O  O196  1  0.38131185  0.87808329  0.37895849  1
  O  O197  1  0.37867536  0.88153610  0.87930189  1
  O  O198  1  0.88044669  0.38014607  0.37958480  1
  O  O199  1  0.88167151  0.38365556  0.87491844  1
  O  O200  1  0.88365994  0.87524749  0.38160425  1
  O  O201  1  0.88225053  0.88296736  0.87992459  1
  O  O202  1  0.25376682  0.00204041  0.37072459  1
  O  O203  1  0.25605605  -0.00394285  0.86479998  1
  O  O204  1  0.25193213  0.50376806  0.37427692  1
  O  O205  1  0.25433075  0.50552108  0.87121833  1
  O  O206  1  0.75600948  0.00519879  0.37171958  1
  O  O207  1  0.76207639  -0.00484634  0.86191238  1
  O  O208  1  0.75789764  0.50040129  0.36587593  1
  O  O209  1  0.75629726  0.50577967  0.86791307  1
  O  O210  1  0.24165906  0.49164186  0.12104803  1
  O  O211  1  0.24281114  0.49462412  0.62905407  1
  O  O212  1  0.24433843  0.99374543  0.13166897  1
  O  O213  1  0.24468268  0.99296393  0.62995060  1
  O  O214  1  0.75784938  0.48824286  0.13071230  1
  O  O215  1  0.75747618  0.49233906  0.63392262  1
  O  O216  1  0.75160929  0.98577609  0.12707627  1
  O  O217  1  0.74373999  0.99760402  0.63700238  1
  O  O218  1  0.00629925  0.37353166  0.25619257  1
  O  O219  1  0.00583023  0.37461920  0.75597230  1
  O  O220  1  0.00542666  0.86939071  0.25418336  1
  O  O221  1  -0.00707260  0.86324571  0.76093867  1
  O  O222  1  0.50413556  0.36871050  0.25809423  1
  O  O223  1  0.50765789  0.37073948  0.75388185  1
  O  O224  1  0.50829898  0.87192882  0.25816824  1
  O  O225  1  0.50700969  0.87220005  0.75673096  1
  O  O226  1  0.49218321  0.13098205  0.25215697  1
  O  O227  1  0.49561710  0.13360328  0.74578602  1
  O  O228  1  0.50434646  0.62080438  0.24894921  1
  O  O229  1  0.49909091  0.62802026  0.74209417  1
  O  O230  1  0.99223812  0.12836163  0.23872844  1
  O  O231  1  0.98846497  0.12638951  0.74233006  1
  O  O232  1  0.99507130  0.63078388  0.24305014  1
  O  O233  1  0.99369167  0.63787866  0.75088957  1
  O  O234  1  0.36902448  0.25511000  0.00290724  1
  O  O235  1  0.37521161  0.25785095  0.51003808  1
  O  O236  1  0.36990128  0.75541094  0.00816490  1
  O  O237  1  0.36648078  0.75529416  0.51046765  1
  O  O238  1  0.86689117  0.25303518  0.00463152  1
  O  O239  1  0.87011453  0.25584109  0.50568575  1
  O  O240  1  0.87006118  0.75631204  0.00514700  1
  O  O241  1  0.86922644  0.75394700  0.50526014  1
  O  O242  1  0.12597933  0.25017309  0.48757768  1
  O  O243  1  0.12954854  0.24164557  0.99442255  1
  O  O244  1  0.13410540  0.75717132  0.49101631  1
  O  O245  1  0.13123615  0.74492360  0.99406305  1
  O  O246  1  0.63003591  0.23954208  0.50076094  1
  O  O247  1  0.63286306  0.25297488  0.98936108  1
  O  O248  1  0.63587662  0.74324358  0.50114714  1
  O  O249  1  0.63101054  0.74262906  0.99399838  1
  O  O250  1  0.49125071  0.25160677  0.13205735  1
  O  O251  1  0.48918323  0.24964054  0.63173432  1
  O  O252  1  0.48551108  0.75557152  0.12220152  1
  O  O253  1  0.48951630  0.74263827  0.62491979  1
  O  O254  1  0.99302744  0.24039473  0.12502592  1
  O  O255  1  0.99308411  0.24469813  0.62560395  1
  O  O256  1  0.99669285  0.74595004  0.12990527  1
  O  O257  1  0.99761170  0.75053567  0.63352410  1
  O  O258  1  0.00928532  0.25640570  0.37421812  1
  O  O259  1  0.00628456  0.25822645  0.87305933  1
  O  O260  1  0.00747856  0.75543502  0.37048397  1
  O  O261  1  0.00451037  0.75821143  0.86845943  1
  O  O262  1  0.50079505  0.25891658  0.36922113  1
  O  O263  1  0.50726447  0.25688223  0.86913766  1
  O  O264  1  0.49894476  0.76183940  0.37486112  1
  O  O265  1  0.50632954  0.75605597  0.87385042  1
  O  O266  1  0.24602206  0.12708440  0.49087411  1
  O  O267  1  0.23823919  0.13184299  0.99875710  1
  O  O268  1  0.25503339  0.63942781  0.50181542  1
  O  O269  1  0.24414176  0.63032342  0.99391611  1
  O  O270  1  0.74123105  0.13035862  0.50236997  1
  O  O271  1  0.74865252  0.14233537  1.00565410  1
  O  O272  1  0.74457436  0.63301944  0.50266917  1
  O  O273  1  0.74388248  0.62975615  0.99362239  1
  O  O274  1  0.25476206  0.36922257  0.00389470  1
  O  O275  1  0.25902969  0.37015447  0.50677409  1
  O  O276  1  0.25456162  0.86871940  0.00557480  1
  O  O277  1  0.25555532  0.86745879  0.51072835  1
  O  O278  1  0.75073316  0.36962722  0.00786130  1
  O  O279  1  0.75484589  0.37066885  0.50480806  1
  O  O280  1  0.75650399  0.86946420  0.00761217  1
  O  O281  1  0.75544595  0.86571932  0.50151635  1
  O  O282  1  0.12506425  0.49289356  0.24101792  1
  O  O283  1  0.12952496  0.49464405  0.74224751  1
  O  O284  1  0.13011414  0.99424227  0.24419091  1
  O  O285  1  0.13381636  1.00380888  0.73878083  1
  O  O286  1  0.62938201  0.49572591  0.25022834  1
  O  O287  1  0.63130956  0.48755298  0.75916194  1
  O  O288  1  0.62745364  0.98546540  0.24853150  1
  O  O289  1  0.63244017  0.99711392  0.74811303  1
  O  O290  1  0.36850661  0.00296781  0.25622226  1
  O  O291  1  0.36578171  -0.00110376  0.75797429  1
  O  O292  1  0.37096581  0.49795733  0.25296535  1
  O  O293  1  0.36707622  0.49972118  0.75755256  1
  O  O294  1  0.87423623  0.01215688  0.25042819  1
  O  O295  1  0.86828898  0.00707536  0.75570611  1
  O  O296  1  0.87087292  0.50549060  0.25455659  1
  O  O297  1  0.87039159  0.50742658  0.75537839  1
  O  O298  1  0.12063114  0.36719610  0.36970215  1
  O  O299  1  0.11960559  0.37082759  0.86941148  1
  O  O300  1  0.11971151  0.86675594  0.36931785  1
  O  O301  1  0.11341999  0.86964438  0.88187597  1
  O  O302  1  0.61550239  0.37264637  0.36944774  1
  O  O303  1  0.62007433  0.36632671  0.86441637  1
  O  O304  1  0.61659330  0.87314977  0.36796672  1
  O  O305  1  0.62052443  0.87012862  0.87044050  1
  O  O306  1  0.37301556  0.13130461  0.13236410  1
  O  O307  1  0.37439791  0.13679683  0.62492628  1
  O  O308  1  0.37255904  0.64096942  0.12055162  1
  O  O309  1  0.38326369  0.63376326  0.62522762  1
  O  O310  1  0.88228550  0.12992237  0.12901854  1
  O  O311  1  0.87969754  0.13017982  0.63380165  1
  O  O312  1  0.88107136  0.63222653  0.12912231  1
  O  O313  1  0.87977162  0.63324126  0.63251392  1
  O  O314  1  0.25430385  0.25522920  0.11843886  1
  O  O315  1  0.25819288  0.25540394  0.62614565  1
  O  O316  1  0.25838960  0.75571915  0.11929420  1
  O  O317  1  0.25370928  0.75579306  0.62075132  1
  O  O318  1  0.75613636  0.26087196  0.11630333  1
  O  O319  1  0.75625439  0.25807766  0.61928458  1
  O  O320  1  0.75860083  0.76037479  0.11889497  1
  O  O321  1  0.75757758  0.75188395  0.61535372  1
  O  O322  1  0.24036090  0.24364172  0.37475186  1
  O  O323  1  0.24213789  0.24851978  0.88051898  1
  O  O324  1  0.24247176  0.75217817  0.38512211  1
  O  O325  1  0.24605169  0.74698401  0.87969042  1
  O  O326  1  0.74783559  0.24659150  0.38449083  1
  O  O327  1  0.74163978  0.25977403  0.88445024  1
  O  O328  1  0.75152605  0.74699430  0.38852820  1
  O  O329  1  0.74652539  0.74596020  0.88015025  1
  O  O330  1  0.01034232  0.13071732  0.00939960  1
  O  O331  1  0.00064114  0.11751879  0.50757881  1
  O  O332  1  0.00561507  0.62194469  0.00437020  1
  O  O333  1  -0.00533454  0.61083131  0.50095189  1
  O  O334  1  0.50373215  0.12123537  0.00293170  1
  O  O335  1  0.50836491  0.11747914  0.50090689  1
  O  O336  1  0.51106962  0.61412877  -0.00510695  1
  O  O337  1  0.51007881  0.62305759  0.50961902  1
  O  O338  1  0.49372918  0.37187221  0.49458596  1
  O  O339  1  0.49587072  0.38117539  0.99314272  1
  O  O340  1  0.49542333  0.87793510  0.49208273  1
  O  O341  1  0.49246213  0.87765304  0.99094929  1
  O  O342  1  0.99294443  0.38434603  0.49427022  1
  O  O343  1  0.99861534  0.38307408  0.99287525  1
  O  O344  1  0.99466842  0.87984599  0.49509291  1
  O  O345  1  0.99176666  0.86994798  0.98769613  1
  O  O346  1  0.49630586  0.48224706  0.38308392  1
  O  O347  1  0.49388959  0.49393739  0.88299359  1
  O  O348  1  0.49358720  0.98816095  0.38000876  1
  O  O349  1  0.48749119  0.99341080  0.87291249  1
  O  O350  1  0.99691417  0.49496437  0.38194378  1
  O  O351  1  0.99612320  0.49718285  0.87903951  1
  O  O352  1  1.00025305  0.99315495  0.38208105  1
  O  O353  1  0.98956184  0.98894006  0.86495518  1
  O  O354  1  0.00692649  0.01280850  0.12821196  1
  O  O355  1  0.00757555  0.00262749  0.62286531  1
  O  O356  1  0.00480850  0.50637200  0.11861303  1
  O  O357  1  0.00738834  0.50086680  0.61727382  1
  O  O358  1  0.50169044  0.00077786  0.12086468  1
  O  O359  1  0.50474671  -0.00046931  0.61837415  1
  O  O360  1  0.49862934  0.49012091  0.10954636  1
  O  O361  1  0.49293711  0.51290848  0.62459937  1
  O  O362  1  0.24201596  0.37473965  0.24100331  1
  O  O363  1  0.24327740  0.38191068  0.74493594  1
  O  O364  1  0.24440333  0.87924746  0.24563330  1
  O  O365  1  0.25465573  0.88412857  0.73751269  1
  O  O366  1  0.74465642  0.37990750  0.24270590  1
  O  O367  1  0.74298974  0.38066120  0.74463181  1
  O  O368  1  0.74337550  0.87248124  0.24191708  1
  O  O369  1  0.74477545  0.88508781  0.74831411  1
  O  O370  1  0.25501970  0.11777678  0.25540661  1
  O  O371  1  0.25297825  0.11102508  0.75165017  1
  O  O372  1  0.25873721  0.62198066  0.25272077  1
  O  O373  1  0.25288026  0.61844660  0.75728080  1
  O  O374  1  0.76221097  0.12535461  0.24792281  1
  O  O375  1  0.76115674  0.11638820  0.74397988  1
  O  O376  1  0.75709234  0.61949762  0.24976068  1
  O  O377  1  0.75499528  0.62118835  0.75498218  1
  O  O378  1  0.36908509  0.11814306  0.36988564  1
  O  O379  1  0.37036892  0.11283431  0.87359309  1
  O  O380  1  0.37559193  0.62108763  0.37304217  1
  O  O381  1  0.36861358  0.61946307  0.87544080  1
  O  O382  1  0.87751945  0.12570730  0.36243228  1
  O  O383  1  0.88437436  0.11619791  0.86405443  1
  O  O384  1  0.87434387  0.61793932  0.36678262  1
  O  O385  1  0.86945065  0.62160199  0.86976464  1
  O  O386  1  0.12810747  0.37899963  0.12837040  1
  O  O387  1  0.12943224  0.38283984  0.63019228  1
  O  O388  1  0.12928397  0.87952470  0.12947123  1
  O  O389  1  0.13577607  0.88456065  0.62079151  1
  O  O390  1  0.63717353  0.36977794  0.13115798  1
  O  O391  1  0.63037849  0.36842474  0.63778657  1
  O  O392  1  0.63508112  0.87169056  0.13237593  1
  O  O393  1  0.62567384  0.88157433  0.63249176  1
  O  O394  1  0.12335105  0.25535005  0.25968176  1
  O  O395  1  0.12354734  0.25614016  0.75587773  1
  O  O396  1  0.12070439  0.75628685  0.25693846  1
  O  O397  1  0.11375626  0.74534707  0.75673453  1
  O  O398  1  0.61832120  0.25771014  0.25248154  1
  O  O399  1  0.62238088  0.25859906  0.75580539  1
  O  O400  1  0.62482229  0.76071742  0.25290674  1
  O  O401  1  0.62648314  0.75736170  0.75720753  1
  O  O402  1  0.37939458  0.24415332  0.24425520  1
  O  O403  1  0.37982998  0.25185446  0.74171912  1
  O  O404  1  0.37891983  0.75037898  0.23489457  1
  O  O405  1  0.37448539  0.74907699  0.73677360  1
  O  O406  1  0.87608855  0.24193855  0.24122617  1
  O  O407  1  0.87359992  0.24144893  0.74534409  1
  O  O408  1  0.88187343  0.74546172  0.24444973  1
  O  O409  1  0.88252278  0.74658767  0.74586873  1
  O  O410  1  0.37730958  0.48298321  0.50298706  1
  O  O411  1  0.38326030  0.49422074  0.99479807  1
  O  O412  1  0.37949223  0.99353776  0.49474369  1
  O  O413  1  0.36837489  0.99323360  0.98783519  1
  O  O414  1  0.88243733  0.49445993  0.49440908  1
  O  O415  1  0.88206340  0.50106280  0.99194192  1
  O  O416  1  0.88199068  0.99328373  0.50198062  1
  O  O417  1  0.86715174  0.99663018  0.98578509  1
  O  O418  1  0.13218322  0.01288845  0.00665450  1
  O  O419  1  0.11892058  -0.00001075  0.51164395  1
  O  O420  1  0.11881100  0.50675433  0.00420241  1
  O  O421  1  0.11442586  0.49093889  0.51031272  1
  O  O422  1  0.62501824  0.00381283  0.00143044  1
  O  O423  1  0.62099643  0.00566623  0.50592144  1
  O  O424  1  0.61679849  0.50884018  -0.00867813  1
  O  O425  1  0.62746870  0.51261067  0.49832839  1
  O  O426  1  0.36758322  0.36667664  0.11686289  1
  O  O427  1  0.37026241  0.36616742  0.61948019  1
  O  O428  1  0.36769008  0.86646304  0.11977671  1
  O  O429  1  0.36713647  0.86704869  0.62030955  1
  O  O430  1  0.86627907  0.36797260  0.12397651  1
  O  O431  1  0.86960948  0.36982106  0.61971007  1
  O  O432  1  0.87008992  0.87140150  0.12080693  1
  O  O433  1  0.87437848  0.86818804  0.61832831  1
  O  O434  1  0.12866197  0.13365151  0.37376946  1
  O  O435  1  0.12308385  0.12901193  0.88319191  1
  O  O436  1  0.12472975  0.64063351  0.36951468  1
  O  O437  1  0.13117336  0.63221466  0.88057446  1
  O  O438  1  0.62539093  0.12383741  0.38823826  1
  O  O439  1  0.62213733  0.14126455  0.87204328  1
  O  O440  1  0.62893689  0.63068049  0.39054985  1
  O  O441  1  0.63173283  0.63131005  0.88289460  1
