# generated using pymatgen
data_V93Zn93O256
_symmetry_space_group_name_H-M   'P 1'
_cell_length_a   17.04177018
_cell_length_b   17.04320502
_cell_length_c   17.04461011
_cell_angle_alpha   90.02561042
_cell_angle_beta   89.94627935
_cell_angle_gamma   89.97536225
_symmetry_Int_Tables_number   1
_chemical_formula_structural   V93Zn93O256
_chemical_formula_sum   'V93 Zn93 O256'
_cell_volume   4950.54222939
_cell_formula_units_Z   1
loop_
 _symmetry_equiv_pos_site_id
 _symmetry_equiv_pos_as_xyz
  1  'x, y, z'
loop_
 _atom_site_type_symbol
 _atom_site_label
 _atom_site_symmetry_multiplicity
 _atom_site_fract_x
 _atom_site_fract_y
 _atom_site_fract_z
 _atom_site_occupancy
  V  V0  1  0.11614255  0.37121267  0.74847872  1
  V  V1  1  0.62789447  -0.00254453  0.12641307  1
  V  V2  1  0.37384449  0.62338339  0.75217343  1
  V  V3  1  0.74912720  0.62440013  0.87479108  1
  V  V4  1  0.75027866  0.74951639  0.00059429  1
  V  V5  1  0.87130815  0.75843332  0.62598253  1
  V  V6  1  0.50010247  0.74877742  0.75163072  1
  V  V7  1  0.62599027  0.74972606  0.37588744  1
  V  V8  1  0.37451320  0.25456633  0.11648230  1
  V  V9  1  0.25005717  0.62520972  0.37775311  1
  V  V10  1  0.24854786  0.49847705  0.75034461  1
  V  V11  1  0.87686707  0.25214399  0.62769130  1
  V  V12  1  0.62666437  0.12403880  0.49930803  1
  V  V13  1  0.24829812  0.49769177  0.24959983  1
  V  V14  1  0.75049671  0.25058469  0.49908981  1
  V  V15  1  0.12330668  0.87599642  0.75239174  1
  V  V16  1  0.00041636  0.37563945  0.37411963  1
  V  V17  1  0.50093966  -0.00177170  -0.00021214  1
  V  V18  1  0.87883414  0.74661624  0.12501455  1
  V  V19  1  0.49857421  0.37270793  0.87581870  1
  V  V20  1  0.37427687  0.12431348  0.24911895  1
  V  V21  1  0.87428629  0.12941043  0.75257013  1
  V  V22  1  0.50178275  0.12425305  0.62456465  1
  V  V23  1  0.37446739  0.24871399  0.62399606  1
  V  V24  1  0.50103013  0.62212513  0.62690736  1
  V  V25  1  0.74850228  0.37508649  0.12433243  1
  V  V26  1  0.37435443  0.74964496  0.62673353  1
  V  V27  1  0.87823462  0.62432636  0.24888353  1
  V  V28  1  0.12667714  0.00014837  0.12449828  1
  V  V29  1  0.37560082  0.12299642  0.75026065  1
  V  V30  1  0.25079205  0.74929576  0.50206141  1
  V  V31  1  0.12498941  0.25099063  0.37435441  1
  V  V32  1  0.37275852  0.49501506  0.87801170  1
  V  V33  1  0.62957473  0.87385417  0.74621947  1
  V  V34  1  0.24934727  0.74821067  0.00037290  1
  V  V35  1  0.25083432  0.87472512  0.12643656  1
  V  V36  1  0.87433445  0.87586294  0.00050499  1
  V  V37  1  0.50087345  0.24972680  0.74903743  1
  V  V38  1  0.00023826  0.87649464  0.37626153  1
  V  V39  1  0.62889640  0.12420790  -0.00804950  1
  V  V40  1  0.62491834  0.49946748  0.12544104  1
  V  V41  1  0.37506259  0.62513143  0.25017344  1
  V  V42  1  0.87645676  0.00072960  0.37546232  1
  V  V43  1  0.12890545  0.12858902  -0.00173691  1
  V  V44  1  0.37572892  0.87374307  0.00041920  1
  V  V45  1  0.86910545  0.00501635  0.87601576  1
  V  V46  1  0.37730322  0.49700305  0.37674234  1
  V  V47  1  0.50226980  0.74903221  0.25085678  1
  V  V48  1  0.49498141  0.49488979  0.00038983  1
  V  V49  1  -0.00102823  0.62702114  0.62579241  1
  V  V50  1  0.62410401  0.37841342  0.74232253  1
  V  V51  1  0.25084381  0.12513757  0.37423285  1
  V  V52  1  0.00176600  0.12652958  0.12484048  1
  V  V53  1  0.75020732  0.75711195  0.50391644  1
  V  V54  1  0.87782146  0.37499282  -0.00388030  1
  V  V55  1  0.50143967  0.25235350  0.24912229  1
  V  V56  1  0.87576504  0.24922084  0.12372024  1
  V  V57  1  -0.00023601  0.50870776  0.00299006  1
  V  V58  1  0.12546973  0.00150090  0.62687769  1
  V  V59  1  0.25019326  0.87510167  0.62566646  1
  V  V60  1  0.75056447  0.00154525  0.74685636  1
  V  V61  1  0.50065145  -0.00174133  0.49924890  1
  V  V62  1  0.25228226  0.37727934  0.11720851  1
  V  V63  1  0.62540119  0.24889066  0.37222409  1
  V  V64  1  0.12584895  0.87563189  0.25025107  1
  V  V65  1  0.49999717  0.12501106  0.12312174  1
  V  V66  1  0.37656337  -0.00041807  0.37561168  1
  V  V67  1  0.24915309  0.37459679  0.62459683  1
  V  V68  1  0.12368119  0.74755571  0.87652378  1
  V  V69  1  0.25107842  0.25141544  0.49895986  1
  V  V70  1  -0.00080816  0.12873409  0.62774373  1
  V  V71  1  0.00056742  0.00043891  0.50043317  1
  V  V72  1  0.37426982  0.00039165  0.87449357  1
  V  V73  1  0.62595343  0.62365663  -0.00050455  1
  V  V74  1  0.00085361  0.25133416  0.24994610  1
  V  V75  1  -0.00086611  0.00043897  -0.00053719  1
  V  V76  1  0.87601316  0.12423725  0.24980626  1
  V  V77  1  0.37603302  0.74898959  0.12587800  1
  V  V78  1  0.11784582  0.24979169  0.87027127  1
  V  V79  1  0.12550948  0.12639454  0.50127927  1
  V  V80  1  0.12511350  0.62626466  0.50245435  1
  V  V81  1  0.00227321  0.74760836  0.24868087  1
  V  V82  1  0.62641818  0.62187829  0.50627102  1
  V  V83  1  0.75182913  0.12416242  0.37307140  1
  V  V84  1  0.87423792  0.37629855  0.49999842  1
  V  V85  1  0.74913410  0.24567397  -0.00760186  1
  V  V86  1  0.87458074  0.50134637  0.37393198  1
  V  V87  1  0.00014259  0.50285862  0.49968516  1
  V  V88  1  0.74464767  0.50135205  0.74229716  1
  V  V89  1  0.87303570  0.62587769  0.74949644  1
  V  V90  1  0.50359112  0.49917715  0.50505072  1
  V  V91  1  0.62869654  -0.00282786  0.62424319  1
  V  V92  1  0.49950541  0.87263374  0.87458906  1
  Zn  Zn93  1  0.62588030  0.37701971  0.25151455  1
  Zn  Zn94  1  0.62865252  0.24549712  0.87002443  1
  Zn  Zn95  1  0.25126593  -0.00073650  0.25071901  1
  Zn  Zn96  1  0.62789885  0.87500190  0.25120449  1
  Zn  Zn97  1  0.12157947  0.62888627  0.01046523  1
  Zn  Zn98  1  0.75092252  0.87409682  0.12832282  1
  Zn  Zn99  1  0.87219306  0.87916146  0.50415484  1
  Zn  Zn100  1  0.25052490  0.12699234  0.87247044  1
  Zn  Zn101  1  0.50309802  0.37442798  0.37639569  1
  Zn  Zn102  1  -0.00267924  0.74976029  0.75208995  1
  Zn  Zn103  1  0.37674905  0.37372406  0.50055291  1
  Zn  Zn104  1  0.74546010  0.38004557  0.62115765  1
  Zn  Zn105  1  0.25438533  0.25703436  -0.00615915  1
  Zn  Zn106  1  0.24637138  0.62195551  0.87759239  1
  Zn  Zn107  1  0.75099920  0.62355268  0.37592394  1
  Zn  Zn108  1  0.75189721  -0.00327538  0.25038059  1
  Zn  Zn109  1  -0.00349446  0.37406926  0.86921206  1
  Zn  Zn110  1  0.74925995  0.50208961  0.25092013  1
  Zn  Zn111  1  0.37620109  0.87413961  0.49987735  1
  Zn  Zn112  1  0.11651333  0.50412532  0.12965597  1
  Zn  Zn113  1  0.87428792  0.49997189  0.87261306  1
  Zn  Zn114  1  0.24956205  0.00224498  0.75196169  1
  Zn  Zn115  1  0.49990953  0.62296301  0.12441194  1
  Zn  Zn116  1  0.12373976  0.50090472  0.62774139  1
  Zn  Zn117  1  -0.00142246  0.87552531  0.87587933  1
  Zn  Zn118  1  0.12472385  0.37458730  0.24768039  1
  Zn  Zn119  1  0.12631981  0.75226091  0.37672589  1
  Zn  Zn120  1  0.62474544  0.75030132  0.87690570  1
  Zn  Zn121  1  0.49891831  0.87425403  0.37664248  1
  Zn  Zn122  1  0.18957101  0.18963789  0.18684438  1
  Zn  Zn123  1  0.18896442  0.18851975  0.68912098  1
  Zn  Zn124  1  0.18614606  0.68405129  0.18602312  1
  Zn  Zn125  1  0.18729738  0.68687687  0.69016046  1
  Zn  Zn126  1  0.68826249  0.18490545  0.18391384  1
  Zn  Zn127  1  0.69026701  0.18733228  0.68730960  1
  Zn  Zn128  1  0.69161789  0.68528194  0.18698718  1
  Zn  Zn129  1  0.68791847  0.68902803  0.68668726  1
  Zn  Zn130  1  0.31364928  0.31293758  0.30894211  1
  Zn  Zn131  1  0.30827168  0.31062866  0.81050237  1
  Zn  Zn132  1  0.31340963  0.81319488  0.31443504  1
  Zn  Zn133  1  0.30965577  0.81258730  0.81340023  1
  Zn  Zn134  1  0.81345516  0.31264035  0.31193541  1
  Zn  Zn135  1  0.80976166  0.31492744  0.80987022  1
  Zn  Zn136  1  0.81147594  0.81463985  0.31422000  1
  Zn  Zn137  1  0.81130233  0.81418053  0.81492453  1
  Zn  Zn138  1  0.18593278  0.43772498  0.43888014  1
  Zn  Zn139  1  0.18192992  0.43664396  0.93498994  1
  Zn  Zn140  1  0.18900368  0.93749882  0.43841100  1
  Zn  Zn141  1  0.18926599  0.93785077  0.93771652  1
  Zn  Zn142  1  0.68800220  0.43677523  0.43493670  1
  Zn  Zn143  1  0.68580099  0.43721113  0.93271342  1
  Zn  Zn144  1  0.68781433  0.93685210  0.43536006  1
  Zn  Zn145  1  0.68930454  0.93554758  0.93538132  1
  Zn  Zn146  1  0.31264191  0.06254462  0.06243315  1
  Zn  Zn147  1  0.31259697  0.06166192  0.56277885  1
  Zn  Zn148  1  0.30999802  0.56515683  0.06314689  1
  Zn  Zn149  1  0.31342596  0.56150617  0.56483285  1
  Zn  Zn150  1  0.81132370  0.06325582  0.06319402  1
  Zn  Zn151  1  0.81223607  0.06330209  0.56351595  1
  Zn  Zn152  1  0.81430827  0.56327076  0.06264120  1
  Zn  Zn153  1  0.81329105  0.56737201  0.56250317  1
  Zn  Zn154  1  0.43523577  0.43549126  0.18744128  1
  Zn  Zn155  1  0.43508878  0.43621026  0.68796340  1
  Zn  Zn156  1  0.44010663  0.93596955  0.18893554  1
  Zn  Zn157  1  0.43935223  0.93639016  0.68727159  1
  Zn  Zn158  1  0.93618375  0.43665093  0.18573482  1
  Zn  Zn159  1  0.93362895  0.44195305  0.68491071  1
  Zn  Zn160  1  0.93868478  0.93599123  0.18717095  1
  Zn  Zn161  1  0.93972391  0.94042087  0.68923845  1
  Zn  Zn162  1  0.06370964  0.06290434  0.31199002  1
  Zn  Zn163  1  0.05713484  0.06353486  0.81333915  1
  Zn  Zn164  1  0.06360311  0.56574261  0.31515209  1
  Zn  Zn165  1  0.05802838  0.55975770  0.81525861  1
  Zn  Zn166  1  0.56113248  0.06398487  0.31147611  1
  Zn  Zn167  1  0.56051259  0.05904831  0.81130825  1
  Zn  Zn168  1  0.56284082  0.56491181  0.31493489  1
  Zn  Zn169  1  0.56336398  0.56133553  0.81358978  1
  Zn  Zn170  1  0.43832491  0.18543660  0.43702938  1
  Zn  Zn171  1  0.44081130  0.18479727  0.93583189  1
  Zn  Zn172  1  0.43755121  0.68557036  0.43883662  1
  Zn  Zn173  1  0.43775753  0.68331061  0.93808290  1
  Zn  Zn174  1  0.93819146  0.18805045  0.43907366  1
  Zn  Zn175  1  0.93907469  0.18709112  0.93654929  1
  Zn  Zn176  1  0.93693246  0.68950769  0.43692912  1
  Zn  Zn177  1  0.93553709  0.68927622  0.93363744  1
  Zn  Zn178  1  0.06612099  0.31693071  0.06258202  1
  Zn  Zn179  1  0.06122776  0.31410119  0.56207435  1
  Zn  Zn180  1  0.06150445  0.81382756  0.06328502  1
  Zn  Zn181  1  0.06144611  0.81235069  0.56434012  1
  Zn  Zn182  1  0.56359236  0.31156401  0.06094423  1
  Zn  Zn183  1  0.56179375  0.31127964  0.56030405  1
  Zn  Zn184  1  0.56306546  0.81121291  0.06365545  1
  Zn  Zn185  1  0.56064199  0.81139217  0.56393225  1
  O  O186  1  0.12137217  0.12195587  0.11694509  1
  O  O187  1  0.11957910  0.12250484  0.62125607  1
  O  O188  1  0.12603831  0.61653087  0.12295061  1
  O  O189  1  0.11739097  0.62449959  0.62083872  1
  O  O190  1  0.61990934  0.11679595  0.11448601  1
  O  O191  1  0.62138713  0.11904769  0.61890758  1
  O  O192  1  0.62532219  0.61326510  0.11936916  1
  O  O193  1  0.61796934  0.63066830  0.61311212  1
  O  O194  1  0.37795074  0.38654130  0.37564372  1
  O  O195  1  0.38599191  0.38455707  0.86648744  1
  O  O196  1  0.37793337  0.88367761  0.37812751  1
  O  O197  1  0.37988007  0.87925115  0.88100233  1
  O  O198  1  0.88059300  0.38035810  0.38017291  1
  O  O199  1  0.87474821  0.37398263  0.88540184  1
  O  O200  1  0.88269276  0.88297208  0.37793112  1
  O  O201  1  0.87664939  0.88572660  0.88107061  1
  O  O202  1  0.25716990  0.00777907  0.37421765  1
  O  O203  1  0.25944315  0.00331414  0.87389311  1
  O  O204  1  0.25904703  0.50324612  0.36929078  1
  O  O205  1  0.25887929  0.49753823  0.87131541  1
  O  O206  1  0.75729337  0.00731757  0.37434087  1
  O  O207  1  0.76152081  -0.00143687  0.86577943  1
  O  O208  1  0.75828698  0.50173024  0.37047405  1
  O  O209  1  0.75107254  0.50619348  0.86474891  1
  O  O210  1  0.25774301  0.49185574  0.13652145  1
  O  O211  1  0.24890717  0.49298441  0.63203263  1
  O  O212  1  0.24472560  0.99270099  0.12607603  1
  O  O213  1  0.24253889  0.99405510  0.62680763  1
  O  O214  1  0.74158242  0.49128946  0.12294183  1
  O  O215  1  0.75322942  0.50100484  0.63757369  1
  O  O216  1  0.73957958  0.99942272  0.12631911  1
  O  O217  1  0.74472170  1.00246558  0.63643093  1
  O  O218  1  -0.00046222  0.36907822  0.25598375  1
  O  O219  1  0.01217812  0.38285875  0.74801636  1
  O  O220  1  0.00587527  0.86752931  0.25579907  1
  O  O221  1  0.01282656  0.87453936  0.75209807  1
  O  O222  1  0.50168207  0.36214229  0.25048237  1
  O  O223  1  0.50633306  0.37087534  0.75552023  1
  O  O224  1  0.50429236  0.85990033  0.25202882  1
  O  O225  1  0.50786446  0.86879375  0.75567305  1
  O  O226  1  0.49518797  0.13476123  0.24273475  1
  O  O227  1  0.49683963  0.13001060  0.74391899  1
  O  O228  1  0.49446120  0.63372681  0.24898922  1
  O  O229  1  0.49530985  0.62825696  0.74647807  1
  O  O230  1  0.99608021  0.13197247  0.24415369  1
  O  O231  1  0.98400325  0.11953428  0.74207136  1
  O  O232  1  0.99098229  0.63651223  0.25651654  1
  O  O233  1  0.99119488  0.62548939  0.74435528  1
  O  O234  1  0.37516119  0.24273582  0.01279333  1
  O  O235  1  0.36984738  0.25009094  0.50540533  1
  O  O236  1  0.37148559  0.75412911  0.00553990  1
  O  O237  1  0.36937493  0.74845994  0.50884507  1
  O  O238  1  0.86853896  0.25484820  0.00390972  1
  O  O239  1  0.86923068  0.25590570  0.50593230  1
  O  O240  1  0.87247434  0.75404600  0.00821876  1
  O  O241  1  0.86650724  0.75108045  0.50766516  1
  O  O242  1  0.13031488  0.24531862  0.49429982  1
  O  O243  1  0.12576460  0.24195544  0.99267680  1
  O  O244  1  0.13239106  0.74419958  0.50040721  1
  O  O245  1  0.12903759  0.75189555  0.99219156  1
  O  O246  1  0.63008640  0.24342057  0.49353313  1
  O  O247  1  0.63188779  0.24092429  0.99915453  1
  O  O248  1  0.62981469  0.74275343  0.49533641  1
  O  O249  1  0.63110149  0.74180220  1.00121282  1
  O  O250  1  0.49428031  0.24652554  0.12997928  1
  O  O251  1  0.49490829  0.24330170  0.62901222  1
  O  O252  1  0.49576089  0.74658932  0.13433644  1
  O  O253  1  0.49390220  0.74241583  0.63231668  1
  O  O254  1  0.99550425  0.24643370  0.12902574  1
  O  O255  1  0.98453064  0.24498121  0.61721154  1
  O  O256  1  0.99045649  0.75611867  0.13723564  1
  O  O257  1  0.99025154  0.74386857  0.62749917  1
  O  O258  1  0.00469833  0.25546938  0.37037658  1
  O  O259  1  0.01283999  0.25313612  0.87817082  1
  O  O260  1  0.00068996  0.75754954  0.36508363  1
  O  O261  1  0.00912300  0.75511394  0.87328702  1
  O  O262  1  0.50549236  0.24790426  0.36435679  1
  O  O263  1  0.49971586  0.25927401  0.86855116  1
  O  O264  1  0.50789754  0.74757148  0.36811653  1
  O  O265  1  0.50062995  0.75442846  0.86937961  1
  O  O266  1  0.24465345  0.13166324  0.49491285  1
  O  O267  1  0.23699206  0.12654534  0.99937192  1
  O  O268  1  0.24557110  0.62904421  0.49759611  1
  O  O269  1  0.24678856  0.63314157  0.99631600  1
  O  O270  1  0.74559185  0.13055482  0.49329228  1
  O  O271  1  0.74105432  0.13507031  1.00585149  1
  O  O272  1  0.74065763  0.63345254  0.49905916  1
  O  O273  1  0.74601442  0.62895575  0.99485993  1
  O  O274  1  0.24490355  0.37721816  0.01282981  1
  O  O275  1  0.25202628  0.36905224  0.50589239  1
  O  O276  1  0.25668387  0.86890286  0.00669175  1
  O  O277  1  0.25138271  0.86786192  0.50825463  1
  O  O278  1  0.75566010  0.36891584  0.00692809  1
  O  O279  1  0.75578241  0.36968469  0.50176721  1
  O  O280  1  0.75717274  0.86762080  0.00123543  1
  O  O281  1  0.75050192  0.86128090  0.49696414  1
  O  O282  1  0.13872040  0.49942130  0.25414755  1
  O  O283  1  0.13123349  0.49087354  0.75130514  1
  O  O284  1  0.12628334  0.99446577  0.24210569  1
  O  O285  1  0.12458689  0.99294668  0.74627960  1
  O  O286  1  0.62509390  0.49958516  0.23860164  1
  O  O287  1  0.63226204  0.49054586  0.75391342  1
  O  O288  1  0.62396496  1.00115377  0.23750426  1
  O  O289  1  0.63210290  0.99461169  0.74576925  1
  O  O290  1  0.37629162  0.00683940  0.25589363  1
  O  O291  1  0.37671396  0.00551200  0.75641127  1
  O  O292  1  0.36972110  0.50402218  0.25869107  1
  O  O293  1  0.36966803  0.50338163  0.75876953  1
  O  O294  1  0.87764490  0.00776706  0.25640734  1
  O  O295  1  0.86802443  0.00584324  0.75568949  1
  O  O296  1  0.87733193  0.50975858  0.25341941  1
  O  O297  1  0.86367856  0.50666082  0.75154858  1
  O  O298  1  0.11828197  0.36848641  0.37339304  1
  O  O299  1  0.12303545  0.36616449  0.86504642  1
  O  O300  1  0.11933085  0.87481737  0.36854210  1
  O  O301  1  0.12491485  0.86781727  0.86833494  1
  O  O302  1  0.62369195  0.36530418  0.36979062  1
  O  O303  1  0.61352948  0.37279059  0.86418372  1
  O  O304  1  0.62193081  0.86060155  0.37450541  1
  O  O305  1  0.61771382  0.87464660  0.86498897  1
  O  O306  1  0.38045490  0.13228834  0.12936465  1
  O  O307  1  0.38236171  0.12918404  0.62977473  1
  O  O308  1  0.37692798  0.63136940  0.13250730  1
  O  O309  1  0.38029874  0.62977117  0.63324193  1
  O  O310  1  0.88222109  0.13028148  0.12867237  1
  O  O311  1  0.87886733  0.13313682  0.63150693  1
  O  O312  1  0.87210159  0.63645819  0.13436394  1
  O  O313  1  0.87986247  0.63583079  0.63040570  1
  O  O314  1  0.25828527  0.25932565  0.12363051  1
  O  O315  1  0.25505485  0.25405394  0.61795650  1
  O  O316  1  0.25669751  0.75576037  0.12102869  1
  O  O317  1  0.25545925  0.75453521  0.62206880  1
  O  O318  1  0.75446473  0.25724378  0.11509234  1
  O  O319  1  0.76056392  0.25035659  0.61682605  1
  O  O320  1  0.76091225  0.75094092  0.11906582  1
  O  O321  1  0.75974703  0.74490037  0.61564757  1
  O  O322  1  0.24594402  0.24555741  0.37877030  1
  O  O323  1  0.23872589  0.24780474  0.87818212  1
  O  O324  1  0.25109335  0.74237309  0.38277871  1
  O  O325  1  0.24039553  0.74920605  0.88196412  1
  O  O326  1  0.74603758  0.24412693  0.37902283  1
  O  O327  1  0.74743130  0.25660057  0.88924696  1
  O  O328  1  0.74186224  0.74668776  0.38418733  1
  O  O329  1  0.74786395  0.74299266  0.88287682  1
  O  O330  1  0.00941861  0.12094462  0.00558617  1
  O  O331  1  0.00658713  0.12059909  0.50618026  1
  O  O332  1  -0.00603370  0.61094584  -0.00375590  1
  O  O333  1  0.00496176  0.62228448  0.50455527  1
  O  O334  1  0.50891940  0.11838958  0.00504959  1
  O  O335  1  0.50790092  0.11936182  0.50529249  1
  O  O336  1  0.50612685  0.61137692  0.00146739  1
  O  O337  1  0.50695917  0.61815708  0.50575193  1
  O  O338  1  0.49862939  0.38538052  0.49784004  1
  O  O339  1  0.50718685  0.38432311  0.98862017  1
  O  O340  1  0.49799477  0.88255718  0.49903415  1
  O  O341  1  0.49482712  0.87819895  0.99500310  1
  O  O342  1  0.99388546  0.38202694  0.49376442  1
  O  O343  1  0.98756840  0.37894457  0.99904234  1
  O  O344  1  1.00066646  0.88322834  0.49429972  1
  O  O345  1  0.99236779  0.88378795  1.00053905  1
  O  O346  1  0.49186411  0.50066884  0.38362767  1
  O  O347  1  0.49304286  0.49178567  0.88094777  1
  O  O348  1  0.49524993  0.99998064  0.38116191  1
  O  O349  1  0.49412310  0.99237578  0.88095831  1
  O  O350  1  0.99453236  0.49553200  0.37988351  1
  O  O351  1  0.99338739  0.49375100  0.88712760  1
  O  O352  1  0.99615094  0.99732602  0.38122209  1
  O  O353  1  0.98788280  0.99864862  0.88170232  1
  O  O354  1  0.00630351  0.00681457  0.11930056  1
  O  O355  1  0.00597654  0.00768516  0.61984187  1
  O  O356  1  -0.00289299  0.49313782  0.10760206  1
  O  O357  1  -0.00079459  0.50937600  0.61654251  1
  O  O358  1  0.50736731  0.00451948  0.11889636  1
  O  O359  1  0.50779890  0.00576954  0.62003057  1
  O  O360  1  0.50681875  0.49659115  0.11700988  1
  O  O361  1  0.49127593  0.50592845  0.61302795  1
  O  O362  1  0.24983682  0.38424002  0.24266600  1
  O  O363  1  0.24044393  0.37935765  0.74331592  1
  O  O364  1  0.24438948  0.87539048  0.24391307  1
  O  O365  1  0.23871715  0.87693375  0.74490817  1
  O  O366  1  0.75126375  0.37541203  0.23417005  1
  O  O367  1  0.74050351  0.38367058  0.74822237  1
  O  O368  1  0.74548160  0.87858632  0.24701925  1
  O  O369  1  0.73849009  0.88573640  0.75637765  1
  O  O370  1  0.25640975  0.12402007  0.25611457  1
  O  O371  1  0.25989138  0.12259669  0.75119607  1
  O  O372  1  0.25632999  0.61621807  0.25712118  1
  O  O373  1  0.25574886  0.61702604  0.75407059  1
  O  O374  1  0.75842253  0.12437652  0.25485888  1
  O  O375  1  0.76117466  0.11422943  0.74725240  1
  O  O376  1  0.76449664  0.62382155  0.25323031  1
  O  O377  1  0.75124772  0.61858899  0.75410379  1
  O  O378  1  0.37022011  0.11999806  0.36898366  1
  O  O379  1  0.37664187  0.11812175  0.86854852  1
  O  O380  1  0.37058680  0.61483252  0.37085679  1
  O  O381  1  0.37513058  0.61126858  0.86961999  1
  O  O382  1  0.87173105  0.12093792  0.36979045  1
  O  O383  1  0.88068203  0.11641824  0.86598512  1
  O  O384  1  0.87482609  0.61992133  0.36640879  1
  O  O385  1  0.86586251  0.62561318  0.86663429  1
  O  O386  1  0.13525298  0.38245410  0.12918723  1
  O  O387  1  0.12998672  0.37556666  0.63214915  1
  O  O388  1  0.13098750  0.88060707  0.13004746  1
  O  O389  1  0.12912678  0.88028999  0.63403854  1
  O  O390  1  0.63295717  0.38240750  0.12408707  1
  O  O391  1  0.62504229  0.36945445  0.63799491  1
  O  O392  1  0.62566984  0.88686087  0.12460770  1
  O  O393  1  0.61822600  0.88052663  0.63903471  1
  O  O394  1  0.11836439  0.25070102  0.25635612  1
  O  O395  1  0.12883831  0.25941173  0.75755189  1
  O  O396  1  0.11648137  0.75558394  0.25086216  1
  O  O397  1  0.12432553  0.75907786  0.75910981  1
  O  O398  1  0.61580040  0.24785644  0.25142609  1
  O  O399  1  0.62017836  0.25634628  0.75177903  1
  O  O400  1  0.61853856  0.74427626  0.25882166  1
  O  O401  1  0.61993928  0.75831916  0.75129871  1
  O  O402  1  0.38368396  0.24458283  0.24117155  1
  O  O403  1  0.38122767  0.24400034  0.74371782  1
  O  O404  1  0.38345856  0.74491941  0.24680035  1
  O  O405  1  0.37986691  0.74374013  0.74712915  1
  O  O406  1  0.88115252  0.24460833  0.24341242  1
  O  O407  1  0.86491423  0.24154231  0.74003404  1
  O  O408  1  0.88245066  0.74449391  0.24465344  1
  O  O409  1  0.87257796  0.74577664  0.74252875  1
  O  O410  1  0.38386237  0.50089710  0.49088939  1
  O  O411  1  0.38493726  0.50401866  0.99132484  1
  O  O412  1  0.38290391  1.00074897  0.49376073  1
  O  O413  1  0.38194471  0.99391846  0.99644810  1
  O  O414  1  0.87977669  0.49688956  0.49453537  1
  O  O415  1  0.88075744  0.49092420  0.99882430  1
  O  O416  1  0.88190888  1.00027765  0.49512262  1
  O  O417  1  0.87770053  0.99831925  0.99328802  1
  O  O418  1  0.11997605  0.00841489  0.00391514  1
  O  O419  1  0.12082716  0.00753340  0.50665445  1
  O  O420  1  0.10713555  0.50048185  -0.00343393  1
  O  O421  1  0.11804469  0.50776999  0.50224663  1
  O  O422  1  0.62186898  0.00549306  0.00544410  1
  O  O423  1  0.62209857  0.00483972  0.50442732  1
  O  O424  1  0.61751109  0.50256757  0.00728352  1
  O  O425  1  0.61525958  0.51070246  0.49158607  1
  O  O426  1  0.36666818  0.36415666  0.12949533  1
  O  O427  1  0.36763132  0.36621870  0.62481097  1
  O  O428  1  0.37183115  0.86898115  0.12006188  1
  O  O429  1  0.36863036  0.86744282  0.62615967  1
  O  O430  1  0.86633881  0.36949276  0.11517416  1
  O  O431  1  0.87257743  0.36705248  0.61916353  1
  O  O432  1  0.87408772  0.86514078  0.11961911  1
  O  O433  1  0.88175456  0.86273042  0.62508219  1
  O  O434  1  0.13038136  0.13100593  0.38117461  1
  O  O435  1  0.12341880  0.13157928  0.88194878  1
  O  O436  1  0.13291990  0.62847031  0.38359520  1
  O  O437  1  0.12354100  0.63790773  0.87710976  1
  O  O438  1  0.63166042  0.12940794  0.37963919  1
  O  O439  1  0.61864505  0.12424642  0.88838285  1
  O  O440  1  0.62546313  0.63493004  0.38608859  1
  O  O441  1  0.63078427  0.62602679  0.88233472  1
