# generated using pymatgen
data_V93Zn93O256
_symmetry_space_group_name_H-M   'P 1'
_cell_length_a   17.05663653
_cell_length_b   17.05711884
_cell_length_c   17.05630308
_cell_angle_alpha   89.86909075
_cell_angle_beta   90.01754545
_cell_angle_gamma   89.99296799
_symmetry_Int_Tables_number   1
_chemical_formula_structural   V93Zn93O256
_chemical_formula_sum   'V93 Zn93 O256'
_cell_volume   4962.29772888
_cell_formula_units_Z   1
loop_
 _symmetry_equiv_pos_site_id
 _symmetry_equiv_pos_as_xyz
  1  'x, y, z'
loop_
 _atom_site_type_symbol
 _atom_site_label
 _atom_site_symmetry_multiplicity
 _atom_site_fract_x
 _atom_site_fract_y
 _atom_site_fract_z
 _atom_site_occupancy
  V  V0  1  0.62565283  0.62276496  0.49835488  1
  V  V1  1  0.62636686  0.50078837  0.12461437  1
  V  V2  1  0.50025650  0.50152249  -0.00191933  1
  V  V3  1  0.25131362  0.49889175  0.24837220  1
  V  V4  1  0.24751887  0.49894131  0.74371922  1
  V  V5  1  0.12570540  0.87616831  0.74761178  1
  V  V6  1  0.74907724  0.24820073  0.49918134  1
  V  V7  1  0.74933476  0.37371951  0.62475112  1
  V  V8  1  0.87563768  0.50053870  0.37519530  1
  V  V9  1  0.49992293  0.49700294  0.49732227  1
  V  V10  1  0.37551618  0.75044774  0.12558781  1
  V  V11  1  0.75112309  0.74872089  0.50077083  1
  V  V12  1  0.74999087  0.49957960  0.24923221  1
  V  V13  1  -0.00072557  0.12399035  0.62740963  1
  V  V14  1  0.25001385  0.75082174  -0.00083338  1
  V  V15  1  0.87801276  0.75141870  0.12920229  1
  V  V16  1  -0.00030209  0.87069795  0.37345173  1
  V  V17  1  0.37562489  0.87716139  0.00054452  1
  V  V18  1  0.62536835  0.87550528  0.24955509  1
  V  V19  1  -0.00537467  0.49419571  -0.00177945  1
  V  V20  1  0.37374593  0.50487680  0.86977681  1
  V  V21  1  0.49959289  0.37691051  0.87378486  1
  V  V22  1  0.49908056  0.25033871  0.74950953  1
  V  V23  1  0.25387177  0.37369243  0.12367016  1
  V  V24  1  0.87817579  0.62920205  0.25056732  1
  V  V25  1  0.50009874  0.25190376  0.24998735  1
  V  V26  1  0.49673034  0.13248548  0.12460388  1
  V  V27  1  0.37559521  0.62510480  0.24888133  1
  V  V28  1  0.62444397  0.37439928  0.74859169  1
  V  V29  1  0.12669304  0.62648045  0.00010551  1
  V  V30  1  0.87475147  0.62342821  0.75200608  1
  V  V31  1  0.00237841  0.62181431  0.62602042  1
  V  V32  1  0.75119025  0.62385632  0.37450070  1
  V  V33  1  0.37361284  -0.00240133  0.37569704  1
  V  V34  1  0.12087700  0.74764168  0.37055422  1
  V  V35  1  0.62482511  0.49919444  0.62278582  1
  V  V36  1  0.87528668  0.12739788  0.24953744  1
  V  V37  1  -0.00019468  0.12528947  0.12669343  1
  V  V38  1  0.50079226  0.87476451  0.37296318  1
  V  V39  1  0.37362843  0.12913096  0.24597772  1
  V  V40  1  0.49892221  0.00205711  0.00195689  1
  V  V41  1  0.24987429  0.87534282  0.12576362  1
  V  V42  1  0.75794249  0.37641836  0.12142439  1
  V  V43  1  0.62482333  0.12879921  0.00027669  1
  V  V44  1  0.25459775  0.25091795  0.00554827  1
  V  V45  1  0.12628904  0.75060315  0.87661241  1
  V  V46  1  0.12125450  0.87230236  0.25142234  1
  V  V47  1  0.12465136  0.12360639  0.49936825  1
  V  V48  1  0.87359449  0.00229501  0.87385777  1
  V  V49  1  0.24920097  0.12662717  0.87468538  1
  V  V50  1  0.37572855  0.49825914  0.37362008  1
  V  V51  1  0.62482660  0.00181659  0.12596656  1
  V  V52  1  0.87438503  0.74883082  0.62548693  1
  V  V53  1  0.49966563  0.00060640  0.50000348  1
  V  V54  1  0.11950854  0.37787259  0.74421622  1
  V  V55  1  0.00073007  0.87474151  0.87577029  1
  V  V56  1  0.62622251  0.62728788  -0.00212104  1
  V  V57  1  0.62449948  0.12309004  0.50128828  1
  V  V58  1  0.24954950  -0.00066381  0.25076131  1
  V  V59  1  0.00018165  0.00074400  0.00101974  1
  V  V60  1  0.37427623  0.25065861  0.62449209  1
  V  V61  1  0.12487161  -0.00055230  0.12626322  1
  V  V62  1  0.12613045  0.37410137  0.25009803  1
  V  V63  1  0.00157580  0.63068109  0.13011298  1
  V  V64  1  0.12562353  0.62146476  0.50391019  1
  V  V65  1  0.75049108  0.87603932  0.12474652  1
  V  V66  1  0.00103497  0.37324343  0.37425226  1
  V  V67  1  0.12666496  0.50060498  0.12384765  1
  V  V68  1  0.75041356  0.75007607  -0.00069199  1
  V  V69  1  0.37442624  0.37449346  0.00100513  1
  V  V70  1  0.74994414  0.62514618  0.87455714  1
  V  V71  1  0.00334800  0.49819085  0.50534729  1
  V  V72  1  0.87523612  0.24861555  0.62799814  1
  V  V73  1  0.75036596  0.50079219  0.74966537  1
  V  V74  1  0.50023075  0.62630652  0.12360082  1
  V  V75  1  0.75668764  0.25499192  -0.00046041  1
  V  V76  1  0.75010715  0.00136391  0.25101636  1
  V  V77  1  -0.00136320  -0.00252443  0.50191871  1
  V  V78  1  -0.00030904  0.74816997  0.75098319  1
  V  V79  1  0.12620012  0.12592809  0.00040354  1
  V  V80  1  0.37539715  0.37290900  0.49820210  1
  V  V81  1  0.24944191  0.24798334  0.49915849  1
  V  V82  1  0.74172393  -0.00548753  0.74871910  1
  V  V83  1  0.62550338  0.25113614  0.87486875  1
  V  V84  1  0.62567486  0.74974238  0.37302594  1
  V  V85  1  0.37283956  0.12615203  0.75027837  1
  V  V86  1  0.25667656  0.86796758  0.62400289  1
  V  V87  1  0.87359888  0.87274341  0.50255858  1
  V  V88  1  0.50706636  0.87501870  0.87105156  1
  V  V89  1  0.87535883  0.87545107  0.00197476  1
  V  V90  1  0.49268587  0.63008308  0.62565517  1
  V  V91  1  0.24936721  0.62432809  0.37416483  1
  V  V92  1  0.87399084  -0.00145258  0.37644838  1
  Zn  Zn93  1  0.49902343  0.12364970  0.62583919  1
  Zn  Zn94  1  0.36630662  0.63887355  0.74002011  1
  Zn  Zn95  1  0.00092678  0.25051638  0.24880041  1
  Zn  Zn96  1  0.50088369  0.76121918  0.73968124  1
  Zn  Zn97  1  0.50265261  0.37388542  0.37298470  1
  Zn  Zn98  1  0.38133672  0.86481387  0.50883000  1
  Zn  Zn99  1  0.73869247  0.86590978  0.63412517  1
  Zn  Zn100  1  0.12253166  0.25420339  0.87624672  1
  Zn  Zn101  1  -0.00556337  0.36735402  0.88081667  1
  Zn  Zn102  1  0.50033606  0.75052244  0.24900392  1
  Zn  Zn103  1  0.12460775  0.24793120  0.37339269  1
  Zn  Zn104  1  0.74953184  0.12510879  0.37478870  1
  Zn  Zn105  1  0.87410657  0.12356314  0.75103515  1
  Zn  Zn106  1  0.24545190  0.37936170  0.62109005  1
  Zn  Zn107  1  0.61734307  -0.00822957  0.63184652  1
  Zn  Zn108  1  0.25566497  0.74406283  0.50396841  1
  Zn  Zn109  1  0.62662140  0.37311542  0.25016907  1
  Zn  Zn110  1  0.00078616  0.24882141  0.75450049  1
  Zn  Zn111  1  0.74928244  0.12733210  0.87335758  1
  Zn  Zn112  1  0.62532102  0.25163103  0.37407097  1
  Zn  Zn113  1  0.87513525  0.37416554  0.49958209  1
  Zn  Zn114  1  0.37496589  0.00009221  0.87551155  1
  Zn  Zn115  1  0.24961381  0.00007773  0.74935603  1
  Zn  Zn116  1  0.25083325  0.62706797  0.87179658  1
  Zn  Zn117  1  0.12594471  -0.00165543  0.62562456  1
  Zn  Zn118  1  0.87951551  0.25604482  0.12160833  1
  Zn  Zn119  1  0.87058936  0.49331819  0.88019648  1
  Zn  Zn120  1  0.24769615  0.12298549  0.37392991  1
  Zn  Zn121  1  0.62997881  0.75669048  0.86479377  1
  Zn  Zn122  1  0.18654158  0.18868505  0.18781516  1
  Zn  Zn123  1  0.18575468  0.19269748  0.68694017  1
  Zn  Zn124  1  0.18842495  0.68854118  0.18813397  1
  Zn  Zn125  1  0.18665376  0.68699741  0.68863982  1
  Zn  Zn126  1  0.68754820  0.18994253  0.18550651  1
  Zn  Zn127  1  0.68746240  0.18043979  0.68810602  1
  Zn  Zn128  1  0.68941017  0.68783390  0.18677330  1
  Zn  Zn129  1  0.68107923  0.68855514  0.68900053  1
  Zn  Zn130  1  0.31284277  0.31145927  0.31370544  1
  Zn  Zn131  1  0.30900177  0.31470635  0.81401789  1
  Zn  Zn132  1  0.30993979  0.80938321  0.31522593  1
  Zn  Zn133  1  0.31917402  0.81143815  0.81192789  1
  Zn  Zn134  1  0.81357134  0.31411718  0.31140723  1
  Zn  Zn135  1  0.81397291  0.31555493  0.81479461  1
  Zn  Zn136  1  0.81292741  0.81214574  0.31271501  1
  Zn  Zn137  1  0.81380109  0.81283404  0.81365357  1
  Zn  Zn138  1  0.18779446  0.43673410  0.43621784  1
  Zn  Zn139  1  0.18374372  0.43727597  0.93196092  1
  Zn  Zn140  1  0.18622217  0.93590176  0.43958605  1
  Zn  Zn141  1  0.18870517  0.93943041  0.93696301  1
  Zn  Zn142  1  0.68601270  0.43384280  0.43483493  1
  Zn  Zn143  1  0.68785788  0.43780963  0.93730836  1
  Zn  Zn144  1  0.68791425  0.93546448  0.43921590  1
  Zn  Zn145  1  0.68773942  0.94138218  0.93958231  1
  Zn  Zn146  1  0.31272852  0.06261012  0.06325098  1
  Zn  Zn147  1  0.30970659  0.05772022  0.56648263  1
  Zn  Zn148  1  0.31343651  0.56228883  0.06009190  1
  Zn  Zn149  1  0.31244156  0.55943313  0.55925635  1
  Zn  Zn150  1  0.81104506  0.06617169  0.06225197  1
  Zn  Zn151  1  0.81180845  0.06070231  0.56502990  1
  Zn  Zn152  1  0.81393182  0.56513226  0.06443752  1
  Zn  Zn153  1  0.81546324  0.56182039  0.56288579  1
  Zn  Zn154  1  0.43717791  0.43783229  0.18448598  1
  Zn  Zn155  1  0.43561912  0.43871907  0.68404692  1
  Zn  Zn156  1  0.43785130  0.93990403  0.18782983  1
  Zn  Zn157  1  0.43515864  0.94107441  0.68964782  1
  Zn  Zn158  1  0.93915505  0.44234008  0.18788005  1
  Zn  Zn159  1  0.93385311  0.43662909  0.68810289  1
  Zn  Zn160  1  0.93798350  0.93880088  0.19018707  1
  Zn  Zn161  1  0.93404489  0.93561244  0.68787043  1
  Zn  Zn162  1  0.05990240  0.05890580  0.31435444  1
  Zn  Zn163  1  0.06289942  0.06244892  0.81414090  1
  Zn  Zn164  1  0.06364059  0.55971932  0.31353276  1
  Zn  Zn165  1  0.06584116  0.56172213  0.81417355  1
  Zn  Zn166  1  0.56318125  0.06564297  0.31437226  1
  Zn  Zn167  1  0.56017976  0.06379002  0.81656827  1
  Zn  Zn168  1  0.56245616  0.56241546  0.31061780  1
  Zn  Zn169  1  0.56519498  0.56565302  0.80979929  1
  Zn  Zn170  1  0.43654014  0.18579348  0.43376412  1
  Zn  Zn171  1  0.43655737  0.19008305  0.93623252  1
  Zn  Zn172  1  0.43792280  0.68775532  0.43815986  1
  Zn  Zn173  1  0.43696990  0.69074604  0.93587241  1
  Zn  Zn174  1  0.93628906  0.18650633  0.43842690  1
  Zn  Zn175  1  0.93891729  0.18740629  0.93781141  1
  Zn  Zn176  1  0.93870057  0.68642005  0.43854004  1
  Zn  Zn177  1  0.93754447  0.68433549  0.93987399  1
  Zn  Zn178  1  0.06668195  0.31053540  0.06481742  1
  Zn  Zn179  1  0.06329424  0.31147813  0.56377491  1
  Zn  Zn180  1  0.06302362  0.81313441  0.06316560  1
  Zn  Zn181  1  0.06446530  0.80734528  0.56102091  1
  Zn  Zn182  1  0.56652954  0.31616400  0.06268977  1
  Zn  Zn183  1  0.56076860  0.31095592  0.56287967  1
  Zn  Zn184  1  0.56307808  0.81264233  0.05934030  1
  Zn  Zn185  1  0.56574927  0.81334073  0.55940937  1
  O  O186  1  0.12022895  0.11817252  0.12069580  1
  O  O187  1  0.11591590  0.12468858  0.61658627  1
  O  O188  1  0.11911330  0.62175612  0.12171569  1
  O  O189  1  0.11846384  0.63131374  0.61195145  1
  O  O190  1  0.61593726  0.12091059  0.12057528  1
  O  O191  1  0.62141140  0.11660858  0.61351861  1
  O  O192  1  0.62091973  0.62074801  0.11822535  1
  O  O193  1  0.61724401  0.61657480  0.61609925  1
  O  O194  1  0.37730456  0.38115994  0.38017278  1
  O  O195  1  0.38048474  0.38463240  0.87952782  1
  O  O196  1  0.37987571  0.88841518  0.36870810  1
  O  O197  1  0.38426516  0.87987483  0.88447553  1
  O  O198  1  0.88489122  0.38120545  0.37653466  1
  O  O199  1  0.88368436  0.38281706  0.86670571  1
  O  O200  1  0.87997251  0.87838835  0.38142773  1
  O  O201  1  0.88133255  0.88325589  0.88217511  1
  O  O202  1  0.25758451  -0.00060077  0.37018172  1
  O  O203  1  0.25253298  0.01412197  0.87372221  1
  O  O204  1  0.25528247  0.50435914  0.36773668  1
  O  O205  1  0.25936830  0.50135174  0.86618039  1
  O  O206  1  0.75678835  0.00071507  0.36920905  1
  O  O207  1  0.75815337  0.00080103  0.86813345  1
  O  O208  1  0.75613234  0.50473842  0.37057538  1
  O  O209  1  0.74940834  0.50672321  0.86783197  1
  O  O210  1  0.24533858  0.49539784  0.12926679  1
  O  O211  1  0.25725971  0.49749694  0.63883603  1
  O  O212  1  0.24404790  0.99454891  0.13054141  1
  O  O213  1  0.24376962  0.98755165  0.63048835  1
  O  O214  1  0.74678388  0.49497251  0.12837824  1
  O  O215  1  0.74492549  0.49418042  0.62828170  1
  O  O216  1  0.74468461  0.99536848  0.13003199  1
  O  O217  1  0.75292585  0.99832359  0.64259975  1
  O  O218  1  0.00577279  0.37734042  0.25898750  1
  O  O219  1  0.01316312  0.37720331  0.74654261  1
  O  O220  1  0.00850912  0.88257202  0.26040167  1
  O  O221  1  0.00654481  0.86869220  0.75541796  1
  O  O222  1  0.49827844  0.36192083  0.24569708  1
  O  O223  1  0.50494885  0.37041986  0.75359044  1
  O  O224  1  0.50798023  0.87516316  0.25462150  1
  O  O225  1  0.49563514  0.88338583  0.76864813  1
  O  O226  1  0.49332553  0.13098677  0.24306293  1
  O  O227  1  0.48908030  0.13123290  0.75115122  1
  O  O228  1  0.49338359  0.62657918  0.24167746  1
  O  O229  1  0.49918129  0.61642678  0.72922140  1
  O  O230  1  0.99116300  0.12353007  0.24582063  1
  O  O231  1  0.99990222  0.12494266  0.73780694  1
  O  O232  1  0.99565754  0.61540414  0.23714443  1
  O  O233  1  0.99710024  0.62837072  0.74578916  1
  O  O234  1  0.36324624  0.25872906  -0.00711640  1
  O  O235  1  0.36772245  0.25136721  0.50314143  1
  O  O236  1  0.36897322  0.75652253  0.00663281  1
  O  O237  1  0.36622280  0.75681010  0.48538794  1
  O  O238  1  0.86014540  0.24234200  0.00237198  1
  O  O239  1  0.86587280  0.24843554  0.51049523  1
  O  O240  1  0.87066922  0.75647645  0.00711747  1
  O  O241  1  0.87064575  0.75225383  0.50568685  1
  O  O242  1  0.13241839  0.24061882  0.49973356  1
  O  O243  1  0.13641232  0.24335806  0.99885370  1
  O  O244  1  0.12813280  0.73738659  0.49019994  1
  O  O245  1  0.13077843  0.74718903  0.99581955  1
  O  O246  1  0.63338965  0.24056222  0.50313434  1
  O  O247  1  0.63254386  0.24762297  0.99434021  1
  O  O248  1  0.63190585  0.74200885  0.49148925  1
  O  O249  1  0.63419305  0.74417056  0.99851714  1
  O  O250  1  0.50549951  0.23891466  0.13135997  1
  O  O251  1  0.49239185  0.24643151  0.63194848  1
  O  O252  1  0.49350180  0.74429423  0.12485610  1
  O  O253  1  0.50457399  0.73176347  0.61707547  1
  O  O254  1  0.99742779  0.24235155  0.12692324  1
  O  O255  1  0.99076935  0.24073489  0.62369339  1
  O  O256  1  0.99502434  0.73855720  0.11896513  1
  O  O257  1  0.99469704  0.74233777  0.63139223  1
  O  O258  1  -0.00017738  0.26280511  0.37580367  1
  O  O259  1  0.00376165  0.24984017  0.87149671  1
  O  O260  1  0.01204938  0.75440595  0.38110599  1
  O  O261  1  0.00472449  0.75548729  0.87142787  1
  O  O262  1  0.50063560  0.25002798  0.36246460  1
  O  O263  1  0.50493205  0.25782205  0.86927707  1
  O  O264  1  0.50882109  0.75623838  0.37202029  1
  O  O265  1  0.50237346  0.76994804  0.88369420  1
  O  O266  1  0.24084161  0.12981397  0.50099157  1
  O  O267  1  0.24773002  0.13201160  0.99507105  1
  O  O268  1  0.23987911  0.62013340  0.49340370  1
  O  O269  1  0.24416718  0.63278349  0.99882757  1
  O  O270  1  0.74239279  0.13124890  0.50173742  1
  O  O271  1  0.74162794  0.13532583  0.99955615  1
  O  O272  1  0.74615061  0.62813989  0.49360394  1
  O  O273  1  0.74662442  0.63015148  0.99513767  1
  O  O274  1  0.25272245  0.36841686  0.00249146  1
  O  O275  1  0.25407733  0.36532609  0.49974337  1
  O  O276  1  0.25429900  0.87142879  0.00639622  1
  O  O277  1  0.24688576  0.87517385  0.51707226  1
  O  O278  1  0.74438851  0.36666162  0.00901879  1
  O  O279  1  0.75050147  0.36432084  0.50643317  1
  O  O280  1  0.75621816  0.87191023  0.00613130  1
  O  O281  1  0.75796155  0.86560578  0.50011707  1
  O  O282  1  0.13236993  0.49434565  0.24431092  1
  O  O283  1  0.13435993  0.48861984  0.75584285  1
  O  O284  1  0.13064237  0.99468610  0.24594710  1
  O  O285  1  0.12438920  0.98627385  0.75077245  1
  O  O286  1  0.63285589  0.50148469  0.24170264  1
  O  O287  1  0.63095748  0.49365332  0.74289663  1
  O  O288  1  0.63010963  0.99667899  0.24562340  1
  O  O289  1  0.63882869  1.00633406  0.75308073  1
  O  O290  1  0.37026941  0.00867376  0.25601680  1
  O  O291  1  0.37178760  0.01566539  0.75317138  1
  O  O292  1  0.36998278  0.50507447  0.25339706  1
  O  O293  1  0.36738245  0.49867479  0.75834259  1
  O  O294  1  0.86961262  0.00794044  0.25580582  1
  O  O295  1  0.86903518  -0.00060402  0.76144590  1
  O  O296  1  0.86962517  0.50840246  0.25588445  1
  O  O297  1  0.86678476  0.50837750  0.74738088  1
  O  O298  1  0.11590848  0.37488494  0.36902944  1
  O  O299  1  0.11776957  0.37396764  0.86283933  1
  O  O300  1  0.12062330  0.86616916  0.37228074  1
  O  O301  1  0.12042467  0.87092559  0.86804770  1
  O  O302  1  0.62063801  0.36994325  0.36819933  1
  O  O303  1  0.61891192  0.37115845  0.86806974  1
  O  O304  1  0.62074928  0.86995190  0.36897322  1
  O  O305  1  0.61052290  0.87832163  0.88366374  1
  O  O306  1  0.38539506  0.11885700  0.13529485  1
  O  O307  1  0.37265183  0.13104345  0.63574402  1
  O  O308  1  0.38019202  0.63008468  0.12863321  1
  O  O309  1  0.38971457  0.61894627  0.62029052  1
  O  O310  1  0.88123921  0.12297857  0.13567670  1
  O  O311  1  0.88438687  0.13160027  0.62436768  1
  O  O312  1  0.88343588  0.63125951  0.13044706  1
  O  O313  1  0.88223013  0.63009773  0.63137506  1
  O  O314  1  0.24606317  0.25601249  0.11292211  1
  O  O315  1  0.25525047  0.25076198  0.61216634  1
  O  O316  1  0.25521400  0.75662421  0.11960720  1
  O  O317  1  0.24476292  0.76418423  0.62541161  1
  O  O318  1  0.75096372  0.25976246  0.11705146  1
  O  O319  1  0.75617107  0.25194812  0.61838778  1
  O  O320  1  0.75698169  0.75678524  0.11880816  1
  O  O321  1  0.75673829  0.74608141  0.61885842  1
  O  O322  1  0.24898036  0.24492141  0.38772498  1
  O  O323  1  0.24781202  0.24043441  0.88452129  1
  O  O324  1  0.23688632  0.74160067  0.37595899  1
  O  O325  1  0.24440829  0.75079330  0.88216002  1
  O  O326  1  0.75230101  0.24859884  0.38902395  1
  O  O327  1  0.74372263  0.25067406  0.88271443  1
  O  O328  1  0.74568370  0.74293400  0.38034184  1
  O  O329  1  0.75080645  0.74453002  0.88211266  1
  O  O330  1  0.00623182  0.11883983  0.00667604  1
  O  O331  1  0.00603274  0.11984663  0.50787835  1
  O  O332  1  0.00700373  0.61813209  0.01105472  1
  O  O333  1  0.00700022  0.61637776  0.50426060  1
  O  O334  1  0.50261666  0.12424107  0.00770092  1
  O  O335  1  0.50651175  0.11704508  0.49921668  1
  O  O336  1  0.50506359  0.62061774  0.00395541  1
  O  O337  1  0.50574505  0.61668575  0.50557788  1
  O  O338  1  0.49317912  0.37921912  0.49799499  1
  O  O339  1  0.49590569  0.38160047  0.99413941  1
  O  O340  1  0.49871527  0.88535803  0.49146381  1
  O  O341  1  0.49452138  0.88387702  0.99666546  1
  O  O342  1  1.00143765  0.38224235  0.49262952  1
  O  O343  1  1.00817705  0.39221234  1.00479552  1
  O  O344  1  0.99454012  0.87789097  0.49549338  1
  O  O345  1  0.99540276  0.88131420  0.99580547  1
  O  O346  1  0.49322066  0.49941231  0.37962027  1
  O  O347  1  0.49379560  0.49615162  0.87756982  1
  O  O348  1  0.49273643  0.99631437  0.38070618  1
  O  O349  1  0.49794559  0.99289467  0.88446554  1
  O  O350  1  0.99568565  0.49187344  0.38307560  1
  O  O351  1  1.00203272  0.50480363  0.89324510  1
  O  O352  1  0.99320375  0.99202220  0.38358843  1
  O  O353  1  0.99269303  0.99505680  0.88112990  1
  O  O354  1  0.00579259  0.00451583  0.11984408  1
  O  O355  1  -0.00107919  0.00823952  0.62023674  1
  O  O356  1  0.00660508  0.50901537  0.11625502  1
  O  O357  1  -0.00631664  0.50452411  0.61179179  1
  O  O358  1  0.50581840  0.01114224  0.12213377  1
  O  O359  1  0.49633467  0.00211881  0.61176457  1
  O  O360  1  0.50532787  0.50662352  0.11757859  1
  O  O361  1  0.50607375  0.50463578  0.61561558  1
  O  O362  1  0.24718906  0.37936969  0.24453635  1
  O  O363  1  0.23950377  0.38152481  0.74939774  1
  O  O364  1  0.24305969  0.88023380  0.24479937  1
  O  O365  1  0.24127492  0.87414340  0.74242320  1
  O  O366  1  0.74942007  0.38153670  0.24093904  1
  O  O367  1  0.74270388  0.37983217  0.74314692  1
  O  O368  1  0.74553756  0.88176921  0.24410744  1
  O  O369  1  0.75405396  0.88993710  0.75326976  1
  O  O370  1  0.25776313  0.11928900  0.24970931  1
  O  O371  1  0.25560430  0.12879692  0.75830975  1
  O  O372  1  0.25552869  0.61799454  0.25377997  1
  O  O373  1  0.25017721  0.61550363  0.75166510  1
  O  O374  1  0.75857872  0.12009171  0.25018211  1
  O  O375  1  0.75508361  0.11265459  0.75434048  1
  O  O376  1  0.75690394  0.61911626  0.25512022  1
  O  O377  1  0.75475912  0.61987564  0.75475896  1
  O  O378  1  0.37389231  0.11231384  0.36503950  1
  O  O379  1  0.36630242  0.12721917  0.86680506  1
  O  O380  1  0.36900305  0.61776499  0.36832357  1
  O  O381  1  0.37601680  0.61284971  0.87377181  1
  O  O382  1  0.87505431  0.11777064  0.36644323  1
  O  O383  1  0.87463697  0.11130864  0.87543744  1
  O  O384  1  0.87105468  0.62059116  0.37052935  1
  O  O385  1  0.86878178  0.62117795  0.86919849  1
  O  O386  1  0.13336001  0.38136471  0.13118906  1
  O  O387  1  0.12739451  0.37219124  0.63834485  1
  O  O388  1  0.12976698  0.88018533  0.13058750  1
  O  O389  1  0.12912920  0.87368372  0.63511629  1
  O  O390  1  0.63581095  0.38367762  0.12747947  1
  O  O391  1  0.62951778  0.37910385  0.62955160  1
  O  O392  1  0.63071791  0.88183611  0.12911629  1
  O  O393  1  0.62807004  0.88090095  0.61988351  1
  O  O394  1  0.12249531  0.25737895  0.25391494  1
  O  O395  1  0.12438500  0.26422297  0.75258794  1
  O  O396  1  0.12914604  0.75572608  0.26126680  1
  O  O397  1  0.11877239  0.75791015  0.75634991  1
  O  O398  1  0.61365966  0.24826743  0.25167011  1
  O  O399  1  0.61989067  0.25418408  0.75373500  1
  O  O400  1  0.62588955  0.75730362  0.25511014  1
  O  O401  1  0.61209943  0.74527785  0.75421759  1
  O  O402  1  0.38199027  0.23630460  0.25552628  1
  O  O403  1  0.37819415  0.24448295  0.74627174  1
  O  O404  1  0.37506165  0.74312469  0.24346582  1
  O  O405  1  0.38942096  0.74699858  0.75535087  1
  O  O406  1  0.87653618  0.23759874  0.24856464  1
  O  O407  1  0.87498444  0.24657376  0.73679458  1
  O  O408  1  0.86934900  0.74223131  0.24196323  1
  O  O409  1  0.88114925  0.74384579  0.74630202  1
  O  O410  1  0.37929696  0.49222874  0.49222101  1
  O  O411  1  0.38015149  0.49553388  0.98932550  1
  O  O412  1  0.38248871  1.00010871  0.49071237  1
  O  O413  1  0.38142857  0.99549107  1.00103638  1
  O  O414  1  0.88554311  0.49856962  0.49338526  1
  O  O415  1  0.89184210  0.50623139  1.00267234  1
  O  O416  1  0.87880229  0.99343501  0.49627466  1
  O  O417  1  0.87899633  0.99558620  0.99351605  1
  O  O418  1  0.12000971  0.00519358  0.00625517  1
  O  O419  1  0.11769808  0.00851212  0.50177900  1
  O  O420  1  0.11969697  0.50741049  0.00571388  1
  O  O421  1  0.11477692  0.51010899  0.49211964  1
  O  O422  1  0.61974551  0.00891468  0.00744087  1
  O  O423  1  0.61425023  0.00788745  0.49542868  1
  O  O424  1  0.61937013  0.50670903  0.00466681  1
  O  O425  1  0.62088828  0.50351955  0.50311462  1
  O  O426  1  0.36613929  0.38370290  0.11295131  1
  O  O427  1  0.37180686  0.36733999  0.61663239  1
  O  O428  1  0.36947792  0.87117116  0.12161422  1
  O  O429  1  0.35992396  0.87903244  0.62784226  1
  O  O430  1  0.86250990  0.37614264  0.13019885  1
  O  O431  1  0.86883044  0.36428438  0.62261222  1
  O  O432  1  0.87089861  0.87241659  0.12124559  1
  O  O433  1  0.87270953  0.86517133  0.61958465  1
  O  O434  1  0.12383617  0.12515576  0.38763680  1
  O  O435  1  0.13448043  0.12496382  0.88163397  1
  O  O436  1  0.12801861  0.62982976  0.38080899  1
  O  O437  1  0.12682361  0.63418843  0.88179595  1
  O  O438  1  0.62840537  0.12866973  0.38766926  1
  O  O439  1  0.62415650  0.13431321  0.88296583  1
  O  O440  1  0.63156897  0.62877435  0.37867776  1
  O  O441  1  0.63197670  0.62554336  0.88236777  1
