# generated using pymatgen
data_V93Zn93O256
_symmetry_space_group_name_H-M   'P 1'
_cell_length_a   17.04212041
_cell_length_b   17.04536846
_cell_length_c   17.04685445
_cell_angle_alpha   89.93289048
_cell_angle_beta   90.04302536
_cell_angle_gamma   89.95328013
_symmetry_Int_Tables_number   1
_chemical_formula_structural   V93Zn93O256
_chemical_formula_sum   'V93 Zn93 O256'
_cell_volume   4951.92103941
_cell_formula_units_Z   1
loop_
 _symmetry_equiv_pos_site_id
 _symmetry_equiv_pos_as_xyz
  1  'x, y, z'
loop_
 _atom_site_type_symbol
 _atom_site_label
 _atom_site_symmetry_multiplicity
 _atom_site_fract_x
 _atom_site_fract_y
 _atom_site_fract_z
 _atom_site_occupancy
  V  V0  1  0.87689548  0.62321177  0.75157670  1
  V  V1  1  0.12455505  -0.00132388  0.62358190  1
  V  V2  1  0.12655794  0.49985079  0.62672584  1
  V  V3  1  0.12362120  0.87581065  0.25058468  1
  V  V4  1  0.87501577  0.74799053  0.62572893  1
  V  V5  1  0.24499267  0.25232890  0.49463941  1
  V  V6  1  -0.00090109  0.12404363  0.62471943  1
  V  V7  1  0.87670287  0.24856525  0.62913673  1
  V  V8  1  0.00044007  0.74774897  0.75097927  1
  V  V9  1  0.62717716  0.50297190  0.62362351  1
  V  V10  1  0.24373103  0.24915082  -0.00608892  1
  V  V11  1  0.62503545  0.87374005  0.74925132  1
  V  V12  1  0.38009650  0.75098611  0.12833596  1
  V  V13  1  0.49734432  0.50208070  -0.00420352  1
  V  V14  1  0.49844035  0.37795789  0.87525849  1
  V  V15  1  0.37524826  0.37889928  -0.00331506  1
  V  V16  1  0.24694824  0.50185882  0.24650198  1
  V  V17  1  0.49882395  0.25038266  0.74926237  1
  V  V18  1  0.24756588  0.37908061  0.12472492  1
  V  V19  1  0.74963596  0.75022118  0.00143629  1
  V  V20  1  0.87515117  0.49949903  0.37592208  1
  V  V21  1  0.37389645  0.87484130  0.49904734  1
  V  V22  1  0.37525697  0.75064864  0.62463743  1
  V  V23  1  0.62598058  0.37547008  0.74974692  1
  V  V24  1  0.25401878  0.62220616  0.87583396  1
  V  V25  1  0.24472544  0.12844359  0.37229667  1
  V  V26  1  0.12422053  0.00461093  0.12137531  1
  V  V27  1  0.12618406  0.36833589  0.75457693  1
  V  V28  1  0.00788538  0.62134869  0.12560999  1
  V  V29  1  0.37087784  0.00311957  0.87428790  1
  V  V30  1  0.24951892  0.00252156  0.24838108  1
  V  V31  1  0.49943873  0.00107056  0.49862814  1
  V  V32  1  0.87471710  0.74867900  0.12567420  1
  V  V33  1  0.74719228  0.62556588  0.38152146  1
  V  V34  1  0.62419834  0.74927616  0.87548622  1
  V  V35  1  0.00205774  0.49803517  0.50055421  1
  V  V36  1  0.74991676  -0.00012635  0.75076105  1
  V  V37  1  0.61954709  0.86912800  0.24926770  1
  V  V38  1  0.24990354  0.87424652  0.62364740  1
  V  V39  1  0.25026099  0.00026490  0.74912052  1
  V  V40  1  0.37701084  0.24827588  0.62280971  1
  V  V41  1  0.87338823  -0.00109737  0.37418207  1
  V  V42  1  0.37570871  0.37761734  0.49721533  1
  V  V43  1  0.12400705  0.87343602  0.74846013  1
  V  V44  1  0.12444516  0.12706582  0.49778364  1
  V  V45  1  0.62612588  0.50099700  0.12587348  1
  V  V46  1  0.75155800  0.62430184  0.87549755  1
  V  V47  1  0.87529694  0.37453861  0.00118797  1
  V  V48  1  0.75015354  0.24933943  0.50152022  1
  V  V49  1  0.62552819  0.37601921  0.25038849  1
  V  V50  1  0.50378897  0.50460166  0.49986723  1
  V  V51  1  0.38158853  0.62852639  0.24929759  1
  V  V52  1  0.37295556  -0.00037085  0.37311718  1
  V  V53  1  0.49837087  0.87105628  0.37096421  1
  V  V54  1  0.49825269  0.87596756  0.87418117  1
  V  V55  1  0.74921421  0.87433808  0.12535965  1
  V  V56  1  0.87575267  0.62375497  0.25080265  1
  V  V57  1  0.12463515  0.74984327  0.37541948  1
  V  V58  1  0.62477300  0.25046218  0.37529722  1
  V  V59  1  0.62380685  -0.00004140  0.12443253  1
  V  V60  1  0.74961532  0.87371414  0.62505609  1
  V  V61  1  0.62498405  0.62523175  0.00083074  1
  V  V62  1  0.74982741  0.25068823  0.00074371  1
  V  V63  1  0.62372970  0.25081921  0.87527230  1
  V  V64  1  0.50276280  0.62542690  0.62334936  1
  V  V65  1  0.00495287  0.24921539  0.25459593  1
  V  V66  1  0.49869100  0.00240889  -0.00144776  1
  V  V67  1  0.00445422  0.36649302  0.87662776  1
  V  V68  1  0.62221031  0.12448349  0.49965717  1
  V  V69  1  0.25080419  0.62542066  0.37460825  1
  V  V70  1  0.12648347  0.37444706  0.25216167  1
  V  V71  1  0.25610191  0.49878666  0.75453392  1
  V  V72  1  0.87431878  0.12550599  0.25074491  1
  V  V73  1  -0.00083228  -0.00096327  0.49943155  1
  V  V74  1  0.24829416  0.75024830  -0.00050058  1
  V  V75  1  -0.00112775  -0.00040321  0.00023247  1
  V  V76  1  0.00354366  0.37214708  0.37535733  1
  V  V77  1  0.87447657  0.25058151  0.12651186  1
  V  V78  1  -0.00084755  0.87378900  0.87597181  1
  V  V79  1  0.74966143  0.12375494  0.37518045  1
  V  V80  1  0.62218085  0.74780249  0.37995982  1
  V  V81  1  0.49815953  0.24933190  0.24848470  1
  V  V82  1  0.12635220  0.62328418  0.49923670  1
  V  V83  1  0.87626023  0.49968070  0.87577152  1
  V  V84  1  0.87300779  0.87212358  0.49974190  1
  V  V85  1  0.37572917  0.62265049  0.75143041  1
  V  V86  1  0.00793467  0.49958317  0.00466167  1
  V  V87  1  0.24907460  0.87565913  0.12376765  1
  V  V88  1  0.49979390  0.74912838  0.74985646  1
  V  V89  1  0.62309916  0.12590599  0.00085326  1
  V  V90  1  0.74931001  0.12427111  0.87430910  1
  V  V91  1  -0.00116182  0.87330363  0.37415459  1
  V  V92  1  0.87644342  0.37297329  0.50107980  1
  Zn  Zn93  1  0.75148270  0.37506220  0.62723139  1
  Zn  Zn94  1  0.87703974  0.12320108  0.75178756  1
  Zn  Zn95  1  0.12900877  0.62051938  0.00323119  1
  Zn  Zn96  1  0.74615549  0.74604606  0.50363584  1
  Zn  Zn97  1  0.37438184  0.87611001  0.00042967  1
  Zn  Zn98  1  -0.00077035  0.12634557  0.12418955  1
  Zn  Zn99  1  0.25015483  0.74871900  0.50031391  1
  Zn  Zn100  1  0.37866589  0.50343073  0.37265791  1
  Zn  Zn101  1  0.50330701  0.63131311  0.12831109  1
  Zn  Zn102  1  0.12523054  0.74695051  0.87467984  1
  Zn  Zn103  1  0.75128931  0.37594836  0.12543204  1
  Zn  Zn104  1  0.37484856  0.24876776  0.12460301  1
  Zn  Zn105  1  0.50079990  0.37793182  0.37462217  1
  Zn  Zn106  1  0.37435916  0.12708885  0.24828872  1
  Zn  Zn107  1  0.62265630  0.00005958  0.62386273  1
  Zn  Zn108  1  0.74857604  -0.00053815  0.24930415  1
  Zn  Zn109  1  0.50124928  0.12289508  0.62619672  1
  Zn  Zn110  1  0.75204134  0.49823277  0.74966573  1
  Zn  Zn111  1  0.37484852  0.12609632  0.74912965  1
  Zn  Zn112  1  0.11697124  0.13563555  -0.01080002  1
  Zn  Zn113  1  0.25000623  0.37403960  0.62580094  1
  Zn  Zn114  1  0.00750721  0.24239714  0.75635518  1
  Zn  Zn115  1  0.00039146  0.74863239  0.24877175  1
  Zn  Zn116  1  0.49701573  0.12524906  0.12514735  1
  Zn  Zn117  1  0.87398383  0.00045340  0.87706328  1
  Zn  Zn118  1  0.75045938  0.49959082  0.25198433  1
  Zn  Zn119  1  -0.00014907  0.62373688  0.62604784  1
  Zn  Zn120  1  0.87365806  0.87451488  0.00129163  1
  Zn  Zn121  1  0.24129348  0.13350497  0.86536917  1
  Zn  Zn122  1  0.18739797  0.19101997  0.18242455  1
  Zn  Zn123  1  0.19061943  0.18566979  0.68194612  1
  Zn  Zn124  1  0.18943442  0.68969214  0.18931455  1
  Zn  Zn125  1  0.18795095  0.68714309  0.68791213  1
  Zn  Zn126  1  0.68704216  0.18692631  0.18665832  1
  Zn  Zn127  1  0.68636931  0.18627652  0.68632166  1
  Zn  Zn128  1  0.68911153  0.68703039  0.19236718  1
  Zn  Zn129  1  0.68907226  0.68501582  0.68856912  1
  Zn  Zn130  1  0.31400777  0.31436884  0.31386406  1
  Zn  Zn131  1  0.31536408  0.31554557  0.81343370  1
  Zn  Zn132  1  0.31003610  0.81222680  0.31127534  1
  Zn  Zn133  1  0.31285832  0.81290814  0.81233763  1
  Zn  Zn134  1  0.81300614  0.31206446  0.31363952  1
  Zn  Zn135  1  0.81339865  0.31316931  0.81328939  1
  Zn  Zn136  1  0.80907594  0.80995909  0.31049963  1
  Zn  Zn137  1  0.81368244  0.81135110  0.81310117  1
  Zn  Zn138  1  0.18964891  0.43899918  0.43324641  1
  Zn  Zn139  1  0.18787451  0.43680772  0.93558628  1
  Zn  Zn140  1  0.18724592  0.93828979  0.43708322  1
  Zn  Zn141  1  0.18574616  0.93760334  0.93616672  1
  Zn  Zn142  1  0.68930768  0.43679476  0.43904331  1
  Zn  Zn143  1  0.68781969  0.43757010  0.93741337  1
  Zn  Zn144  1  0.68646366  0.93633066  0.43699535  1
  Zn  Zn145  1  0.68562333  0.93720918  0.93763066  1
  Zn  Zn146  1  0.31507990  0.06611765  0.06309180  1
  Zn  Zn147  1  0.31223866  0.06325895  0.56025618  1
  Zn  Zn148  1  0.31451372  0.56401848  0.06464826  1
  Zn  Zn149  1  0.31348913  0.56314058  0.56469318  1
  Zn  Zn150  1  0.81196802  0.06302876  0.06413583  1
  Zn  Zn151  1  0.81060149  0.06106757  0.56287161  1
  Zn  Zn152  1  0.81529011  0.56236835  0.06263775  1
  Zn  Zn153  1  0.81370349  0.56146058  0.56327152  1
  Zn  Zn154  1  0.43658967  0.43934612  0.18379484  1
  Zn  Zn155  1  0.43894776  0.43559390  0.68404347  1
  Zn  Zn156  1  0.43685584  0.93814602  0.18650442  1
  Zn  Zn157  1  0.43729963  0.93820190  0.68669720  1
  Zn  Zn158  1  0.93789546  0.43796208  0.18796350  1
  Zn  Zn159  1  0.94050081  0.43524860  0.69023870  1
  Zn  Zn160  1  0.93614499  0.93660281  0.18781618  1
  Zn  Zn161  1  0.93583924  0.93599093  0.68723117  1
  Zn  Zn162  1  0.06171959  0.06229946  0.31219463  1
  Zn  Zn163  1  0.06481742  0.06235109  0.81314828  1
  Zn  Zn164  1  0.06357443  0.56054496  0.31198563  1
  Zn  Zn165  1  0.06521142  0.55971654  0.81630030  1
  Zn  Zn166  1  0.56229756  0.06065758  0.31170362  1
  Zn  Zn167  1  0.56138276  0.06420270  0.81146238  1
  Zn  Zn168  1  0.56349925  0.56379204  0.31487399  1
  Zn  Zn169  1  0.56440463  0.56230343  0.81123374  1
  Zn  Zn170  1  0.43644678  0.18739070  0.43316468  1
  Zn  Zn171  1  0.43313499  0.18945717  0.93760374  1
  Zn  Zn172  1  0.43837173  0.68881710  0.43680003  1
  Zn  Zn173  1  0.43542388  0.68718482  0.93886032  1
  Zn  Zn174  1  0.93678599  0.18717251  0.43749520  1
  Zn  Zn175  1  0.93390165  0.18463747  0.93873555  1
  Zn  Zn176  1  0.93824347  0.68604205  0.43857335  1
  Zn  Zn177  1  0.93770046  0.68681070  0.94043067  1
  Zn  Zn178  1  0.06288741  0.31581943  0.06891029  1
  Zn  Zn179  1  0.06308696  0.31286619  0.56674029  1
  Zn  Zn180  1  0.06263212  0.81108742  0.06396366  1
  Zn  Zn181  1  0.06082044  0.80969182  0.56175358  1
  Zn  Zn182  1  0.56261066  0.31373805  0.06411610  1
  Zn  Zn183  1  0.56273477  0.31539091  0.56258522  1
  Zn  Zn184  1  0.56171476  0.81599263  0.06001169  1
  Zn  Zn185  1  0.56161923  0.81412916  0.56026437  1
  O  O186  1  0.12342991  0.11359636  0.11987866  1
  O  O187  1  0.11935275  0.11795696  0.61740931  1
  O  O188  1  0.11187044  0.62988747  0.12562732  1
  O  O189  1  0.12528665  0.61381416  0.62063988  1
  O  O190  1  0.62277975  0.11829306  0.11800218  1
  O  O191  1  0.62167092  0.12263515  0.61503763  1
  O  O192  1  0.62348225  0.61866183  0.12146528  1
  O  O193  1  0.61850300  0.61289312  0.63141391  1
  O  O194  1  0.37725690  0.37943357  0.38678073  1
  O  O195  1  0.38216368  0.37489042  0.88804165  1
  O  O196  1  0.37777690  0.87921875  0.37836962  1
  O  O197  1  0.38027053  0.88517821  0.87540716  1
  O  O198  1  0.88173184  0.37955639  0.38128439  1
  O  O199  1  0.88441873  0.37950665  0.88106279  1
  O  O200  1  0.87871973  0.87868348  0.37894605  1
  O  O201  1  0.88761742  0.87580268  0.87757287  1
  O  O202  1  0.25324807  0.00809465  0.36877985  1
  O  O203  1  0.25864892  -0.00349370  0.86803315  1
  O  O204  1  0.25503870  0.50699560  0.36449229  1
  O  O205  1  0.24677795  0.50828181  0.86438972  1
  O  O206  1  0.75626254  0.00589893  0.37393746  1
  O  O207  1  0.74955092  0.00385964  0.86702380  1
  O  O208  1  0.75562663  0.50793564  0.37546343  1
  O  O209  1  0.75736613  0.50686355  0.87594418  1
  O  O210  1  0.25565620  0.49027221  0.13382169  1
  O  O211  1  0.24134899  0.49866760  0.63427857  1
  O  O212  1  0.24204915  0.99640230  0.12671696  1
  O  O213  1  0.24477303  0.99415695  0.62815337  1
  O  O214  1  0.73737676  0.49979090  0.12646848  1
  O  O215  1  0.73997108  0.49788060  0.62574760  1
  O  O216  1  0.74177542  0.99256288  0.12476999  1
  O  O217  1  0.74757157  0.99311011  0.63453483  1
  O  O218  1  0.00806887  0.36968557  0.25392994  1
  O  O219  1  0.00958667  0.37303134  0.76049178  1
  O  O220  1  0.00619029  0.87383993  0.25667484  1
  O  O221  1  0.00378255  0.86965781  0.75735906  1
  O  O222  1  0.50994969  0.36999687  0.25007229  1
  O  O223  1  0.50464629  0.37083664  0.75566283  1
  O  O224  1  0.51034618  0.88023731  0.25584178  1
  O  O225  1  0.50492669  0.86854916  0.75462502  1
  O  O226  1  0.49984493  0.13759164  0.25077548  1
  O  O227  1  0.49581352  0.13456663  0.74758432  1
  O  O228  1  0.48534779  0.61810751  0.24808526  1
  O  O229  1  0.49497878  0.62976555  0.74542593  1
  O  O230  1  0.99513353  0.13416341  0.24993213  1
  O  O231  1  0.99785683  0.12503324  0.74153223  1
  O  O232  1  0.99452193  0.62335567  0.24218637  1
  O  O233  1  0.99529906  0.62942538  0.75188830  1
  O  O234  1  0.36610514  0.26286644  0.00256105  1
  O  O235  1  0.36893918  0.25817621  0.50400376  1
  O  O236  1  0.36303826  0.75069837  0.00779718  1
  O  O237  1  0.37393764  0.75699569  0.50701447  1
  O  O238  1  0.87002648  0.25504735  0.00681115  1
  O  O239  1  0.87095965  0.25325967  0.50904333  1
  O  O240  1  0.86707900  0.75048867  0.00748895  1
  O  O241  1  0.87460127  0.75525138  0.50755328  1
  O  O242  1  0.13790262  0.24535256  0.50816766  1
  O  O243  1  0.13998957  0.25519800  1.00667833  1
  O  O244  1  0.12627493  0.74162376  0.49426948  1
  O  O245  1  0.13869835  0.74739271  1.00017793  1
  O  O246  1  0.62943374  0.24634502  0.49477626  1
  O  O247  1  0.62914195  0.24668265  0.99471605  1
  O  O248  1  0.62816624  0.75634640  0.48562991  1
  O  O249  1  0.62889828  0.74445059  0.99494820  1
  O  O250  1  0.50008144  0.25011370  0.13648172  1
  O  O251  1  0.49080534  0.25128911  0.62932888  1
  O  O252  1  0.48439522  0.75056711  0.11584522  1
  O  O253  1  0.49599050  0.74568340  0.63026607  1
  O  O254  1  0.99377231  0.24969579  0.13639109  1
  O  O255  1  0.99113615  0.24270127  0.62524241  1
  O  O256  1  0.99346187  0.74024506  0.12520932  1
  O  O257  1  0.99344255  0.74716589  0.63295426  1
  O  O258  1  -0.00607455  0.25603811  0.36291191  1
  O  O259  1  -0.00491832  0.26284207  0.87620110  1
  O  O260  1  0.00648435  0.75581465  0.37326164  1
  O  O261  1  0.00218382  0.75783241  0.87171645  1
  O  O262  1  0.50657606  0.25404878  0.36621788  1
  O  O263  1  0.50410786  0.25740253  0.86997120  1
  O  O264  1  0.50977648  0.75751211  0.37888043  1
  O  O265  1  0.50396860  0.75446874  0.87002452  1
  O  O266  1  0.24496827  0.13242973  0.49179790  1
  O  O267  1  0.25131986  0.14493481  1.00328181  1
  O  O268  1  0.24462504  0.62431794  0.49324387  1
  O  O269  1  0.25087532  0.62983669  0.99350643  1
  O  O270  1  0.74361272  0.12966441  0.49453175  1
  O  O271  1  0.74343429  0.13056143  0.99428194  1
  O  O272  1  0.75562577  0.62557000  0.48577125  1
  O  O273  1  0.74448828  0.63022575  0.99534974  1
  O  O274  1  0.25561108  0.37246775  0.00537780  1
  O  O275  1  0.25737023  0.36872334  0.49867589  1
  O  O276  1  0.25038025  0.86642931  0.00481411  1
  O  O277  1  0.25594065  0.87427519  0.50585032  1
  O  O278  1  0.75696275  0.36825671  0.00041369  1
  O  O279  1  0.75837235  0.36670096  0.50217679  1
  O  O280  1  0.74899612  0.86770767  0.00647597  1
  O  O281  1  0.75660755  0.87404360  0.50707894  1
  O  O282  1  0.13888861  0.49200878  0.25304613  1
  O  O283  1  0.13392239  0.49272834  0.74376275  1
  O  O284  1  0.12877732  0.99649840  0.24017496  1
  O  O285  1  0.12972402  0.99225499  0.74149249  1
  O  O286  1  0.62360937  0.49272219  0.24229003  1
  O  O287  1  0.62533373  0.49357824  0.74069683  1
  O  O288  1  0.62624604  0.98995471  0.24354060  1
  O  O289  1  0.63379320  0.99304094  0.75046537  1
  O  O290  1  0.36627308  0.00100165  0.25551731  1
  O  O291  1  0.36929327  0.00014424  0.75809986  1
  O  O292  1  0.36571916  0.50808118  0.24957129  1
  O  O293  1  0.36311390  0.50446421  0.74024102  1
  O  O294  1  0.87333426  0.00698892  0.25628725  1
  O  O295  1  0.86114879  -0.00077470  0.75154372  1
  O  O296  1  0.87349010  0.50428586  0.25832950  1
  O  O297  1  0.87587200  0.50454435  0.75754179  1
  O  O298  1  0.12060609  0.37824920  0.36150161  1
  O  O299  1  0.11594077  0.38008520  0.86551216  1
  O  O300  1  0.11911400  0.87138895  0.37063485  1
  O  O301  1  0.11399199  0.87365025  0.86792021  1
  O  O302  1  0.62480805  0.37008420  0.36584611  1
  O  O303  1  0.61886422  0.36976233  0.87044108  1
  O  O304  1  0.61998067  0.86860267  0.36696256  1
  O  O305  1  0.61863035  0.86820484  0.86908431  1
  O  O306  1  0.37902177  0.13053724  0.13098479  1
  O  O307  1  0.37730870  0.13818540  0.62216361  1
  O  O308  1  0.37612491  0.63405992  0.13283649  1
  O  O309  1  0.38137148  0.63148745  0.63177479  1
  O  O310  1  0.87619205  0.13188052  0.13297056  1
  O  O311  1  0.88028912  0.13300305  0.62451420  1
  O  O312  1  0.88276453  0.62914338  0.13107364  1
  O  O313  1  0.87730057  0.62907175  0.63280640  1
  O  O314  1  0.25281050  0.26397570  0.11701682  1
  O  O315  1  0.26040092  0.25193221  0.61273218  1
  O  O316  1  0.25686972  0.75465159  0.11733994  1
  O  O317  1  0.25697523  0.75614533  0.62422793  1
  O  O318  1  0.75564849  0.25182381  0.11812845  1
  O  O319  1  0.76036993  0.24965831  0.61971865  1
  O  O320  1  0.75395962  0.75384400  0.12026637  1
  O  O321  1  0.75609367  0.75482313  0.62489218  1
  O  O322  1  0.25558241  0.24163627  0.38470011  1
  O  O323  1  0.25449519  0.25391858  0.89051400  1
  O  O324  1  0.24235408  0.74354689  0.37673928  1
  O  O325  1  0.24984029  0.74335622  0.88322840  1
  O  O326  1  0.74535073  0.24380150  0.38169254  1
  O  O327  1  0.74378160  0.24489629  0.88047142  1
  O  O328  1  0.74242678  0.74204475  0.37762209  1
  O  O329  1  0.74407717  0.74477169  0.88082090  1
  O  O330  1  0.00006273  0.11383345  0.00261982  1
  O  O331  1  0.00496200  0.11895700  0.50358736  1
  O  O332  1  0.00208486  0.61636436  0.00755225  1
  O  O333  1  0.00808714  0.61519420  0.50182272  1
  O  O334  1  0.50586008  0.12059790  -0.00133947  1
  O  O335  1  0.50479698  0.11866125  0.49712185  1
  O  O336  1  0.50550162  0.61725352  0.00092224  1
  O  O337  1  0.49216810  0.61252469  0.50739260  1
  O  O338  1  0.49106441  0.38465132  0.49958516  1
  O  O339  1  0.49396624  0.38209504  0.99671485  1
  O  O340  1  0.49256275  0.88137308  0.49229293  1
  O  O341  1  0.49770266  0.88367954  0.99099962  1
  O  O342  1  0.99719994  0.37810120  0.49498189  1
  O  O343  1  0.99672582  0.38048815  0.99606783  1
  O  O344  1  0.99372994  0.87993622  0.49433569  1
  O  O345  1  1.00050290  0.88152934  0.99232452  1
  O  O346  1  0.49918982  0.49954832  0.38654471  1
  O  O347  1  0.50904631  0.49478475  0.88869565  1
  O  O348  1  0.49243568  0.99308794  0.37888943  1
  O  O349  1  0.49082241  0.99628851  0.87781831  1
  O  O350  1  0.99587898  0.49250875  0.38104221  1
  O  O351  1  0.99530958  0.49112747  0.88463544  1
  O  O352  1  0.99400739  0.99395826  0.38042064  1
  O  O353  1  0.99881114  0.99005746  0.88342348  1
  O  O354  1  0.00783346  -0.00130058  0.11706363  1
  O  O355  1  0.00407461  0.00324092  0.61848955  1
  O  O356  1  -0.00642471  0.50910431  0.11541678  1
  O  O357  1  0.01165731  0.49925154  0.62056341  1
  O  O358  1  0.50574387  0.00058291  0.11639559  1
  O  O359  1  0.50081953  0.00178451  0.61526086  1
  O  O360  1  0.51164894  0.50147449  0.11486364  1
  O  O361  1  0.50758313  0.50495044  0.61905584  1
  O  O362  1  0.24623635  0.38061270  0.24490514  1
  O  O363  1  0.24401986  0.38343919  0.75119212  1
  O  O364  1  0.24298975  0.88300390  0.24405112  1
  O  O365  1  0.24413340  0.87961989  0.74322192  1
  O  O366  1  0.73751049  0.37600080  0.24884482  1
  O  O367  1  0.74183266  0.37762057  0.74891369  1
  O  O368  1  0.73903665  0.87696723  0.24333306  1
  O  O369  1  0.74493584  0.88069769  0.74660953  1
  O  O370  1  0.24731702  0.12251600  0.25740994  1
  O  O371  1  0.25421308  0.11654552  0.74751736  1
  O  O372  1  0.25668064  0.61749824  0.25263708  1
  O  O373  1  0.25505601  0.61796105  0.75643945  1
  O  O374  1  0.75573734  0.12484990  0.25778279  1
  O  O375  1  0.74800929  0.11481068  0.75545196  1
  O  O376  1  0.75807266  0.62225903  0.26128482  1
  O  O377  1  0.75826736  0.62262177  0.75876235  1
  O  O378  1  0.36134057  0.11881159  0.37285308  1
  O  O379  1  0.36831029  0.11405983  0.87339515  1
  O  O380  1  0.36908948  0.62738259  0.36527438  1
  O  O381  1  0.36278788  0.62972355  0.86775971  1
  O  O382  1  0.86946048  0.11895472  0.37095535  1
  O  O383  1  0.86529733  0.12166920  0.87150873  1
  O  O384  1  0.86961820  0.61912697  0.37041247  1
  O  O385  1  0.87088615  0.61983754  0.87155985  1
  O  O386  1  0.13603836  0.37504520  0.13880617  1
  O  O387  1  0.12708775  0.38563399  0.63384080  1
  O  O388  1  0.12918808  0.88408544  0.12995531  1
  O  O389  1  0.12921367  0.87962738  0.62804501  1
  O  O390  1  0.62676739  0.38420135  0.13297445  1
  O  O391  1  0.62571633  0.38443711  0.63206927  1
  O  O392  1  0.62809542  0.87829002  0.13163323  1
  O  O393  1  0.63092007  0.87519140  0.63223978  1
  O  O394  1  0.11436343  0.25864916  0.24478094  1
  O  O395  1  0.12715559  0.26480083  0.73932812  1
  O  O396  1  0.12440654  0.75825844  0.25677942  1
  O  O397  1  0.11881565  0.75629593  0.75032919  1
  O  O398  1  0.61854701  0.25816034  0.25403155  1
  O  O399  1  0.61927033  0.25554587  0.75530541  1
  O  O400  1  0.62876221  0.76208403  0.25888562  1
  O  O401  1  0.61899302  0.75330158  0.75627909  1
  O  O402  1  0.38703083  0.25304347  0.25019503  1
  O  O403  1  0.37875968  0.25302924  0.73876245  1
  O  O404  1  0.36571171  0.74058582  0.23884362  1
  O  O405  1  0.38107870  0.74460162  0.74430062  1
  O  O406  1  0.88305745  0.24626276  0.24602050  1
  O  O407  1  0.87760338  0.24835554  0.73855250  1
  O  O408  1  0.87707279  0.74190163  0.24349981  1
  O  O409  1  0.88101912  0.74350586  0.74581381  1
  O  O410  1  0.38301632  0.49172573  0.50286890  1
  O  O411  1  0.38736791  0.49246459  1.00779286  1
  O  O412  1  0.37844181  0.99435192  0.49263359  1
  O  O413  1  0.37830088  0.99927058  0.99023977  1
  O  O414  1  0.88242707  0.49265103  0.49657104  1
  O  O415  1  0.88418950  0.49402032  0.99527993  1
  O  O416  1  0.88013513  0.99327604  0.49473800  1
  O  O417  1  0.88648354  0.99622664  1.00101254  1
  O  O418  1  0.11568237  -0.00239542  0.00858371  1
  O  O419  1  0.11864528  0.00539249  0.50490476  1
  O  O420  1  0.11176064  0.49943026  -0.00282618  1
  O  O421  1  0.12286777  0.50192922  0.50800346  1
  O  O422  1  0.61843625  0.00598639  0.00354291  1
  O  O423  1  0.61698866  0.00578384  0.49869239  1
  O  O424  1  0.61887270  0.50458929  0.00796182  1
  O  O425  1  0.61413461  0.49121249  0.51081554  1
  O  O426  1  0.36633496  0.37431637  0.11481024  1
  O  O427  1  0.37321162  0.36618517  0.61394997  1
  O  O428  1  0.36705099  0.86781025  0.12430653  1
  O  O429  1  0.36961618  0.86984053  0.61950812  1
  O  O430  1  0.87332013  0.36931957  0.11964780  1
  O  O431  1  0.87693161  0.36517293  0.62007156  1
  O  O432  1  0.86770233  0.86727341  0.12510082  1
  O  O433  1  0.86930093  0.86792220  0.62026702  1
  O  O434  1  0.13690720  0.11882337  0.38133438  1
  O  O435  1  0.13065181  0.12137938  0.87914296  1
  O  O436  1  0.13078277  0.62888207  0.37908988  1
  O  O437  1  0.14001714  0.62691289  0.87728680  1
  O  O438  1  0.63029856  0.13078340  0.37960785  1
  O  O439  1  0.62943376  0.13171725  0.88076069  1
  O  O440  1  0.63484582  0.63603735  0.36618859  1
  O  O441  1  0.63066557  0.63049237  0.88048059  1
