# generated using pymatgen
data_V93Zn93O256
_symmetry_space_group_name_H-M   'P 1'
_cell_length_a   17.04900194
_cell_length_b   17.04731008
_cell_length_c   17.04820595
_cell_angle_alpha   89.97010365
_cell_angle_beta   90.02174427
_cell_angle_gamma   90.03777637
_symmetry_Int_Tables_number   1
_chemical_formula_structural   V93Zn93O256
_chemical_formula_sum   'V93 Zn93 O256'
_cell_volume   4954.88203836
_cell_formula_units_Z   1
loop_
 _symmetry_equiv_pos_site_id
 _symmetry_equiv_pos_as_xyz
  1  'x, y, z'
loop_
 _atom_site_type_symbol
 _atom_site_label
 _atom_site_symmetry_multiplicity
 _atom_site_fract_x
 _atom_site_fract_y
 _atom_site_fract_z
 _atom_site_occupancy
  V  V0  1  0.87468589  0.75009546  0.62412907  1
  V  V1  1  0.75271487  0.37962089  0.62927935  1
  V  V2  1  0.87643389  0.12391764  0.74897012  1
  V  V3  1  -0.00106647  0.87414352  0.87496754  1
  V  V4  1  0.12677077  0.24644450  0.87659291  1
  V  V5  1  0.12569050  0.87328671  0.75067859  1
  V  V6  1  0.62673600  0.25090407  0.37530678  1
  V  V7  1  0.12433467  0.74200670  0.87871674  1
  V  V8  1  0.37455050  0.25011946  0.12677791  1
  V  V9  1  0.75220231  0.00389297  0.24839333  1
  V  V10  1  0.50059760  0.37547172  0.87643612  1
  V  V11  1  0.49947680  0.75193143  0.24938734  1
  V  V12  1  0.50178206  0.12558213  0.62472218  1
  V  V13  1  0.37493814  0.37441458  0.50078761  1
  V  V14  1  0.74983479  0.87475349  0.62395598  1
  V  V15  1  0.12388807  0.37406653  0.24995410  1
  V  V16  1  0.87427229  0.74921506  0.12489732  1
  V  V17  1  0.24959983  0.49920752  0.25057542  1
  V  V18  1  -0.00267873  0.24565170  0.25112833  1
  V  V19  1  -0.00004363  0.62471834  0.62399259  1
  V  V20  1  0.75102911  0.12552903  0.87468181  1
  V  V21  1  0.62634128  0.37593917  0.24961002  1
  V  V22  1  0.62283710  0.62668177  0.00054252  1
  V  V23  1  0.25093013  0.62463799  0.37522845  1
  V  V24  1  0.00082473  0.49927405  0.49937469  1
  V  V25  1  -0.00130546  0.74694563  0.24836312  1
  V  V26  1  0.12612048  0.12438047  0.50109831  1
  V  V27  1  0.62817427  0.50156923  0.62951034  1
  V  V28  1  0.00386194  0.50612932  -0.00309767  1
  V  V29  1  0.37693052  0.12166437  0.25506682  1
  V  V30  1  0.62283167  0.87641668  0.75054973  1
  V  V31  1  -0.00051686  0.87494915  0.37412005  1
  V  V32  1  0.12485165  0.75058727  0.37415068  1
  V  V33  1  0.87421239  0.87584123  -0.00170290  1
  V  V34  1  0.49600336  0.89277402  0.87810803  1
  V  V35  1  0.25078498  0.87370659  0.62571455  1
  V  V36  1  0.62615297  0.75031544  0.37563536  1
  V  V37  1  0.12477776  0.62409171  0.50053024  1
  V  V38  1  0.37647450  0.25123202  0.62562898  1
  V  V39  1  0.25432750  -0.00145316  0.75309547  1
  V  V40  1  0.75082583  0.25148944  0.49977084  1
  V  V41  1  0.37454193  0.74996256  0.62400134  1
  V  V42  1  0.62830065  0.37711540  0.75040469  1
  V  V43  1  0.49910274  0.62715890  0.12485287  1
  V  V44  1  0.62461569  0.00075748  0.62372730  1
  V  V45  1  0.62636265  0.25072737  0.87536991  1
  V  V46  1  0.24987596  0.37340902  0.12497870  1
  V  V47  1  0.37478815  0.75023725  0.12438773  1
  V  V48  1  0.24989377  0.49851550  0.75000344  1
  V  V49  1  0.75110786  0.25036952  0.00046981  1
  V  V50  1  0.00027230  0.37503049  0.37525399  1
  V  V51  1  0.12538401  -0.00102150  0.62527999  1
  V  V52  1  0.87466692  0.24532942  0.12810319  1
  V  V53  1  0.87378788  0.87493025  0.49933664  1
  V  V54  1  0.61849276  0.00178184  0.12161587  1
  V  V55  1  0.00098083  0.12419303  0.62497635  1
  V  V56  1  0.49445083  0.00120220  0.49668874  1
  V  V57  1  0.12453637  0.50623748  0.11959448  1
  V  V58  1  0.75005091  0.37770419  0.12572692  1
  V  V59  1  0.74847258  0.75068900  -0.00003731  1
  V  V60  1  -0.00163062  0.74777068  0.74929834  1
  V  V61  1  0.37574281  0.12169168  0.75268244  1
  V  V62  1  0.37513969  0.50041788  0.37524060  1
  V  V63  1  0.87540702  -0.00148715  0.87464369  1
  V  V64  1  0.61982745  0.75220009  0.87455775  1
  V  V65  1  0.24606524  0.74364865  -0.00036984  1
  V  V66  1  0.00094987  0.24770703  0.75045993  1
  V  V67  1  0.74861915  0.87715099  0.12356091  1
  V  V68  1  0.75011789  0.00054174  0.74865667  1
  V  V69  1  0.25143454  0.24893686  0.50077414  1
  V  V70  1  0.25030853  0.24818227  0.00088341  1
  V  V71  1  0.61844257  0.12248030  0.00045672  1
  V  V72  1  0.25036381  0.75019120  0.50015691  1
  V  V73  1  0.87565744  0.00280042  0.37197692  1
  V  V74  1  0.49805359  0.49971141  0.00088056  1
  V  V75  1  0.25521965  0.11798883  0.87677124  1
  V  V76  1  0.50066908  0.25079401  0.75044467  1
  V  V77  1  0.37411094  0.62519067  0.75367415  1
  V  V78  1  0.74998765  0.61842176  0.86810293  1
  V  V79  1  0.50021463  0.62571558  0.62533660  1
  V  V80  1  0.50105449  0.37573828  0.37506653  1
  V  V81  1  0.25293073  0.12018135  0.37657043  1
  V  V82  1  0.49341389  0.88019710  0.37446116  1
  V  V83  1  -0.00048662  0.12293401  0.12595653  1
  V  V84  1  0.87685556  0.37592326  0.50004479  1
  V  V85  1  0.12638770  0.37379000  0.75005587  1
  V  V86  1  0.50012052  0.24929925  0.25053470  1
  V  V87  1  0.75371890  0.12660023  0.37185322  1
  V  V88  1  0.50057449  0.50091102  0.50106965  1
  V  V89  1  0.24800168  0.87571445  0.12411880  1
  V  V90  1  -0.00092573  0.37368490  0.87721966  1
  V  V91  1  0.25228178  -0.00156971  0.25220595  1
  V  V92  1  0.37706757  0.88601044  -0.00459373  1
  Zn  Zn93  1  0.62575219  0.12536705  0.49959365  1
  Zn  Zn94  1  0.75208874  0.62292995  0.37429565  1
  Zn  Zn95  1  0.62565593  0.50269054  0.12695049  1
  Zn  Zn96  1  0.12526460  0.49763085  0.62445270  1
  Zn  Zn97  1  0.00114546  -0.00029039  0.00077676  1
  Zn  Zn98  1  0.87325441  0.50288996  0.37100129  1
  Zn  Zn99  1  0.00064460  0.00077248  0.49852163  1
  Zn  Zn100  1  0.49684997  0.12273090  0.12239256  1
  Zn  Zn101  1  0.24592888  0.62050252  0.88016345  1
  Zn  Zn102  1  0.12277290  0.00018657  0.12429739  1
  Zn  Zn103  1  0.12524643  0.11964286  0.00037396  1
  Zn  Zn104  1  0.49697852  0.75348572  0.74925130  1
  Zn  Zn105  1  0.24935686  0.37348309  0.62503870  1
  Zn  Zn106  1  0.87522497  0.24924708  0.62498356  1
  Zn  Zn107  1  0.12525186  0.24858138  0.37560313  1
  Zn  Zn108  1  0.37539967  0.62504760  0.25037234  1
  Zn  Zn109  1  0.62760437  0.62588596  0.49954602  1
  Zn  Zn110  1  0.74913275  0.74825333  0.49860042  1
  Zn  Zn111  1  0.87538083  0.37619286  0.00053452  1
  Zn  Zn112  1  0.87043586  0.62133662  0.24804130  1
  Zn  Zn113  1  0.62309941  0.87793618  0.24926113  1
  Zn  Zn114  1  -0.00029217  0.62579162  0.11954256  1
  Zn  Zn115  1  0.37216077  0.87945107  0.49787623  1
  Zn  Zn116  1  0.37511937  0.37354065  -0.00041138  1
  Zn  Zn117  1  0.86954171  0.49432419  0.87091080  1
  Zn  Zn118  1  0.86911130  0.61657618  0.74286322  1
  Zn  Zn119  1  0.37306497  0.49764616  0.87629806  1
  Zn  Zn120  1  0.75076807  0.50333620  0.25254677  1
  Zn  Zn121  1  0.12501888  0.87604606  0.25040897  1
  Zn  Zn122  1  0.18468759  0.18662281  0.18796200  1
  Zn  Zn123  1  0.18884543  0.18679852  0.68861226  1
  Zn  Zn124  1  0.18702414  0.68705414  0.18913415  1
  Zn  Zn125  1  0.18647562  0.68624976  0.68854206  1
  Zn  Zn126  1  0.68744524  0.18749222  0.18804211  1
  Zn  Zn127  1  0.68830918  0.19001583  0.68632018  1
  Zn  Zn128  1  0.68623164  0.68842545  0.19012350  1
  Zn  Zn129  1  0.68595711  0.69045439  0.68716001  1
  Zn  Zn130  1  0.31185228  0.31066115  0.31394952  1
  Zn  Zn131  1  0.31421088  0.31077612  0.81492716  1
  Zn  Zn132  1  0.31434497  0.81163941  0.31254218  1
  Zn  Zn133  1  0.31301872  0.81212322  0.81505486  1
  Zn  Zn134  1  0.81530786  0.31583550  0.31175072  1
  Zn  Zn135  1  0.81451357  0.31101870  0.80989183  1
  Zn  Zn136  1  0.81134774  0.81492726  0.30955324  1
  Zn  Zn137  1  0.81102978  0.80933060  0.81015097  1
  Zn  Zn138  1  0.18655421  0.43598332  0.43717159  1
  Zn  Zn139  1  0.18705763  0.43494672  0.93747022  1
  Zn  Zn140  1  0.18676404  0.93721259  0.43794892  1
  Zn  Zn141  1  0.18480625  0.93531617  0.94019708  1
  Zn  Zn142  1  0.68934728  0.43996767  0.43975955  1
  Zn  Zn143  1  0.68400175  0.43778186  0.94204843  1
  Zn  Zn144  1  0.68321943  0.93577922  0.43805247  1
  Zn  Zn145  1  0.68605766  0.93881845  0.93697443  1
  Zn  Zn146  1  0.31207749  0.06410270  0.06629627  1
  Zn  Zn147  1  0.31374338  0.06276639  0.56707262  1
  Zn  Zn148  1  0.31407095  0.56151235  0.06492356  1
  Zn  Zn149  1  0.31231400  0.56221820  0.56422872  1
  Zn  Zn150  1  0.81224167  0.06360903  0.06089904  1
  Zn  Zn151  1  0.81308132  0.06261516  0.55955539  1
  Zn  Zn152  1  0.81684879  0.56263612  0.05657603  1
  Zn  Zn153  1  0.81265906  0.56434270  0.55563204  1
  Zn  Zn154  1  0.43716769  0.43738277  0.18782115  1
  Zn  Zn155  1  0.43875556  0.43810627  0.68836075  1
  Zn  Zn156  1  0.43483723  0.93634473  0.18659952  1
  Zn  Zn157  1  0.43759209  0.93740448  0.68773529  1
  Zn  Zn158  1  0.93700277  0.43660545  0.18662558  1
  Zn  Zn159  1  0.93650438  0.44092095  0.68950081  1
  Zn  Zn160  1  0.93548207  0.93506331  0.18880468  1
  Zn  Zn161  1  0.93872851  0.93678470  0.68732511  1
  Zn  Zn162  1  0.06595073  0.06251156  0.31088578  1
  Zn  Zn163  1  0.06550401  0.06039011  0.81289645  1
  Zn  Zn164  1  0.06192760  0.56201706  0.31207858  1
  Zn  Zn165  1  0.05977661  0.56037927  0.80884659  1
  Zn  Zn166  1  0.56609616  0.06253287  0.31293126  1
  Zn  Zn167  1  0.56478340  0.06562954  0.81077855  1
  Zn  Zn168  1  0.56478596  0.56402224  0.30993363  1
  Zn  Zn169  1  0.56123695  0.56301134  0.81245953  1
  Zn  Zn170  1  0.43844982  0.18731787  0.43788365  1
  Zn  Zn171  1  0.43602153  0.18808194  0.93740098  1
  Zn  Zn172  1  0.43920099  0.68873641  0.43799000  1
  Zn  Zn173  1  0.43355101  0.69152205  0.93944268  1
  Zn  Zn174  1  0.93728364  0.18832607  0.43925630  1
  Zn  Zn175  1  0.93724829  0.18688439  0.94084268  1
  Zn  Zn176  1  0.93495536  0.68607026  0.43606409  1
  Zn  Zn177  1  0.93512990  0.68807815  0.93737285  1
  Zn  Zn178  1  0.06481949  0.31245477  0.06194057  1
  Zn  Zn179  1  0.06429224  0.31105363  0.56397608  1
  Zn  Zn180  1  0.06200618  0.81263272  0.06126406  1
  Zn  Zn181  1  0.06114404  0.81256241  0.56072131  1
  Zn  Zn182  1  0.56273806  0.31071909  0.06410630  1
  Zn  Zn183  1  0.56471309  0.31400712  0.56192509  1
  Zn  Zn184  1  0.56006088  0.81665233  0.06019258  1
  Zn  Zn185  1  0.56072655  0.81385763  0.56006493  1
  O  O186  1  0.11327956  0.12381170  0.12307284  1
  O  O187  1  0.12140425  0.11850500  0.62124266  1
  O  O188  1  0.12302770  0.60977711  0.12954107  1
  O  O189  1  0.11851381  0.62440920  0.61762755  1
  O  O190  1  0.62508458  0.11938390  0.11684659  1
  O  O191  1  0.61933275  0.11956213  0.62438468  1
  O  O192  1  0.61669575  0.62623834  0.11694511  1
  O  O193  1  0.61964005  0.61668631  0.62709190  1
  O  O194  1  0.38106230  0.37993076  0.38049316  1
  O  O195  1  0.38535525  0.37597070  0.87847325  1
  O  O196  1  0.38844429  0.87138894  0.37774259  1
  O  O197  1  0.38519181  0.86925275  0.88271899  1
  O  O198  1  0.88385362  0.37465548  0.38336780  1
  O  O199  1  0.88816635  0.37125048  0.87609717  1
  O  O200  1  0.87899616  0.88365900  0.37918442  1
  O  O201  1  0.87855249  0.87836952  0.87805205  1
  O  O202  1  0.24723125  0.00962325  0.36639407  1
  O  O203  1  0.24348951  0.00999631  0.86936543  1
  O  O204  1  0.25513904  0.50460269  0.37029544  1
  O  O205  1  0.25100076  0.50194172  0.86558051  1
  O  O206  1  0.75446653  0.00619721  0.36832740  1
  O  O207  1  0.75462096  0.00551020  0.86797289  1
  O  O208  1  0.75300356  0.50110594  0.37192186  1
  O  O209  1  0.74536696  0.51577468  0.88184628  1
  O  O210  1  0.24367008  0.49435483  0.12938582  1
  O  O211  1  0.24897950  0.49654034  0.63768701  1
  O  O212  1  0.24946730  0.99084917  0.13424952  1
  O  O213  1  0.24418472  0.99382216  0.63151302  1
  O  O214  1  0.74976677  0.48584019  0.11976175  1
  O  O215  1  0.74045947  0.48965561  0.61818280  1
  O  O216  1  0.74517702  0.99873764  0.13234925  1
  O  O217  1  0.74501357  0.99538619  0.62956704  1
  O  O218  1  0.00524548  0.36541592  0.25417060  1
  O  O219  1  0.00646540  0.36820668  0.75888262  1
  O  O220  1  0.00203518  0.86480509  0.25470476  1
  O  O221  1  0.00549959  0.86761927  0.75503104  1
  O  O222  1  0.50523505  0.36911574  0.25586569  1
  O  O223  1  0.50716784  0.36948204  0.75585515  1
  O  O224  1  0.49973932  0.87169158  0.25754757  1
  O  O225  1  0.50455259  0.87451098  0.76029640  1
  O  O226  1  0.49087349  0.12992770  0.25354588  1
  O  O227  1  0.49616681  0.13145983  0.74537807  1
  O  O228  1  0.49810626  0.63302095  0.24218021  1
  O  O229  1  0.48930956  0.62608193  0.74457586  1
  O  O230  1  1.00585516  0.13690461  0.24190080  1
  O  O231  1  0.99618018  0.12808749  0.74543514  1
  O  O232  1  1.00050018  0.63917258  0.24757494  1
  O  O233  1  0.99998745  0.63255440  0.74175341  1
  O  O234  1  0.36912556  0.24946747  0.00937768  1
  O  O235  1  0.37158868  0.25489248  0.50561442  1
  O  O236  1  0.36469928  0.75929895  0.00558254  1
  O  O237  1  0.36735677  0.75041555  0.50713602  1
  O  O238  1  0.86887828  0.25230361  0.00982769  1
  O  O239  1  0.86890097  0.25726692  0.50316174  1
  O  O240  1  0.86825759  0.75679834  0.00463898  1
  O  O241  1  0.87437698  0.75884059  0.50642758  1
  O  O242  1  0.13349960  0.24167561  0.49967458  1
  O  O243  1  0.13306686  0.24680002  0.99391731  1
  O  O244  1  0.13054401  0.74437083  0.49383221  1
  O  O245  1  0.13404308  0.75622972  0.99036959  1
  O  O246  1  0.63254808  0.25038727  0.49233069  1
  O  O247  1  0.63129932  0.24219092  0.99507288  1
  O  O248  1  0.62461286  0.75044603  0.48892925  1
  O  O249  1  0.62831623  0.74698656  0.99196004  1
  O  O250  1  0.49393113  0.24743518  0.13366349  1
  O  O251  1  0.49721394  0.24596187  0.63054127  1
  O  O252  1  0.49451576  0.74777869  0.12874819  1
  O  O253  1  0.49363563  0.74451206  0.62704011  1
  O  O254  1  0.99352392  0.24462463  0.13082810  1
  O  O255  1  0.99950918  0.24173034  0.63293795  1
  O  O256  1  0.99519053  0.74983410  0.13169536  1
  O  O257  1  0.99459817  0.74540475  0.62943584  1
  O  O258  1  0.00062417  0.25351217  0.36580729  1
  O  O259  1  0.00577072  0.25487530  0.87139845  1
  O  O260  1  0.00476491  0.75563217  0.36675073  1
  O  O261  1  0.00572662  0.75409580  0.87091141  1
  O  O262  1  0.50567925  0.25617789  0.37052555  1
  O  O263  1  0.50723371  0.25500032  0.87028612  1
  O  O264  1  0.50548595  0.75903851  0.37006034  1
  O  O265  1  0.51214445  0.75233708  0.87404025  1
  O  O266  1  0.24825221  0.12743671  0.49365763  1
  O  O267  1  0.25058457  0.12912332  0.99229645  1
  O  O268  1  0.24486867  0.62987419  0.49510726  1
  O  O269  1  0.25665356  0.63951189  0.99979160  1
  O  O270  1  0.74840897  0.13131212  0.48970736  1
  O  O271  1  0.74248706  0.13153254  0.99362110  1
  O  O272  1  0.74442956  0.63117838  0.49452277  1
  O  O273  1  0.74220463  0.63213316  0.99173299  1
  O  O274  1  0.25230925  0.36677912  0.00675868  1
  O  O275  1  0.25730529  0.36761020  0.50025525  1
  O  O276  1  0.25616019  0.86632273  0.00706408  1
  O  O277  1  0.25158489  0.86908458  0.50640254  1
  O  O278  1  0.74899388  0.36771228  0.00846647  1
  O  O279  1  0.75634298  0.37014018  0.50927387  1
  O  O280  1  0.75443759  0.87022095  0.00319799  1
  O  O281  1  0.75597677  0.87533840  0.50703091  1
  O  O282  1  0.12935107  0.49322858  0.24178608  1
  O  O283  1  0.13468994  0.49337918  0.74967479  1
  O  O284  1  0.13899638  0.99738433  0.24661681  1
  O  O285  1  0.13277799  0.99234570  0.74477028  1
  O  O286  1  0.62579287  0.49021882  0.24496096  1
  O  O287  1  0.61822674  0.49351669  0.73741872  1
  O  O288  1  0.63616431  1.00123136  0.24054003  1
  O  O289  1  0.63114686  0.99581819  0.74416656  1
  O  O290  1  0.36445445  0.01096286  0.24419071  1
  O  O291  1  0.36654356  0.00919344  0.74250897  1
  O  O292  1  0.36785161  0.50045029  0.25725838  1
  O  O293  1  0.36783172  0.50787177  0.75151020  1
  O  O294  1  0.86335519  -0.00529701  0.26095138  1
  O  O295  1  0.86911310  0.00419700  0.75504025  1
  O  O296  1  0.87226306  0.50157974  0.25058820  1
  O  O297  1  0.88133603  0.50606155  0.76020739  1
  O  O298  1  0.11868064  0.37114906  0.36815356  1
  O  O299  1  0.11770888  0.36619889  0.86972859  1
  O  O300  1  0.11857213  0.86844930  0.37384985  1
  O  O301  1  0.11883525  0.86543433  0.86910590  1
  O  O302  1  0.61996935  0.36965034  0.37003380  1
  O  O303  1  0.62148623  0.36983253  0.87040620  1
  O  O304  1  0.61287270  0.86845155  0.37261388  1
  O  O305  1  0.61666427  0.86993470  0.87225731  1
  O  O306  1  0.37645357  0.13069676  0.13706914  1
  O  O307  1  0.38265702  0.13259402  0.63188027  1
  O  O308  1  0.38149043  0.63299615  0.12660140  1
  O  O309  1  0.37940203  0.62935322  0.63426325  1
  O  O310  1  0.88228527  0.13692460  0.12142301  1
  O  O311  1  0.88159022  0.12414393  0.63111984  1
  O  O312  1  0.87785233  0.63536523  0.12398196  1
  O  O313  1  0.88145744  0.63229593  0.62314645  1
  O  O314  1  0.25448053  0.25348280  0.12164871  1
  O  O315  1  0.25888620  0.24935228  0.61920767  1
  O  O316  1  0.25276009  0.75697861  0.11953294  1
  O  O317  1  0.25373247  0.75434486  0.61971415  1
  O  O318  1  0.75727935  0.25517706  0.12204246  1
  O  O319  1  0.75027041  0.26093839  0.61848811  1
  O  O320  1  0.75292856  0.75779179  0.11893330  1
  O  O321  1  0.75595312  0.75830150  0.62526470  1
  O  O322  1  0.24895359  0.23783952  0.38115928  1
  O  O323  1  0.24588678  0.24029003  0.88031202  1
  O  O324  1  0.24529577  0.74528343  0.37971098  1
  O  O325  1  0.24065549  0.74968397  0.88317005  1
  O  O326  1  0.74805562  0.24389587  0.37781048  1
  O  O327  1  0.74534081  0.24540313  0.87938724  1
  O  O328  1  0.73553656  0.75650273  0.37380807  1
  O  O329  1  0.73675733  0.74568399  0.87954059  1
  O  O330  1  0.00144863  0.12282196  0.01200359  1
  O  O331  1  0.00745252  0.12350916  0.50609624  1
  O  O332  1  -0.00285936  0.61063731  -0.00296950  1
  O  O333  1  0.00638646  0.62014571  0.50433452  1
  O  O334  1  0.51467067  0.13032502  0.00037158  1
  O  O335  1  0.50278730  0.11871651  0.50521174  1
  O  O336  1  0.50254527  0.61923676  0.00375573  1
  O  O337  1  0.50115057  0.61804084  0.50834661  1
  O  O338  1  0.49476138  0.38033549  0.49445746  1
  O  O339  1  0.50126230  0.38362570  0.99615220  1
  O  O340  1  0.49736675  0.88487140  0.49276913  1
  O  O341  1  0.48889998  0.87054622  0.98964760  1
  O  O342  1  0.99707484  0.37817647  0.49566048  1
  O  O343  1  1.00115935  0.37988851  0.98975129  1
  O  O344  1  0.99309577  0.87809980  0.49194444  1
  O  O345  1  0.99118114  0.87522009  0.99306295  1
  O  O346  1  0.49574184  0.49487894  0.38024466  1
  O  O347  1  0.50071725  0.49484581  0.88547424  1
  O  O348  1  0.50818261  0.99247785  0.38441501  1
  O  O349  1  0.50521842  0.99156786  0.87424348  1
  O  O350  1  1.00157512  0.49162236  0.38203997  1
  O  O351  1  1.00766915  0.48770853  0.88248251  1
  O  O352  1  0.99046197  0.99610655  0.37125791  1
  O  O353  1  0.99273576  0.99200456  0.87338738  1
  O  O354  1  -0.00303718  0.01141943  0.12864894  1
  O  O355  1  0.00795338  0.00571480  0.62443543  1
  O  O356  1  0.00835253  0.49773176  0.11443876  1
  O  O357  1  0.00324642  0.50648442  0.61752011  1
  O  O358  1  0.51462196  0.00275668  0.13254149  1
  O  O359  1  0.50599690  0.00575799  0.61850216  1
  O  O360  1  0.49925492  0.50626293  0.11604811  1
  O  O361  1  0.50763514  0.50467164  0.62048385  1
  O  O362  1  0.24441419  0.37921104  0.24581679  1
  O  O363  1  0.24592232  0.38249472  0.75194425  1
  O  O364  1  0.25339427  0.88241764  0.24207675  1
  O  O365  1  0.24532342  0.87860003  0.74578231  1
  O  O366  1  0.74417378  0.37250604  0.23918080  1
  O  O367  1  0.74438436  0.36846456  0.73810898  1
  O  O368  1  0.74666456  0.88741793  0.24212636  1
  O  O369  1  0.74357729  0.88169211  0.74492749  1
  O  O370  1  0.25644172  0.11908909  0.25710515  1
  O  O371  1  0.25554796  0.11949268  0.75831371  1
  O  O372  1  0.25132586  0.61765960  0.25744615  1
  O  O373  1  0.25789386  0.61600638  0.75067011  1
  O  O374  1  0.74762546  0.11668322  0.26033334  1
  O  O375  1  0.75531689  0.12061749  0.75485318  1
  O  O376  1  0.75094579  0.62228303  0.25290411  1
  O  O377  1  0.74628252  0.62958607  0.76556794  1
  O  O378  1  0.36548316  0.12986262  0.36546725  1
  O  O379  1  0.36345536  0.13054190  0.86870568  1
  O  O380  1  0.36894464  0.61824283  0.37463785  1
  O  O381  1  0.37287560  0.62501877  0.86349893  1
  O  O382  1  0.86487762  0.11509383  0.38059779  1
  O  O383  1  0.87007904  0.11939571  0.86954997  1
  O  O384  1  0.87260149  0.62268412  0.36866983  1
  O  O385  1  0.85480488  0.63051884  0.87599649  1
  O  O386  1  0.13100277  0.38231416  0.13098654  1
  O  O387  1  0.12864338  0.37554670  0.63525973  1
  O  O388  1  0.13877189  0.87396647  0.12699874  1
  O  O389  1  0.13071771  0.87818004  0.63075906  1
  O  O390  1  0.63538950  0.37242844  0.13085599  1
  O  O391  1  0.63242642  0.38242884  0.62992790  1
  O  O392  1  0.63081738  0.88615710  0.12223304  1
  O  O393  1  0.62886016  0.88057905  0.63122466  1
  O  O394  1  0.11480065  0.25633730  0.25025955  1
  O  O395  1  0.12075317  0.25355901  0.75681025  1
  O  O396  1  0.11679430  0.75214857  0.25577089  1
  O  O397  1  0.12007001  0.75526283  0.75779039  1
  O  O398  1  0.61989602  0.25521711  0.25602901  1
  O  O399  1  0.61994861  0.25573989  0.75631669  1
  O  O400  1  0.61613983  0.75596713  0.25690042  1
  O  O401  1  0.62271236  0.75857587  0.75910188  1
  O  O402  1  0.37921559  0.24103749  0.24665231  1
  O  O403  1  0.38208780  0.24370191  0.74533440  1
  O  O404  1  0.38111587  0.74878784  0.24193386  1
  O  O405  1  0.37342398  0.73999722  0.74390464  1
  O  O406  1  0.88642562  0.25520455  0.23999584  1
  O  O407  1  0.88291749  0.24066180  0.74816118  1
  O  O408  1  0.88449698  0.75359230  0.24223969  1
  O  O409  1  0.88104868  0.74643170  0.74251354  1
  O  O410  1  0.38007460  0.49443763  0.49535133  1
  O  O411  1  0.38615427  0.49847815  0.99804805  1
  O  O412  1  0.38994370  1.00031611  0.50673244  1
  O  O413  1  0.36800122  0.98474750  1.00591874  1
  O  O414  1  0.88465199  0.49167710  0.49923623  1
  O  O415  1  0.88656189  0.49470825  0.99122809  1
  O  O416  1  0.87608099  0.99404372  0.48763331  1
  O  O417  1  0.87439523  0.99349775  0.99172490  1
  O  O418  1  0.11912853  0.00068909  0.00611448  1
  O  O419  1  0.12424313  0.00646909  0.50725564  1
  O  O420  1  0.11771768  0.49273033  0.00967142  1
  O  O421  1  0.12018095  0.50639292  0.50137268  1
  O  O422  1  0.63436336  0.01183378  0.01015601  1
  O  O423  1  0.61491725  0.00205206  0.50689788  1
  O  O424  1  0.61261419  0.50696312  0.00344481  1
  O  O425  1  0.61749623  0.49932287  0.51291728  1
  O  O426  1  0.36760989  0.36740821  0.12551352  1
  O  O427  1  0.37530966  0.36855647  0.61893138  1
  O  O428  1  0.36593439  0.86972051  0.11782530  1
  O  O429  1  0.36784451  0.86735537  0.62484422  1
  O  O430  1  0.86648365  0.36338135  0.12261140  1
  O  O431  1  0.86699904  0.37443768  0.62068307  1
  O  O432  1  0.86788336  0.87031621  0.11799020  1
  O  O433  1  0.86986528  0.87118341  0.61987282  1
  O  O434  1  0.13611831  0.12572213  0.38122919  1
  O  O435  1  0.13634374  0.12971905  0.87506101  1
  O  O436  1  0.13101529  0.63064355  0.38065686  1
  O  O437  1  0.12491098  0.63879029  0.86891345  1
  O  O438  1  0.63709088  0.13209697  0.37609374  1
  O  O439  1  0.63146786  0.13046265  0.88148049  1
  O  O440  1  0.62164049  0.63970235  0.37598221  1
  O  O441  1  0.63109841  0.63323275  0.87890747  1
