# generated using pymatgen
data_V93Zn93O256
_symmetry_space_group_name_H-M   'P 1'
_cell_length_a   17.04982170
_cell_length_b   17.04808720
_cell_length_c   17.04853065
_cell_angle_alpha   90.00365210
_cell_angle_beta   89.97216550
_cell_angle_gamma   90.04137430
_symmetry_Int_Tables_number   1
_chemical_formula_structural   V93Zn93O256
_chemical_formula_sum   'V93 Zn93 O256'
_cell_volume   4955.44076618
_cell_formula_units_Z   1
loop_
 _symmetry_equiv_pos_site_id
 _symmetry_equiv_pos_as_xyz
  1  'x, y, z'
loop_
 _atom_site_type_symbol
 _atom_site_label
 _atom_site_symmetry_multiplicity
 _atom_site_fract_x
 _atom_site_fract_y
 _atom_site_fract_z
 _atom_site_occupancy
  V  V0  1  0.11686536  0.49832127  0.12239956  1
  V  V1  1  0.87649659  0.37776246  0.00408420  1
  V  V2  1  0.37517173  0.50063201  0.87526193  1
  V  V3  1  0.75820689  0.62579180  0.36932192  1
  V  V4  1  0.62595068  0.62571193  0.49891552  1
  V  V5  1  0.12468755  0.37568305  0.75027783  1
  V  V6  1  0.12265887  0.00325318  0.12780812  1
  V  V7  1  0.49954470  0.87612535  0.87513324  1
  V  V8  1  0.00023125  -0.00054117  0.49969160  1
  V  V9  1  0.75094068  0.75190184  0.49956187  1
  V  V10  1  0.87630564  0.25156687  0.62444403  1
  V  V11  1  0.37675873  0.12390046  0.24947559  1
  V  V12  1  0.37555130  -0.00033548  0.87523161  1
  V  V13  1  0.62628606  0.12513329  0.49866684  1
  V  V14  1  0.50344359  0.37558474  0.37108835  1
  V  V15  1  0.62676752  0.25083105  0.87428298  1
  V  V16  1  0.37610981  0.12584409  0.74876739  1
  V  V17  1  0.12599838  -0.00017361  0.62707994  1
  V  V18  1  0.87478597  0.62559905  0.74974899  1
  V  V19  1  0.74952119  0.87534760  0.12765188  1
  V  V20  1  0.87968498  0.23957295  0.13175064  1
  V  V21  1  0.24878383  0.49799614  0.24880996  1
  V  V22  1  0.25118745  -0.00126681  0.24987429  1
  V  V23  1  0.37458589  0.75057879  0.62419548  1
  V  V24  1  0.37566844  0.49983941  0.37394374  1
  V  V25  1  0.24850483  0.62383157  0.87608161  1
  V  V26  1  0.87465981  0.12562811  0.75120454  1
  V  V27  1  -0.00004339  0.37824168  0.87883803  1
  V  V28  1  0.62468987  0.75087209  0.37172498  1
  V  V29  1  0.50097008  0.25166944  0.74708253  1
  V  V30  1  0.00010157  0.50006247  0.49852613  1
  V  V31  1  0.37453377  0.62484440  0.24909767  1
  V  V32  1  0.37399585  0.62560765  0.75094930  1
  V  V33  1  0.75095938  0.37739009  0.62343849  1
  V  V34  1  0.37558107  0.37472240  0.49908310  1
  V  V35  1  0.87453131  0.74429806  0.13088462  1
  V  V36  1  0.50180586  0.87481484  0.37489292  1
  V  V37  1  0.50072701  0.50022521  0.49827034  1
  V  V38  1  0.37560722  -0.00010171  0.37477787  1
  V  V39  1  0.62685977  0.50021421  0.62365048  1
  V  V40  1  0.24898635  -0.00145447  0.75122775  1
  V  V41  1  0.12463746  0.74934907  0.37471068  1
  V  V42  1  0.87400650  0.50098494  0.87978232  1
  V  V43  1  0.49918220  0.49901352  -0.00060233  1
  V  V44  1  0.50440288  0.25430278  0.24751850  1
  V  V45  1  0.25044023  0.37154557  0.12255130  1
  V  V46  1  0.62570494  0.87606413  0.75012695  1
  V  V47  1  0.76257907  0.00383577  0.25237667  1
  V  V48  1  -0.00176311  0.87821932  0.37531702  1
  V  V49  1  0.75392727  0.49697760  0.25076703  1
  V  V50  1  0.12511184  0.62487831  0.50052304  1
  V  V51  1  0.49902860  0.37622756  0.87426305  1
  V  V52  1  0.76261232  0.12263957  0.37046068  1
  V  V53  1  0.87525641  0.88036395  0.49753394  1
  V  V54  1  0.62746982  0.25412085  0.37019583  1
  V  V55  1  0.37474160  0.87532687  0.50027105  1
  V  V56  1  0.49843864  0.62470962  0.12550819  1
  V  V57  1  0.24813064  0.74889564  0.00153886  1
  V  V58  1  0.12463097  0.12716356  0.00068840  1
  V  V59  1  0.37269627  0.74835320  0.12511740  1
  V  V60  1  0.62529512  0.49342589  0.13126051  1
  V  V61  1  0.25016777  0.62392119  0.37476823  1
  V  V62  1  0.24903253  0.87386568  0.12467807  1
  V  V63  1  0.25177710  0.25027468  0.49925579  1
  V  V64  1  -0.00006222  0.62602230  0.62549763  1
  V  V65  1  -0.00349697  0.74182153  0.25047376  1
  V  V66  1  0.62474603  -0.00023728  0.12707232  1
  V  V67  1  0.50038749  0.62553342  0.62435438  1
  V  V68  1  0.75221780  0.24963553  0.49803362  1
  V  V69  1  0.75074499  0.87539562  0.62457276  1
  V  V70  1  0.12298545  0.74937423  0.87660039  1
  V  V71  1  0.12552935  0.50002507  0.62565615  1
  V  V72  1  -0.00089576  0.00525986  0.00581948  1
  V  V73  1  0.75089149  0.00178366  0.75109907  1
  V  V74  1  0.49958816  -0.00005093  -0.00000158  1
  V  V75  1  0.75045204  0.24991654  0.00079158  1
  V  V76  1  0.11481845  0.62053290  0.00274866  1
  V  V77  1  0.62477937  0.74943637  0.87602639  1
  V  V78  1  0.00058355  0.25131911  0.75068667  1
  V  V79  1  0.12712214  0.12533722  0.50095783  1
  V  V80  1  0.25022040  0.37522565  0.62468011  1
  V  V81  1  0.50033729  0.12454908  0.12440006  1
  V  V82  1  0.62630900  0.62495274  -0.00048709  1
  V  V83  1  0.25091634  0.74986015  0.50011313  1
  V  V84  1  -0.00006163  0.87502920  0.87474769  1
  V  V85  1  0.00083878  0.12565360  0.62587892  1
  V  V86  1  0.87734257  0.37664958  0.49864972  1
  V  V87  1  0.00058999  0.37248604  0.36975217  1
  V  V88  1  0.87395629  0.87435604  0.00187651  1
  V  V89  1  0.62486736  0.00157703  0.62405271  1
  V  V90  1  0.50092262  0.00164621  0.49968521  1
  V  V91  1  0.12605369  0.24918436  0.37226954  1
  V  V92  1  0.49979502  0.75124986  0.74958734  1
  Zn  Zn93  1  0.87672581  0.75142886  0.62678909  1
  Zn  Zn94  1  0.25436388  0.24762159  -0.00285334  1
  Zn  Zn95  1  0.50143849  0.12741992  0.62235949  1
  Zn  Zn96  1  0.12284792  0.37102504  0.24600814  1
  Zn  Zn97  1  0.12660674  0.25023938  0.87617713  1
  Zn  Zn98  1  0.74931977  0.74970102  0.00148955  1
  Zn  Zn99  1  0.62735261  0.37786264  0.74826301  1
  Zn  Zn100  1  0.25117195  0.12349622  0.37503099  1
  Zn  Zn101  1  0.74787368  0.50036141  0.75014434  1
  Zn  Zn102  1  0.75133490  0.12464696  0.87474578  1
  Zn  Zn103  1  0.00043842  0.22222371  0.24338152  1
  Zn  Zn104  1  0.37403031  0.37108593  -0.00194939  1
  Zn  Zn105  1  0.74631500  0.37047330  0.13519871  1
  Zn  Zn106  1  0.49863808  0.75155105  0.24850082  1
  Zn  Zn107  1  0.37372708  0.87416604  0.00000390  1
  Zn  Zn108  1  0.24785550  0.87369819  0.62553111  1
  Zn  Zn109  1  0.25041138  0.49928702  0.75074419  1
  Zn  Zn110  1  0.62550821  0.12484389  -0.00152221  1
  Zn  Zn111  1  0.37684716  0.25076393  0.62262212  1
  Zn  Zn112  1  0.62432540  0.87546471  0.25021178  1
  Zn  Zn113  1  0.88039935  0.50539892  0.36749679  1
  Zn  Zn114  1  0.87325243  0.00284796  0.87682772  1
  Zn  Zn115  1  0.24882873  0.12803715  0.87566953  1
  Zn  Zn116  1  0.37530532  0.24916893  0.12248432  1
  Zn  Zn117  1  0.74947993  0.62602615  0.87351674  1
  Zn  Zn118  1  0.12424377  0.87322379  0.74986571  1
  Zn  Zn119  1  0.00080931  0.75140130  0.74893239  1
  Zn  Zn120  1  -0.00955365  0.61531517  0.12821471  1
  Zn  Zn121  1  0.12438241  0.87383648  0.25024934  1
  Zn  Zn122  1  0.18779691  0.18501882  0.18818133  1
  Zn  Zn123  1  0.18858912  0.18921521  0.68793945  1
  Zn  Zn124  1  0.18394667  0.68589947  0.18810347  1
  Zn  Zn125  1  0.18682146  0.68823878  0.68987695  1
  Zn  Zn126  1  0.69038387  0.18421670  0.18746285  1
  Zn  Zn127  1  0.68887937  0.18851497  0.68591855  1
  Zn  Zn128  1  0.68908882  0.68391844  0.18751248  1
  Zn  Zn129  1  0.68921874  0.68805415  0.68736784  1
  Zn  Zn130  1  0.31440395  0.31228007  0.30900408  1
  Zn  Zn131  1  0.31067857  0.31236516  0.81389937  1
  Zn  Zn132  1  0.31226751  0.81305479  0.31178456  1
  Zn  Zn133  1  0.31146205  0.81219788  0.81495597  1
  Zn  Zn134  1  0.81243865  0.31495411  0.31186766  1
  Zn  Zn135  1  0.81249161  0.31500773  0.81119450  1
  Zn  Zn136  1  0.81238872  0.81679856  0.31125317  1
  Zn  Zn137  1  0.81108557  0.81095259  0.81431514  1
  Zn  Zn138  1  0.18701649  0.43634606  0.43775966  1
  Zn  Zn139  1  0.18748349  0.43839346  0.93936457  1
  Zn  Zn140  1  0.18696117  0.93657721  0.43777996  1
  Zn  Zn141  1  0.18709114  0.93834158  0.93883576  1
  Zn  Zn142  1  0.68991598  0.43844941  0.43606767  1
  Zn  Zn143  1  0.68866210  0.43647010  0.93912624  1
  Zn  Zn144  1  0.68927411  0.94017108  0.43542143  1
  Zn  Zn145  1  0.68766682  0.93780130  0.93789129  1
  Zn  Zn146  1  0.31157590  0.06257883  0.06250599  1
  Zn  Zn147  1  0.31245854  0.06294621  0.56402108  1
  Zn  Zn148  1  0.30850669  0.56024725  0.06129712  1
  Zn  Zn149  1  0.31265237  0.56165658  0.56300930  1
  Zn  Zn150  1  0.81012427  0.06267468  0.06374985  1
  Zn  Zn151  1  0.81238033  0.06359052  0.56213830  1
  Zn  Zn152  1  0.80854779  0.56076146  0.06371531  1
  Zn  Zn153  1  0.81386183  0.56329773  0.55967414  1
  Zn  Zn154  1  0.43595471  0.43688810  0.18558882  1
  Zn  Zn155  1  0.43746820  0.43829226  0.68709295  1
  Zn  Zn156  1  0.43745581  0.93446173  0.18794885  1
  Zn  Zn157  1  0.43774022  0.93774412  0.68583384  1
  Zn  Zn158  1  0.93232468  0.43256469  0.18978651  1
  Zn  Zn159  1  0.93726624  0.44036476  0.68936527  1
  Zn  Zn160  1  0.94095661  0.93518089  0.18909403  1
  Zn  Zn161  1  0.93605267  0.93944808  0.68684622  1
  Zn  Zn162  1  0.06213601  0.06209349  0.31332456  1
  Zn  Zn163  1  0.06107750  0.06214914  0.81650826  1
  Zn  Zn164  1  0.06448442  0.56015676  0.31062048  1
  Zn  Zn165  1  0.06028977  0.56104986  0.81339264  1
  Zn  Zn166  1  0.56656824  0.06573320  0.31254907  1
  Zn  Zn167  1  0.56301146  0.06461761  0.81221170  1
  Zn  Zn168  1  0.56470465  0.56455987  0.31060934  1
  Zn  Zn169  1  0.56208079  0.56266399  0.81090580  1
  Zn  Zn170  1  0.43885738  0.18724770  0.43445147  1
  Zn  Zn171  1  0.43751951  0.18738288  0.93783830  1
  Zn  Zn172  1  0.43789528  0.68754663  0.43705064  1
  Zn  Zn173  1  0.43731547  0.68727817  0.93866336  1
  Zn  Zn174  1  0.94195675  0.18781202  0.43751066  1
  Zn  Zn175  1  0.93709383  0.18960085  0.93818241  1
  Zn  Zn176  1  0.93769897  0.69179447  0.44017631  1
  Zn  Zn177  1  0.93590453  0.68889364  0.93911417  1
  Zn  Zn178  1  0.05983410  0.31148272  0.06364988  1
  Zn  Zn179  1  0.06395365  0.31301716  0.56091801  1
  Zn  Zn180  1  0.06155884  0.81251671  0.06425831  1
  Zn  Zn181  1  0.06353525  0.81220729  0.56451814  1
  Zn  Zn182  1  0.56148447  0.31296395  0.06003915  1
  Zn  Zn183  1  0.56521495  0.31402706  0.55917369  1
  Zn  Zn184  1  0.56024267  0.81276293  0.06233647  1
  Zn  Zn185  1  0.56328586  0.81385426  0.56110332  1
  O  O186  1  0.12980900  0.11077747  0.11685101  1
  O  O187  1  0.11972436  0.12054698  0.62068850  1
  O  O188  1  0.12312578  0.61533745  0.11831287  1
  O  O189  1  0.12052524  0.61996819  0.61970478  1
  O  O190  1  0.61947446  0.11465669  0.12282565  1
  O  O191  1  0.62546550  0.11949420  0.61678594  1
  O  O192  1  0.61911576  0.61815807  0.11682383  1
  O  O193  1  0.61961659  0.62177681  0.61823362  1
  O  O194  1  0.38164160  0.38148737  0.37909906  1
  O  O195  1  0.38149535  0.38303102  0.87437977  1
  O  O196  1  0.38159866  0.87963197  0.38082136  1
  O  O197  1  0.38215116  0.88142523  0.87571987  1
  O  O198  1  0.88596915  0.37422244  0.38129540  1
  O  O199  1  0.88025476  0.38140004  0.88195838  1
  O  O200  1  0.88597826  0.86903453  0.38641695  1
  O  O201  1  0.88155035  0.87501389  0.88647190  1
  O  O202  1  0.25706582  -0.00069339  0.36864442  1
  O  O203  1  0.25570539  0.00143348  0.86604054  1
  O  O204  1  0.25524995  0.50425726  0.37029562  1
  O  O205  1  0.25655554  0.50653746  0.87407971  1
  O  O206  1  0.74198973  0.01092976  0.36439240  1
  O  O207  1  0.75160776  0.00302133  0.86775025  1
  O  O208  1  0.75022311  0.50925823  0.36812158  1
  O  O209  1  0.76123460  0.50106938  0.87293806  1
  O  O210  1  0.24074072  0.49116396  0.12930315  1
  O  O211  1  0.24327336  0.49374167  0.62554928  1
  O  O212  1  0.24268326  0.99329403  0.12960145  1
  O  O213  1  0.24520954  0.99904695  0.63531647  1
  O  O214  1  0.74185885  0.49997221  0.13431253  1
  O  O215  1  0.74395921  0.49488163  0.62206669  1
  O  O216  1  0.74192404  0.99670431  0.13162700  1
  O  O217  1  0.74399997  0.99477560  0.63007669  1
  O  O218  1  0.00079223  0.37217766  0.26389311  1
  O  O219  1  0.00375790  0.37089633  0.75790986  1
  O  O220  1  0.00125609  0.86654154  0.26154412  1
  O  O221  1  -0.00117130  0.87670563  0.76407917  1
  O  O222  1  0.49448540  0.36289869  0.25488641  1
  O  O223  1  0.50132834  0.36564350  0.75447348  1
  O  O224  1  0.50374402  0.87119296  0.25890032  1
  O  O225  1  0.50619038  0.87055169  0.75446856  1
  O  O226  1  0.49651018  0.13342446  0.24490757  1
  O  O227  1  0.49322237  0.13446287  0.74828532  1
  O  O228  1  0.49206553  0.62655517  0.24360865  1
  O  O229  1  0.49452246  0.63246843  0.74377538  1
  O  O230  1  0.99104924  0.11430647  0.25211375  1
  O  O231  1  0.99548311  0.13035746  0.74500604  1
  O  O232  1  1.00192526  0.63779509  0.25029657  1
  O  O233  1  0.99012465  0.62478280  0.74501757  1
  O  O234  1  0.37359358  0.25251545  0.00465616  1
  O  O235  1  0.37089549  0.25655250  0.49863673  1
  O  O236  1  0.36623058  0.74847024  0.00720474  1
  O  O237  1  0.37061829  0.75464405  0.50452299  1
  O  O238  1  0.86800378  0.25759483  0.00741531  1
  O  O239  1  0.87193869  0.25618330  0.50592884  1
  O  O240  1  0.87443299  0.76088904  0.00896620  1
  O  O241  1  0.86885876  0.76227779  0.50341125  1
  O  O242  1  0.13125412  0.24549418  0.49224728  1
  O  O243  1  0.12157054  0.23564057  1.00247918  1
  O  O244  1  0.13084388  0.74359058  0.49502908  1
  O  O245  1  0.12881303  0.74148716  0.99699026  1
  O  O246  1  0.63237501  0.24511941  0.49120263  1
  O  O247  1  0.63318229  0.25104941  0.99120181  1
  O  O248  1  0.63058610  0.74625220  0.49128850  1
  O  O249  1  0.62318992  0.74022023  0.99571909  1
  O  O250  1  0.50370771  0.24455632  0.13362825  1
  O  O251  1  0.50085274  0.25045251  0.63507085  1
  O  O252  1  0.49224271  0.74268726  0.12579597  1
  O  O253  1  0.49532405  0.74530773  0.62920828  1
  O  O254  1  0.98397955  0.25467738  0.12786298  1
  O  O255  1  0.99582384  0.24546338  0.62947230  1
  O  O256  1  0.99183409  0.75141528  0.13541221  1
  O  O257  1  0.99833338  0.74183609  0.62796845  1
  O  O258  1  0.01118039  0.25724127  0.37669045  1
  O  O259  1  0.00012960  0.26224691  0.86917029  1
  O  O260  1  0.00446397  0.75654697  0.36957638  1
  O  O261  1  0.00439116  0.76078587  0.87687382  1
  O  O262  1  0.50893714  0.25432435  0.36690872  1
  O  O263  1  0.50798225  0.25505043  0.86660291  1
  O  O264  1  0.50997045  0.75459134  0.37613581  1
  O  O265  1  0.50441886  0.75542293  0.86904417  1
  O  O266  1  0.24503904  0.13172697  0.49899225  1
  O  O267  1  0.23835873  0.12423259  0.99804684  1
  O  O268  1  0.24546760  0.62961234  0.49417105  1
  O  O269  1  0.23908422  0.62981290  0.99511800  1
  O  O270  1  0.74560951  0.13012166  0.49238045  1
  O  O271  1  0.74809651  0.13827355  0.99673959  1
  O  O272  1  0.74422241  0.63152395  0.49176604  1
  O  O273  1  0.73593210  0.62610819  0.99887722  1
  O  O274  1  0.25004963  0.37283967  0.01081763  1
  O  O275  1  0.25605306  0.37022338  0.50433896  1
  O  O276  1  0.25053977  0.86726947  0.00605941  1
  O  O277  1  0.25721489  0.86760707  0.50086555  1
  O  O278  1  0.75919982  0.36425096  0.00006698  1
  O  O279  1  0.75762396  0.36925780  0.50281309  1
  O  O280  1  0.75996314  0.87595147  0.00720948  1
  O  O281  1  0.75785770  0.87333195  0.50326409  1
  O  O282  1  0.13237440  0.49715089  0.24094377  1
  O  O283  1  0.12540670  0.49369372  0.74328299  1
  O  O284  1  0.13197024  0.99697660  0.24163161  1
  O  O285  1  0.13424823  1.00114794  0.74675381  1
  O  O286  1  0.63250534  0.50668042  0.23839123  1
  O  O287  1  0.62652859  0.49903321  0.74021961  1
  O  O288  1  0.62905345  0.99940200  0.23736168  1
  O  O289  1  0.62978914  0.99531079  0.74457747  1
  O  O290  1  0.37136740  0.00400061  0.25531623  1
  O  O291  1  0.36951694  0.00705062  0.75342368  1
  O  O292  1  0.36929877  0.50532170  0.25524880  1
  O  O293  1  0.37532622  0.50868582  0.75629569  1
  O  O294  1  0.86075925  -0.00614750  0.24338715  1
  O  O295  1  0.86836326  0.00764973  0.75069084  1
  O  O296  1  0.86212075  0.50069471  0.25026409  1
  O  O297  1  0.87322421  0.50970546  0.75920624  1
  O  O298  1  0.11797458  0.36559935  0.37498954  1
  O  O299  1  0.11388526  0.37776680  0.87124960  1
  O  O300  1  0.11558610  0.86598385  0.37674748  1
  O  O301  1  0.11437122  0.86955918  0.87771968  1
  O  O302  1  0.62035569  0.36134325  0.38165047  1
  O  O303  1  0.61963776  0.36560036  0.87283013  1
  O  O304  1  0.62104925  0.86499855  0.37696552  1
  O  O305  1  0.61908773  0.87011378  0.86959347  1
  O  O306  1  0.38314475  0.12413253  0.13219490  1
  O  O307  1  0.37901948  0.12728991  0.63693570  1
  O  O308  1  0.37797323  0.62785101  0.12975076  1
  O  O309  1  0.38096349  0.63047144  0.62952406  1
  O  O310  1  0.87038601  0.14155345  0.11860059  1
  O  O311  1  0.88159632  0.13182282  0.62938218  1
  O  O312  1  0.87562527  0.63967185  0.11469933  1
  O  O313  1  0.88074518  0.62525985  0.63351791  1
  O  O314  1  0.24968655  0.26071600  0.12549169  1
  O  O315  1  0.25234850  0.25737897  0.61749090  1
  O  O316  1  0.25239691  0.75359458  0.12099032  1
  O  O317  1  0.25651133  0.75000503  0.61847652  1
  O  O318  1  0.75481229  0.25255109  0.11683107  1
  O  O319  1  0.75658956  0.25602386  0.61722315  1
  O  O320  1  0.75720364  0.75607735  0.12591494  1
  O  O321  1  0.74965189  0.75820825  0.61701366  1
  O  O322  1  0.24095149  0.25090055  0.37945133  1
  O  O323  1  0.24399898  0.24681504  0.87843516  1
  O  O324  1  0.24542655  0.74341290  0.37999379  1
  O  O325  1  0.24333838  0.74383949  0.88147365  1
  O  O326  1  0.74398504  0.24458817  0.37746968  1
  O  O327  1  0.74245717  0.25199979  0.88188895  1
  O  O328  1  0.74342555  0.74549328  0.37851664  1
  O  O329  1  0.74036374  0.74786851  0.88037137  1
  O  O330  1  0.00593232  0.11183692  -0.00478746  1
  O  O331  1  0.00662528  0.11967436  0.50632486  1
  O  O332  1  0.01171297  0.62969141  0.00432933  1
  O  O333  1  0.00591506  0.62055845  0.50411068  1
  O  O334  1  0.50294376  0.11766936  0.00606291  1
  O  O335  1  0.50733737  0.11976227  0.49984914  1
  O  O336  1  0.50817400  0.61922686  0.00499621  1
  O  O337  1  0.50529672  0.61987525  0.50461285  1
  O  O338  1  0.49544082  0.38097720  0.49195784  1
  O  O339  1  0.49835341  0.38222713  0.99185051  1
  O  O340  1  0.49487563  0.88145775  0.49439194  1
  O  O341  1  0.49748129  0.88188824  0.99275101  1
  O  O342  1  0.99748677  0.38005028  0.49108542  1
  O  O343  1  0.98780888  0.36842799  0.98978764  1
  O  O344  1  0.99341390  0.87765333  0.49495617  1
  O  O345  1  0.99203188  0.88164697  0.99428379  1
  O  O346  1  0.49651240  0.49604972  0.37838968  1
  O  O347  1  0.49565351  0.49578510  0.87936711  1
  O  O348  1  0.49669685  0.99533968  0.38017713  1
  O  O349  1  0.49640290  0.99544769  0.87905587  1
  O  O350  1  1.00116299  0.49096245  0.37946117  1
  O  O351  1  0.98685403  0.48849260  0.87128429  1
  O  O352  1  1.01054302  0.98434353  0.38474723  1
  O  O353  1  0.99776167  0.99012557  0.88672530  1
  O  O354  1  0.01066663  -0.01068393  0.11475742  1
  O  O355  1  0.00644026  0.00637435  0.62048422  1
  O  O356  1  0.01219831  0.49840163  0.13492388  1
  O  O357  1  0.00611112  0.50535097  0.61850849  1
  O  O358  1  0.50726245  0.00312352  0.12068137  1
  O  O359  1  0.50751727  0.00175850  0.61796884  1
  O  O360  1  0.50669325  0.50480958  0.12070740  1
  O  O361  1  0.50532098  0.50623247  0.61770898  1
  O  O362  1  0.24803512  0.38006665  0.24075227  1
  O  O363  1  0.24317223  0.37689294  0.74278701  1
  O  O364  1  0.24760940  0.88076511  0.24346561  1
  O  O365  1  0.24957433  0.88734987  0.74947134  1
  O  O366  1  0.74839905  0.38986048  0.25236283  1
  O  O367  1  0.74888095  0.37799083  0.73894982  1
  O  O368  1  0.74489663  0.88494480  0.24542802  1
  O  O369  1  0.74500448  0.88034260  0.74486380  1
  O  O370  1  0.25845297  0.11687356  0.25126297  1
  O  O371  1  0.25909565  0.11628238  0.74991995  1
  O  O372  1  0.25439913  0.61864761  0.25579756  1
  O  O373  1  0.25618310  0.62369623  0.75786531  1
  O  O374  1  0.74571427  0.11591940  0.25923365  1
  O  O375  1  0.75694101  0.12026201  0.74956402  1
  O  O376  1  0.74496300  0.61663502  0.26214991  1
  O  O377  1  0.76105859  0.62338399  0.75163426  1
  O  O378  1  0.37448546  0.11719721  0.36793637  1
  O  O379  1  0.37600051  0.11874850  0.86225732  1
  O  O380  1  0.36981755  0.61913985  0.37038396  1
  O  O381  1  0.36951163  0.62116059  0.87012068  1
  O  O382  1  0.86076548  0.13128055  0.38163615  1
  O  O383  1  0.87353188  0.12428597  0.86687369  1
  O  O384  1  0.86178065  0.62607910  0.38225440  1
  O  O385  1  0.87554260  0.61713467  0.87052250  1
  O  O386  1  0.13074996  0.38137607  0.12460597  1
  O  O387  1  0.12959274  0.38084421  0.62935458  1
  O  O388  1  0.13101027  0.88505071  0.12495557  1
  O  O389  1  0.12699457  0.88330332  0.62910273  1
  O  O390  1  0.62752882  0.39006219  0.11593854  1
  O  O391  1  0.63274126  0.38251361  0.62239232  1
  O  O392  1  0.63005589  0.88363515  0.12457689  1
  O  O393  1  0.63056831  0.88096826  0.63018939  1
  O  O394  1  0.12190326  0.24934929  0.26062606  1
  O  O395  1  0.11749437  0.25752744  0.75070410  1
  O  O396  1  0.11534698  0.75182933  0.25587612  1
  O  O397  1  0.12172756  0.75251352  0.76048465  1
  O  O398  1  0.61610778  0.24378865  0.25900207  1
  O  O399  1  0.61754829  0.25163586  0.75648984  1
  O  O400  1  0.62415507  0.74963360  0.26202958  1
  O  O401  1  0.61902961  0.75578368  0.75463470  1
  O  O402  1  0.38726930  0.24269885  0.24878278  1
  O  O403  1  0.38458731  0.24246193  0.74988477  1
  O  O404  1  0.37412152  0.74171697  0.24356472  1
  O  O405  1  0.38016826  0.74555635  0.74493545  1
  O  O406  1  0.87054146  0.25534708  0.23329971  1
  O  O407  1  0.88103547  0.24642165  0.74350389  1
  O  O408  1  0.88292612  0.75724966  0.24080153  1
  O  O409  1  0.87741831  0.73851649  0.75054087  1
  O  O410  1  0.38129256  0.49561317  0.49307757  1
  O  O411  1  0.38224312  0.50073055  0.99271615  1
  O  O412  1  0.38038731  0.99565160  0.49524974  1
  O  O413  1  0.38131471  0.99900106  0.99271561  1
  O  O414  1  0.88330476  0.49406176  0.49603741  1
  O  O415  1  0.86742007  0.48932053  0.99280413  1
  O  O416  1  0.88267461  0.98806732  0.50673017  1
  O  O417  1  0.88165427  0.99061596  1.00384582  1
  O  O418  1  0.11797527  0.00598637  0.00725651  1
  O  O419  1  0.12130178  0.00568800  0.50711857  1
  O  O420  1  0.12828564  0.50915282  0.01079163  1
  O  O421  1  0.12015008  0.50593050  0.50495885  1
  O  O422  1  0.62048982  0.00087076  0.01064950  1
  O  O423  1  0.62052191  0.00521571  0.50436948  1
  O  O424  1  0.62008384  0.50825354  0.00609862  1
  O  O425  1  0.61941211  0.50621863  0.50288890  1
  O  O426  1  0.36293163  0.37471408  0.12223339  1
  O  O427  1  0.36953860  0.37494316  0.61678161  1
  O  O428  1  0.36755330  0.86708781  0.12326063  1
  O  O429  1  0.37397862  0.86808980  0.61803840  1
  O  O430  1  0.87039271  0.36874148  0.11483049  1
  O  O431  1  0.87233733  0.37093439  0.61870669  1
  O  O432  1  0.87089952  0.86666752  0.11780004  1
  O  O433  1  0.86929276  0.87344053  0.61673506  1
  O  O434  1  0.12784934  0.13429483  0.38297242  1
  O  O435  1  0.12542913  0.12574965  0.88714733  1
  O  O436  1  0.13096965  0.62911012  0.38085038  1
  O  O437  1  0.12707798  0.62758169  0.88356051  1
  O  O438  1  0.63208297  0.13676342  0.38054119  1
  O  O439  1  0.62640475  0.13948318  0.87605482  1
  O  O440  1  0.63164920  0.63386813  0.38052731  1
  O  O441  1  0.62332567  0.62972065  0.88427564  1
