# generated using pymatgen
data_V93Zn93O256
_symmetry_space_group_name_H-M   'P 1'
_cell_length_a   17.05824385
_cell_length_b   17.05796925
_cell_length_c   17.05602357
_cell_angle_alpha   89.96858750
_cell_angle_beta   90.02966814
_cell_angle_gamma   89.98420915
_symmetry_Int_Tables_number   1
_chemical_formula_structural   V93Zn93O256
_chemical_formula_sum   'V93 Zn93 O256'
_cell_volume   4962.94306474
_cell_formula_units_Z   1
loop_
 _symmetry_equiv_pos_site_id
 _symmetry_equiv_pos_as_xyz
  1  'x, y, z'
loop_
 _atom_site_type_symbol
 _atom_site_label
 _atom_site_symmetry_multiplicity
 _atom_site_fract_x
 _atom_site_fract_y
 _atom_site_fract_z
 _atom_site_occupancy
  V  V0  1  0.25168638  -0.00020777  0.24993405  1
  V  V1  1  0.75060080  0.13041953  0.37908642  1
  V  V2  1  0.49996151  0.37641704  0.87454674  1
  V  V3  1  0.50045563  0.50182099  0.00136064  1
  V  V4  1  0.50083480  0.62557068  0.62503405  1
  V  V5  1  -0.00114977  0.37554863  0.37734495  1
  V  V6  1  0.37583681  0.50215518  0.87389908  1
  V  V7  1  0.37516333  0.62592663  0.74984306  1
  V  V8  1  0.12589590  0.37665453  0.24911391  1
  V  V9  1  0.62539233  0.62561020  0.50140338  1
  V  V10  1  0.62324351  0.87662269  0.74939643  1
  V  V11  1  0.24397212  0.00141085  0.74614987  1
  V  V12  1  0.25021648  0.12446127  0.87489193  1
  V  V13  1  0.25091932  0.12598680  0.37401219  1
  V  V14  1  0.50112823  0.12462112  0.12586151  1
  V  V15  1  0.75096570  0.36759356  0.62216529  1
  V  V16  1  0.37416310  0.75192546  0.62501432  1
  V  V17  1  0.87425955  0.62345628  0.25101067  1
  V  V18  1  0.87586032  -0.00285291  0.37701262  1
  V  V19  1  -0.00016639  0.74824866  0.24798131  1
  V  V20  1  0.12437237  0.37405769  0.75079471  1
  V  V21  1  0.12724180  0.50001287  0.12327501  1
  V  V22  1  0.49769426  0.50241454  0.49348656  1
  V  V23  1  0.24105788  0.88008744  0.62414584  1
  V  V24  1  0.74923205  -0.00188960  0.24958142  1
  V  V25  1  0.49912774  0.75174945  0.74978378  1
  V  V26  1  0.00067009  0.62556522  0.62410318  1
  V  V27  1  0.12360773  -0.00048806  0.12451201  1
  V  V28  1  0.87381518  0.74846848  0.62613456  1
  V  V29  1  0.37504016  0.74737781  0.12655197  1
  V  V30  1  -0.00078964  0.62490122  0.12301545  1
  V  V31  1  0.12507722  0.62450924  -0.00258548  1
  V  V32  1  0.49778633  0.62479785  0.12677528  1
  V  V33  1  0.62525844  0.87437118  0.24957946  1
  V  V34  1  -0.00407243  0.87415690  0.88140811  1
  V  V35  1  0.37573633  0.25079835  0.12495396  1
  V  V36  1  0.62495884  -0.00056406  0.12489718  1
  V  V37  1  0.37565559  0.12568905  0.25040891  1
  V  V38  1  0.74965023  0.25031624  0.00031997  1
  V  V39  1  0.00091710  0.49806659  -0.00160055  1
  V  V40  1  0.75129234  0.74984246  0.49976852  1
  V  V41  1  0.24961619  0.87404415  0.12472824  1
  V  V42  1  0.75039154  0.37464860  0.12645468  1
  V  V43  1  -0.00113809  0.24949243  0.74722922  1
  V  V44  1  0.24799933  0.25004597  0.00076196  1
  V  V45  1  0.12601847  0.87276300  0.24862316  1
  V  V46  1  0.37704441  0.37988368  0.49295955  1
  V  V47  1  0.50194908  0.25133873  0.25241962  1
  V  V48  1  0.25014625  0.74456396  0.49622289  1
  V  V49  1  0.62467689  0.25121271  0.87684695  1
  V  V50  1  0.74856872  0.00038468  0.75037193  1
  V  V51  1  0.00071755  0.12259490  0.12565703  1
  V  V52  1  0.12826422  0.74350148  0.37453021  1
  V  V53  1  0.37659608  0.25138105  0.62529779  1
  V  V54  1  0.37474066  0.37554267  -0.00063166  1
  V  V55  1  0.87103377  0.36844586  0.50025471  1
  V  V56  1  0.63001096  0.13201775  0.50039850  1
  V  V57  1  0.87064701  0.75224149  0.11281712  1
  V  V58  1  0.25095851  0.62617487  0.87332118  1
  V  V59  1  0.49787604  0.87654170  0.87488848  1
  V  V60  1  0.62385544  0.50081176  0.12514363  1
  V  V61  1  0.25087404  0.37582900  0.62412994  1
  V  V62  1  0.00104320  0.24883954  0.25044691  1
  V  V63  1  0.49888117  0.25092965  0.75044859  1
  V  V64  1  -0.00206995  0.87478424  0.37457884  1
  V  V65  1  0.24986194  0.75077345  -0.00081303  1
  V  V66  1  0.37541735  0.87670390  0.50027782  1
  V  V67  1  0.87580867  0.12562471  0.74781537  1
  V  V68  1  0.62551333  0.37596594  0.75014441  1
  V  V69  1  0.75080903  0.50009409  0.25080331  1
  V  V70  1  0.12384224  0.75288166  0.86893606  1
  V  V71  1  0.50004069  0.12647842  0.62502540  1
  V  V72  1  0.12482505  0.50093079  0.62362032  1
  V  V73  1  0.25541120  0.50686151  0.26144523  1
  V  V74  1  0.50055706  0.87627611  0.37568826  1
  V  V75  1  0.50053079  0.00033129  0.50027406  1
  V  V76  1  0.49895051  0.74911285  0.25040296  1
  V  V77  1  0.74934265  0.12608243  0.87636362  1
  V  V78  1  0.25095902  0.24946303  0.49905366  1
  V  V79  1  0.87468420  -0.00472832  0.88184252  1
  V  V80  1  0.62966308  0.74965913  0.88023337  1
  V  V81  1  0.87556467  0.24836878  0.12494093  1
  V  V82  1  0.37438780  0.87575518  -0.00058861  1
  V  V83  1  0.75022839  0.50154011  0.75055948  1
  V  V84  1  0.62665606  0.75079964  0.37536420  1
  V  V85  1  0.87575484  0.12357611  0.25089648  1
  V  V86  1  0.12695284  0.24928338  0.37613973  1
  V  V87  1  0.87626135  0.37445074  0.00048873  1
  V  V88  1  0.75268811  0.87102387  0.11249973  1
  V  V89  1  0.49853913  0.00101207  0.00039709  1
  V  V90  1  0.62524180  0.00007868  0.62599234  1
  V  V91  1  0.87452547  0.49917071  0.87411024  1
  V  V92  1  0.62499133  0.37439843  0.25221290  1
  Zn  Zn93  1  0.63000835  0.63198612  0.00368099  1
  Zn  Zn94  1  0.01528325  0.10855914  0.63044274  1
  Zn  Zn95  1  -0.00128088  0.49959947  0.49954185  1
  Zn  Zn96  1  -0.00205684  -0.00180716  0.00283718  1
  Zn  Zn97  1  -0.00379906  0.75123118  0.74986187  1
  Zn  Zn98  1  0.12347553  0.24988073  0.87659419  1
  Zn  Zn99  1  0.75253514  0.63260615  0.88259825  1
  Zn  Zn100  1  0.25196103  0.37774220  0.12621929  1
  Zn  Zn101  1  0.87403428  0.24415887  0.61784932  1
  Zn  Zn102  1  0.62786483  0.25388127  0.37936273  1
  Zn  Zn103  1  0.12802165  0.62089517  0.49480020  1
  Zn  Zn104  1  0.62377366  0.12621906  0.00125136  1
  Zn  Zn105  1  0.87579887  0.87517396  0.50321701  1
  Zn  Zn106  1  0.37430770  0.00081919  0.87356494  1
  Zn  Zn107  1  0.25114621  0.50073253  0.74910554  1
  Zn  Zn108  1  0.62599311  0.49993156  0.62456183  1
  Zn  Zn109  1  0.12240888  0.12350889  -0.00028915  1
  Zn  Zn110  1  0.75072898  0.62335722  0.37585002  1
  Zn  Zn111  1  0.75027459  0.87474255  0.62572586  1
  Zn  Zn112  1  0.00098974  0.37267164  0.87535488  1
  Zn  Zn113  1  0.37510053  0.12402827  0.74973742  1
  Zn  Zn114  1  0.00949660  -0.00289636  0.51176550  1
  Zn  Zn115  1  0.37502738  0.62097249  0.27434801  1
  Zn  Zn116  1  0.37613606  0.00090740  0.37475593  1
  Zn  Zn117  1  0.12710886  0.11497392  0.50829268  1
  Zn  Zn118  1  0.87390281  0.49960527  0.37803705  1
  Zn  Zn119  1  0.11695418  0.88277778  0.74362651  1
  Zn  Zn120  1  0.87421992  0.62440947  0.75053648  1
  Zn  Zn121  1  0.50150371  0.37704932  0.37429773  1
  Zn  Zn122  1  0.18682852  0.18699760  0.18800438  1
  Zn  Zn123  1  0.18900073  0.18830586  0.68690482  1
  Zn  Zn124  1  0.18837581  0.68475949  0.18697056  1
  Zn  Zn125  1  0.18956351  0.68870200  0.68497766  1
  Zn  Zn126  1  0.68736458  0.18678260  0.19003523  1
  Zn  Zn127  1  0.68653474  0.18750140  0.68968352  1
  Zn  Zn128  1  0.68829130  0.68804932  0.18536864  1
  Zn  Zn129  1  0.68635186  0.68735716  0.69057686  1
  Zn  Zn130  1  0.31201971  0.31547182  0.31081117  1
  Zn  Zn131  1  0.31173395  0.31278549  0.81231514  1
  Zn  Zn132  1  0.31506277  0.81008011  0.31386470  1
  Zn  Zn133  1  0.31088404  0.81586151  0.81049214  1
  Zn  Zn134  1  0.81404981  0.31218847  0.31201798  1
  Zn  Zn135  1  0.81240532  0.31348930  0.81204324  1
  Zn  Zn136  1  0.81169522  0.81031466  0.30646589  1
  Zn  Zn137  1  0.81127610  0.81475215  0.81147699  1
  Zn  Zn138  1  0.18719119  0.43509892  0.43837137  1
  Zn  Zn139  1  0.18985957  0.43818279  0.93554335  1
  Zn  Zn140  1  0.18930346  0.93528176  0.43591889  1
  Zn  Zn141  1  0.18512766  0.93923712  0.93630786  1
  Zn  Zn142  1  0.68751911  0.44007870  0.43790383  1
  Zn  Zn143  1  0.68819484  0.44035757  0.93992413  1
  Zn  Zn144  1  0.68806349  0.93875091  0.43908759  1
  Zn  Zn145  1  0.68368839  0.93900001  0.93573573  1
  Zn  Zn146  1  0.31255664  0.06297648  0.06324521  1
  Zn  Zn147  1  0.31190592  0.06367938  0.56246648  1
  Zn  Zn148  1  0.31233886  0.56302788  0.06475336  1
  Zn  Zn149  1  0.31464667  0.56294370  0.55973418  1
  Zn  Zn150  1  0.81019730  0.06209367  0.06308987  1
  Zn  Zn151  1  0.81429372  0.05993622  0.56269882  1
  Zn  Zn152  1  0.81111864  0.56399264  0.06223457  1
  Zn  Zn153  1  0.81409004  0.55783975  0.56198552  1
  Zn  Zn154  1  0.43620432  0.43728805  0.18877908  1
  Zn  Zn155  1  0.43838463  0.43978237  0.68402616  1
  Zn  Zn156  1  0.43698663  0.93674430  0.18696364  1
  Zn  Zn157  1  0.43245429  0.94024187  0.68769542  1
  Zn  Zn158  1  0.93895600  0.43750977  0.18682186  1
  Zn  Zn159  1  0.93723379  0.43595110  0.68528405  1
  Zn  Zn160  1  0.93553360  0.93494912  0.18736680  1
  Zn  Zn161  1  0.93596137  0.93367611  0.69309562  1
  Zn  Zn162  1  0.06716626  0.05916436  0.31909935  1
  Zn  Zn163  1  0.06218767  0.06267090  0.81480582  1
  Zn  Zn164  1  0.06350467  0.55996955  0.30910057  1
  Zn  Zn165  1  0.06084039  0.56308526  0.80964411  1
  Zn  Zn166  1  0.56362729  0.06310349  0.31376459  1
  Zn  Zn167  1  0.56156334  0.06446043  0.81380035  1
  Zn  Zn168  1  0.56367203  0.56529483  0.31259752  1
  Zn  Zn169  1  0.56370644  0.56492852  0.81317064  1
  Zn  Zn170  1  0.43896809  0.18948084  0.43713943  1
  Zn  Zn171  1  0.43589815  0.18728232  0.93808976  1
  Zn  Zn172  1  0.43791674  0.68855463  0.43705292  1
  Zn  Zn173  1  0.44098443  0.68858875  0.93906578  1
  Zn  Zn174  1  0.94172254  0.18411027  0.44137765  1
  Zn  Zn175  1  0.93867566  0.18563226  0.93602879  1
  Zn  Zn176  1  0.93990345  0.68708615  0.43830095  1
  Zn  Zn177  1  0.93855505  0.68425625  0.93518209  1
  Zn  Zn178  1  0.06303267  0.31245891  0.06439284  1
  Zn  Zn179  1  0.06198506  0.30646956  0.56279229  1
  Zn  Zn180  1  0.06115986  0.81101209  0.06070050  1
  Zn  Zn181  1  0.06143439  0.81128095  0.55830220  1
  Zn  Zn182  1  0.56229215  0.31417880  0.06383079  1
  Zn  Zn183  1  0.56234157  0.31562349  0.56428094  1
  Zn  Zn184  1  0.56131073  0.81450686  0.06299128  1
  Zn  Zn185  1  0.56321069  0.81325803  0.56316800  1
  O  O186  1  0.11797348  0.11724899  0.12692896  1
  O  O187  1  0.12716791  0.12726047  0.62134285  1
  O  O188  1  0.11836311  0.62143843  0.11645493  1
  O  O189  1  0.11820254  0.61703322  0.62559896  1
  O  O190  1  0.61935178  0.11756633  0.12523064  1
  O  O191  1  0.62148115  0.12034687  0.61884009  1
  O  O192  1  0.61625557  0.61857247  0.12647391  1
  O  O193  1  0.61810404  0.62538091  0.61949157  1
  O  O194  1  0.37788787  0.37048440  0.38998235  1
  O  O195  1  0.38038671  0.38172615  0.87903503  1
  O  O196  1  0.38311268  0.87622887  0.38225087  1
  O  O197  1  0.38035095  0.87553199  0.88190032  1
  O  O198  1  0.88325261  0.37442530  0.38080988  1
  O  O199  1  0.87683190  0.38376148  0.88132193  1
  O  O200  1  0.88218985  0.88010241  0.37021610  1
  O  O201  1  0.88259029  0.88473918  0.86833294  1
  O  O202  1  0.25460071  0.00590506  0.36532314  1
  O  O203  1  0.25163900  0.00856220  0.86901244  1
  O  O204  1  0.24099194  0.49755348  0.35965120  1
  O  O205  1  0.25767959  0.50839316  0.87260649  1
  O  O206  1  0.75762484  0.00549122  0.36925003  1
  O  O207  1  0.75510351  0.00499255  0.87040701  1
  O  O208  1  0.75391502  0.50373498  0.36616582  1
  O  O209  1  0.75993171  0.49400975  0.86494694  1
  O  O210  1  0.24214688  0.49792471  0.12933028  1
  O  O211  1  0.24049650  0.49554718  0.62557623  1
  O  O212  1  0.24460184  0.99360580  0.13051796  1
  O  O213  1  0.25550926  0.98989734  0.63224272  1
  O  O214  1  0.74496229  0.49255903  0.13188933  1
  O  O215  1  0.75042929  0.49055367  0.63627771  1
  O  O216  1  0.74576794  0.99266975  0.13100316  1
  O  O217  1  0.74359412  0.99817767  0.63224325  1
  O  O218  1  0.00377078  0.36936248  0.25769765  1
  O  O219  1  0.00783528  0.36796765  0.75031635  1
  O  O220  1  0.00539088  0.86730724  0.25593308  1
  O  O221  1  0.00245637  0.86976046  0.76385777  1
  O  O222  1  0.50643545  0.37004343  0.25177762  1
  O  O223  1  0.50519045  0.37127944  0.75471824  1
  O  O224  1  0.50598281  0.86966313  0.25470080  1
  O  O225  1  0.50296756  0.87162635  0.75440339  1
  O  O226  1  0.49577359  0.13023635  0.24501066  1
  O  O227  1  0.49910944  0.13298559  0.74347299  1
  O  O228  1  0.49624022  0.63116439  0.24467271  1
  O  O229  1  0.49413268  0.63159392  0.74460917  1
  O  O230  1  0.99476718  0.12962801  0.24703911  1
  O  O231  1  0.99138242  0.13158013  0.75136914  1
  O  O232  1  0.99315487  0.62787161  0.24217173  1
  O  O233  1  0.99738095  0.62833483  0.73670808  1
  O  O234  1  0.36694647  0.25558991  0.00465751  1
  O  O235  1  0.37210045  0.25936266  0.50638330  1
  O  O236  1  0.36932023  0.75596338  0.00518823  1
  O  O237  1  0.36763347  0.75845448  0.50648929  1
  O  O238  1  0.86990924  0.25462764  0.00511606  1
  O  O239  1  0.87806488  0.26347397  0.50000195  1
  O  O240  1  0.87922339  0.74185302  0.01445236  1
  O  O241  1  0.86666115  0.74849675  0.50724672  1
  O  O242  1  0.13526704  0.25371708  0.49114488  1
  O  O243  1  0.13672621  0.24947074  0.99954866  1
  O  O244  1  0.13326804  0.74978088  0.49033026  1
  O  O245  1  0.12970113  0.74430111  0.98968618  1
  O  O246  1  0.62046199  0.23534505  0.50096500  1
  O  O247  1  0.63162924  0.25108481  0.99457854  1
  O  O248  1  0.63324333  0.74611634  0.49637878  1
  O  O249  1  0.61609571  0.75223645  0.98493224  1
  O  O250  1  0.49525760  0.24475711  0.13096648  1
  O  O251  1  0.49641811  0.24612808  0.63123824  1
  O  O252  1  0.49526871  0.74586255  0.13135128  1
  O  O253  1  0.49395345  0.74612400  0.62981630  1
  O  O254  1  0.99456922  0.24382878  0.13133545  1
  O  O255  1  0.99519663  0.24998522  0.64001579  1
  O  O256  1  0.99288276  0.74486146  0.12934820  1
  O  O257  1  0.99177029  0.74285096  0.62373797  1
  O  O258  1  0.00510805  0.25789501  0.36924119  1
  O  O259  1  0.00312005  0.25151711  0.86323451  1
  O  O260  1  0.00510836  0.75753739  0.36850324  1
  O  O261  1  0.00717586  0.75507468  0.87441455  1
  O  O262  1  0.50523178  0.25229691  0.36660146  1
  O  O263  1  0.50397183  0.25679066  0.87106113  1
  O  O264  1  0.50815087  0.75809794  0.37082771  1
  O  O265  1  0.50517457  0.75733552  0.86774541  1
  O  O266  1  0.25241921  0.13315228  0.49102355  1
  O  O267  1  0.25030184  0.13452304  0.99358604  1
  O  O268  1  0.24686992  0.64151150  0.50958870  1
  O  O269  1  0.24463811  0.63145597  0.99296803  1
  O  O270  1  0.74151583  0.11729827  0.49085924  1
  O  O271  1  0.74798005  0.13301396  0.99451345  1
  O  O272  1  0.74580462  0.63381467  0.49974796  1
  O  O273  1  0.74040789  0.61120666  0.99297581  1
  O  O274  1  0.25602834  0.36538998  -0.00094155  1
  O  O275  1  0.25898040  0.37110360  0.50454752  1
  O  O276  1  0.25408645  0.86965300  0.00502601  1
  O  O277  1  0.25492288  0.86866901  0.50670623  1
  O  O278  1  0.75649029  0.36994180  0.00709505  1
  O  O279  1  0.75800184  0.38229176  0.51123674  1
  O  O280  1  0.74466272  0.88074612  0.01410357  1
  O  O281  1  0.75153009  0.86187162  0.50222853  1
  O  O282  1  0.13290347  0.49603372  0.24239890  1
  O  O283  1  0.12520211  0.49156192  0.74022737  1
  O  O284  1  0.13175780  0.99183338  0.24492661  1
  O  O285  1  0.13953254  0.99920058  0.75606740  1
  O  O286  1  0.63031844  0.49487999  0.24467309  1
  O  O287  1  0.63378682  0.49379401  0.75074250  1
  O  O288  1  0.62930509  0.99423648  0.24430110  1
  O  O289  1  0.62882388  0.99689169  0.74557842  1
  O  O290  1  0.36955209  0.00723831  0.24912744  1
  O  O291  1  0.36163907  0.00349944  0.75327423  1
  O  O292  1  0.35910369  0.49950294  0.24687476  1
  O  O293  1  0.37503276  0.50737698  0.75560649  1
  O  O294  1  0.86866588  0.00442279  0.25772408  1
  O  O295  1  0.86794617  0.00819634  0.76069883  1
  O  O296  1  0.87080793  0.50938522  0.24792629  1
  O  O297  1  0.86804928  0.49764492  0.75802316  1
  O  O298  1  0.11634774  0.36902112  0.37000869  1
  O  O299  1  0.12428854  0.37611414  0.86189750  1
  O  O300  1  0.11534548  0.86399394  0.36674810  1
  O  O301  1  0.11770504  0.86538815  0.87357401  1
  O  O302  1  0.62553841  0.37211069  0.36813558  1
  O  O303  1  0.61913461  0.37084989  0.87032030  1
  O  O304  1  0.62080654  0.87094370  0.36970634  1
  O  O305  1  0.61740305  0.87008895  0.86828854  1
  O  O306  1  0.38113385  0.13128635  0.13092225  1
  O  O307  1  0.38270480  0.13379411  0.62485482  1
  O  O308  1  0.38224205  0.63317553  0.12358373  1
  O  O309  1  0.38039499  0.63230436  0.63019717  1
  O  O310  1  0.87940510  0.12884493  0.13174059  1
  O  O311  1  0.86863581  0.12652121  0.64104230  1
  O  O312  1  0.87968610  0.63062120  0.13321026  1
  O  O313  1  0.88343093  0.63119854  0.62444766  1
  O  O314  1  0.25607963  0.25059850  0.11572635  1
  O  O315  1  0.25749826  0.25796515  0.61902731  1
  O  O316  1  0.25350970  0.75470035  0.11858140  1
  O  O317  1  0.25492450  0.75968435  0.61747963  1
  O  O318  1  0.75635729  0.25452331  0.12124942  1
  O  O319  1  0.75367881  0.26388809  0.63450362  1
  O  O320  1  0.75831486  0.75940182  0.13036473  1
  O  O321  1  0.75702495  0.74786615  0.61687522  1
  O  O322  1  0.24655667  0.24660228  0.37903030  1
  O  O323  1  0.24984083  0.24314430  0.88398194  1
  O  O324  1  0.23811314  0.76028898  0.38448489  1
  O  O325  1  0.24226856  0.74683180  0.87934653  1
  O  O326  1  0.75037662  0.23355545  0.36921594  1
  O  O327  1  0.74477511  0.24665253  0.88051939  1
  O  O328  1  0.74606609  0.74843391  0.38364111  1
  O  O329  1  0.73491832  0.75069157  0.86606814  1
  O  O330  1  0.00200383  0.12319622  0.00952551  1
  O  O331  1  0.00302118  0.12090445  0.50867158  1
  O  O332  1  0.00614628  0.61736699  0.00395309  1
  O  O333  1  0.00388997  0.62258007  0.51173718  1
  O  O334  1  0.50014202  0.11998141  0.00797008  1
  O  O335  1  0.50883613  0.11984579  0.50508311  1
  O  O336  1  0.50337342  0.61831232  0.00774328  1
  O  O337  1  0.50568778  0.62060447  0.50656661  1
  O  O338  1  0.49397208  0.38461011  0.50079530  1
  O  O339  1  0.49352253  0.38020971  0.99392380  1
  O  O340  1  0.49610208  0.88043721  0.49578920  1
  O  O341  1  0.49305137  0.88164884  0.99538434  1
  O  O342  1  0.99352623  0.37340254  0.49090827  1
  O  O343  1  0.99452881  0.38005433  0.99854966  1
  O  O344  1  0.99619269  0.87312021  0.48383920  1
  O  O345  1  1.00289421  0.87660779  0.98593093  1
  O  O346  1  0.50511088  0.50002169  0.38997371  1
  O  O347  1  0.49506140  0.49545669  0.88006039  1
  O  O348  1  0.49979398  0.99359103  0.38165642  1
  O  O349  1  0.49808051  0.99470475  0.88144880  1
  O  O350  1  1.00068620  0.48572202  0.37454052  1
  O  O351  1  0.99068906  0.49872558  0.87907378  1
  O  O352  1  0.98711858  0.98792964  0.36439725  1
  O  O353  1  0.99166477  0.99212591  0.87578919  1
  O  O354  1  0.00454181  0.00397981  0.12607272  1
  O  O355  1  -0.00956223  -0.00284972  0.62288484  1
  O  O356  1  0.00610486  0.50542752  0.11846956  1
  O  O357  1  0.00865050  0.50732330  0.62488987  1
  O  O358  1  0.50542317  0.00456375  0.12076280  1
  O  O359  1  0.50523973  0.00653865  0.62058415  1
  O  O360  1  0.50389154  0.50505749  0.12154026  1
  O  O361  1  0.50333448  0.50809002  0.61579866  1
  O  O362  1  0.24396082  0.38530180  0.24725322  1
  O  O363  1  0.24061456  0.37622156  0.74318721  1
  O  O364  1  0.24567557  0.87834239  0.24366172  1
  O  O365  1  0.24735765  0.88311054  0.74063218  1
  O  O366  1  0.74649224  0.37938053  0.24469855  1
  O  O367  1  0.74572733  0.38260129  0.74364802  1
  O  O368  1  0.74245019  0.88030142  0.24408514  1
  O  O369  1  0.74110838  0.88370682  0.74821248  1
  O  O370  1  0.25708806  0.12063746  0.25366626  1
  O  O371  1  0.25221917  0.12009864  0.75884498  1
  O  O372  1  0.25032039  0.61003881  0.24589790  1
  O  O373  1  0.25760688  0.62508213  0.75555068  1
  O  O374  1  0.75538957  0.11745955  0.25790202  1
  O  O375  1  0.75597451  0.12087662  0.75760517  1
  O  O376  1  0.75996982  0.61980615  0.24960403  1
  O  O377  1  0.75071950  0.61096593  0.75274004  1
  O  O378  1  0.36951540  0.12495335  0.36760743  1
  O  O379  1  0.36285466  0.12453673  0.87349945  1
  O  O380  1  0.36531354  0.63037708  0.38318729  1
  O  O381  1  0.37110978  0.62213843  0.86992536  1
  O  O382  1  0.86927815  0.11645664  0.37093172  1
  O  O383  1  0.86953453  0.11782877  0.86597708  1
  O  O384  1  0.87776125  0.62348225  0.36176840  1
  O  O385  1  0.87338226  0.61187427  0.87208762  1
  O  O386  1  0.12580247  0.38212951  0.13186554  1
  O  O387  1  0.12869432  0.38203706  0.63163931  1
  O  O388  1  0.12986543  0.87745912  0.12990654  1
  O  O389  1  0.13717002  0.86758371  0.62523623  1
  O  O390  1  0.63109498  0.38038304  0.13228590  1
  O  O391  1  0.63414392  0.37668315  0.63149654  1
  O  O392  1  0.63180290  0.87926592  0.13110744  1
  O  O393  1  0.62523214  0.88227336  0.63195486  1
  O  O394  1  0.12029701  0.25735700  0.25482246  1
  O  O395  1  0.11790338  0.26074204  0.75031431  1
  O  O396  1  0.12055893  0.75274442  0.25501360  1
  O  O397  1  0.12498079  0.75017727  0.76226998  1
  O  O398  1  0.61921068  0.25709726  0.25039686  1
  O  O399  1  0.61877601  0.25649823  0.75724285  1
  O  O400  1  0.61933176  0.75491804  0.25550543  1
  O  O401  1  0.61699215  0.75706453  0.75555356  1
  O  O402  1  0.38090659  0.24627709  0.24411126  1
  O  O403  1  0.38184329  0.25105879  0.74317531  1
  O  O404  1  0.38171989  0.74912416  0.24280114  1
  O  O405  1  0.37961275  0.74604075  0.74475294  1
  O  O406  1  0.88111219  0.24355747  0.24416721  1
  O  O407  1  0.88250234  0.24093930  0.75350273  1
  O  O408  1  0.88066817  0.73924138  0.24276855  1
  O  O409  1  0.87255197  0.74530804  0.73829031  1
  O  O410  1  0.38517497  0.49036014  0.50770798  1
  O  O411  1  0.38038703  0.49562438  0.99385231  1
  O  O412  1  0.38285458  0.99408190  0.49925318  1
  O  O413  1  0.38067134  0.99300053  1.00030797  1
  O  O414  1  0.87971706  0.48689685  0.49728438  1
  O  O415  1  0.88101128  0.49372764  0.99309071  1
  O  O416  1  0.87330417  0.99527954  0.48446912  1
  O  O417  1  0.87518502  1.00696703  0.98489975  1
  O  O418  1  0.12250620  0.00194474  0.01007985  1
  O  O419  1  0.11433493  0.00778968  0.46900131  1
  O  O420  1  0.12061973  0.50494986  0.00222030  1
  O  O421  1  0.12350276  0.50035025  0.51158435  1
  O  O422  1  0.61636415  0.00249300  0.00725622  1
  O  O423  1  0.62007836  0.00820024  0.50648622  1
  O  O424  1  0.61489334  0.49497938  0.00927045  1
  O  O425  1  0.61739577  0.50778368  0.50357013  1
  O  O426  1  0.37444088  0.36801106  0.11670470  1
  O  O427  1  0.37073603  0.37074865  0.61719289  1
  O  O428  1  0.36891148  0.86798736  0.11949355  1
  O  O429  1  0.36662515  0.86971753  0.61949372  1
  O  O430  1  0.87083184  0.36826498  0.12069674  1
  O  O431  1  0.86834346  0.37263286  0.61728630  1
  O  O432  1  0.86484578  0.86406788  0.13234549  1
  O  O433  1  0.87211468  0.85997272  0.62363088  1
  O  O434  1  0.13507868  0.13703801  0.36853508  1
  O  O435  1  0.13762617  0.12803923  0.87803386  1
  O  O436  1  0.11447191  0.63975838  0.37579755  1
  O  O437  1  0.12922853  0.63215672  0.87797021  1
  O  O438  1  0.63471443  0.12375461  0.38386489  1
  O  O439  1  0.63119534  0.13335075  0.87710290  1
  O  O440  1  0.62702479  0.63416325  0.38269437  1
  O  O441  1  0.62413435  0.63819510  0.87564401  1
