# generated using pymatgen
data_V93Zn93O256
_symmetry_space_group_name_H-M   'P 1'
_cell_length_a   17.04862680
_cell_length_b   17.05027092
_cell_length_c   17.04765264
_cell_angle_alpha   90.02866247
_cell_angle_beta   90.01875651
_cell_angle_gamma   90.04746597
_symmetry_Int_Tables_number   1
_chemical_formula_structural   V93Zn93O256
_chemical_formula_sum   'V93 Zn93 O256'
_cell_volume   4955.47225656
_cell_formula_units_Z   1
loop_
 _symmetry_equiv_pos_site_id
 _symmetry_equiv_pos_as_xyz
  1  'x, y, z'
loop_
 _atom_site_type_symbol
 _atom_site_label
 _atom_site_symmetry_multiplicity
 _atom_site_fract_x
 _atom_site_fract_y
 _atom_site_fract_z
 _atom_site_occupancy
  V  V0  1  0.25025875  0.62637870  0.37479080  1
  V  V1  1  0.37919057  0.38040145  0.00246185  1
  V  V2  1  0.37510689  0.87551662  0.00042059  1
  V  V3  1  0.61970782  0.86848913  0.24987545  1
  V  V4  1  0.62021411  0.74744754  0.37345056  1
  V  V5  1  0.25537137  0.37578238  0.61877659  1
  V  V6  1  0.86964121  0.86874460  -0.00050984  1
  V  V7  1  0.50046727  0.62407739  0.62643497  1
  V  V8  1  0.12311458  0.87487460  0.24893090  1
  V  V9  1  0.37377441  0.75068474  0.62580354  1
  V  V10  1  0.74970855  0.00025174  0.74973002  1
  V  V11  1  0.62708784  0.12410687  0.50152709  1
  V  V12  1  0.62420279  0.87391847  0.75116418  1
  V  V13  1  0.37675620  0.50059126  0.87891619  1
  V  V14  1  0.12649704  0.50018741  0.62483762  1
  V  V15  1  0.50124887  0.37953667  0.87933397  1
  V  V16  1  0.37857349  0.75027974  0.12791486  1
  V  V17  1  0.38093325  0.62943500  0.25128876  1
  V  V18  1  0.87564179  0.74932218  0.62421698  1
  V  V19  1  0.74927812  0.87453110  0.62421473  1
  V  V20  1  0.50023910  0.12505920  0.62683183  1
  V  V21  1  0.24965982  0.87634458  0.62428172  1
  V  V22  1  0.87373370  0.12421822  0.24971788  1
  V  V23  1  0.62504012  0.49969991  0.62682339  1
  V  V24  1  0.87432201  0.62519753  0.74969649  1
  V  V25  1  0.49864613  0.62254529  0.12035375  1
  V  V26  1  0.25061294  0.49990068  0.75040926  1
  V  V27  1  0.75022631  0.12552418  0.87579141  1
  V  V28  1  0.87668243  0.37503524  0.49955417  1
  V  V29  1  0.50044679  0.75034437  0.75166878  1
  V  V30  1  0.61938180  0.00387628  0.12662643  1
  V  V31  1  0.50094994  0.25085533  0.75253415  1
  V  V32  1  0.62560257  0.24812515  0.37580068  1
  V  V33  1  0.37456116  0.00144586  0.87667684  1
  V  V34  1  0.00321864  0.37530362  0.87373346  1
  V  V35  1  0.12860320  0.12787674  0.49565808  1
  V  V36  1  0.87474102  0.49818901  0.37582700  1
  V  V37  1  0.87556504  0.50182386  0.87462576  1
  V  V38  1  -0.00016844  0.00243253  -0.00093953  1
  V  V39  1  0.62302916  0.37332874  0.25049166  1
  V  V40  1  0.24320498  0.12696721  0.87846682  1
  V  V41  1  0.37696071  0.49600018  0.38044752  1
  V  V42  1  0.63038991  0.75036563  0.88066754  1
  V  V43  1  0.87644732  0.25054854  0.62497232  1
  V  V44  1  0.87520217  0.00004342  0.87388535  1
  V  V45  1  0.49804176  0.87133056  0.37431004  1
  V  V46  1  0.25084352  0.62565296  0.87578729  1
  V  V47  1  0.75090784  0.24835820  0.50056532  1
  V  V48  1  0.74826569  0.74840319  0.49953633  1
  V  V49  1  0.25057464  0.50074900  0.24989677  1
  V  V50  1  0.25139218  0.37623065  0.12555400  1
  V  V51  1  0.49947777  -0.00211891  0.50068638  1
  V  V52  1  0.87577820  0.12561449  0.74902275  1
  V  V53  1  0.74973754  -0.00159968  0.25143256  1
  V  V54  1  0.74733830  0.49907027  0.24978134  1
  V  V55  1  0.87602535  0.87590169  0.49614505  1
  V  V56  1  -0.00044561  0.62532341  0.12417021  1
  V  V57  1  0.38083814  0.24213493  0.13021074  1
  V  V58  1  0.25145623  0.75056331  0.00005649  1
  V  V59  1  0.75038459  0.37521299  0.62749827  1
  V  V60  1  0.00057652  0.62478383  0.62308143  1
  V  V61  1  0.12480811  0.37606333  0.25039667  1
  V  V62  1  -0.00259448  0.75065521  0.24844563  1
  V  V63  1  -0.00004418  0.25119439  0.25048966  1
  V  V64  1  0.37565931  0.12659730  0.75142918  1
  V  V65  1  0.62600542  0.37577748  0.75239142  1
  V  V66  1  0.00273119  0.25168439  0.75006329  1
  V  V67  1  0.37579624  0.62583616  0.75269249  1
  V  V68  1  0.24922322  0.00496616  0.25003485  1
  V  V69  1  0.63083955  0.62809893  0.00207469  1
  V  V70  1  0.12469961  0.75249390  0.87389316  1
  V  V71  1  0.49820315  0.00523166  0.00289636  1
  V  V72  1  0.00209811  0.12524394  0.12032738  1
  V  V73  1  0.12488978  0.62569343  0.49906526  1
  V  V74  1  0.12562089  0.00115134  0.62293152  1
  V  V75  1  0.87381558  0.62419381  0.24965388  1
  V  V76  1  0.24991499  0.00147547  0.74926627  1
  V  V77  1  0.37657007  0.25448140  0.61809364  1
  V  V78  1  0.87414566  0.37400557  0.00203778  1
  V  V79  1  0.12487915  0.62606233  0.00023972  1
  V  V80  1  0.74786685  0.86736627  0.12070545  1
  V  V81  1  0.00008050  0.87592514  0.87341442  1
  V  V82  1  0.24470420  0.24839607  -0.00014710  1
  V  V83  1  0.61870117  0.49749027  0.11926701  1
  V  V84  1  0.24924879  0.75123280  0.49983353  1
  V  V85  1  0.49813774  0.37304880  0.38255459  1
  V  V86  1  0.62504649  0.12526387  0.00080670  1
  V  V87  1  0.00171957  0.50146020  -0.00004141  1
  V  V88  1  0.74767334  0.62316359  0.37495269  1
  V  V89  1  0.62295756  0.62226710  0.50079202  1
  V  V90  1  0.12366636  0.00293072  0.11924536  1
  V  V91  1  0.00150845  0.12527649  0.62255764  1
  V  V92  1  0.62404259  -0.00058567  0.62673218  1
  Zn  Zn93  1  -0.00162331  0.87618972  0.37346199  1
  Zn  Zn94  1  0.12542894  0.25072400  0.87550331  1
  Zn  Zn95  1  0.37294331  0.00078029  0.37610903  1
  Zn  Zn96  1  0.37381227  0.87607531  0.49852894  1
  Zn  Zn97  1  0.87633733  -0.00098626  0.37453371  1
  Zn  Zn98  1  0.86823492  0.74454768  0.11905365  1
  Zn  Zn99  1  0.00204473  0.75283599  0.74826772  1
  Zn  Zn100  1  0.12480071  0.75017766  0.37390081  1
  Zn  Zn101  1  0.39335297  0.11302034  0.24831147  1
  Zn  Zn102  1  0.75071867  0.12332070  0.37666277  1
  Zn  Zn103  1  0.74979185  0.50070011  0.75290977  1
  Zn  Zn104  1  0.62672261  0.25169296  0.87791806  1
  Zn  Zn105  1  0.49977003  0.87570220  0.87552031  1
  Zn  Zn106  1  0.75093839  0.24906112  0.00164672  1
  Zn  Zn107  1  0.25623201  0.12893171  0.37293682  1
  Zn  Zn108  1  0.50596525  0.23754685  0.24811663  1
  Zn  Zn109  1  0.12316060  0.87573387  0.74816521  1
  Zn  Zn110  1  0.12618580  0.50242958  0.12487708  1
  Zn  Zn111  1  0.75323697  0.62753873  0.88077109  1
  Zn  Zn112  1  0.00138876  0.37577096  0.37693010  1
  Zn  Zn113  1  0.24953190  0.87567143  0.12410663  1
  Zn  Zn114  1  0.25545916  0.25366893  0.49470406  1
  Zn  Zn115  1  0.00102939  0.49876228  0.49820131  1
  Zn  Zn116  1  0.12795661  0.37367777  0.75017515  1
  Zn  Zn117  1  0.87204547  0.25000569  0.12400184  1
  Zn  Zn118  1  0.49518845  0.49549799  0.50480798  1
  Zn  Zn119  1  0.12979945  0.24964883  0.37457510  1
  Zn  Zn120  1  0.00068507  0.00099062  0.49481639  1
  Zn  Zn121  1  0.74890509  0.37219513  0.12412145  1
  Zn  Zn122  1  0.18736051  0.18886469  0.18450546  1
  Zn  Zn123  1  0.18868035  0.18893637  0.68590004  1
  Zn  Zn124  1  0.18932954  0.68775992  0.18702165  1
  Zn  Zn125  1  0.18692770  0.68825383  0.68806858  1
  Zn  Zn126  1  0.68918135  0.18866370  0.18509445  1
  Zn  Zn127  1  0.68748949  0.18969882  0.68926136  1
  Zn  Zn128  1  0.68494541  0.68583778  0.18837493  1
  Zn  Zn129  1  0.68810332  0.68806844  0.68912966  1
  Zn  Zn130  1  0.31242265  0.31222888  0.31309786  1
  Zn  Zn131  1  0.31387230  0.31300889  0.81067872  1
  Zn  Zn132  1  0.30985234  0.81546300  0.31169724  1
  Zn  Zn133  1  0.31129542  0.81535616  0.81246905  1
  Zn  Zn134  1  0.81151911  0.31157956  0.31381261  1
  Zn  Zn135  1  0.81309936  0.31220143  0.81569745  1
  Zn  Zn136  1  0.80853619  0.80897283  0.31101475  1
  Zn  Zn137  1  0.81228417  0.81137415  0.81132064  1
  Zn  Zn138  1  0.18828224  0.43911833  0.43702469  1
  Zn  Zn139  1  0.18844003  0.43728082  0.93797282  1
  Zn  Zn140  1  0.18672892  0.93847941  0.43573247  1
  Zn  Zn141  1  0.18827099  0.93692529  0.93723861  1
  Zn  Zn142  1  0.68727080  0.43629103  0.43980143  1
  Zn  Zn143  1  0.68973764  0.44133458  0.93776834  1
  Zn  Zn144  1  0.68580393  0.93639756  0.43714035  1
  Zn  Zn145  1  0.68710097  0.93799399  0.93695375  1
  Zn  Zn146  1  0.30895244  0.06385658  0.06283159  1
  Zn  Zn147  1  0.31364246  0.06395435  0.56117257  1
  Zn  Zn148  1  0.31108122  0.56272944  0.06341802  1
  Zn  Zn149  1  0.31123889  0.56518916  0.56307152  1
  Zn  Zn150  1  0.81128903  0.05772213  0.06355653  1
  Zn  Zn151  1  0.81360574  0.06109698  0.56360592  1
  Zn  Zn152  1  0.81026780  0.55772481  0.06479024  1
  Zn  Zn153  1  0.81151113  0.56013175  0.56303844  1
  Zn  Zn154  1  0.43787445  0.43617547  0.19204248  1
  Zn  Zn155  1  0.43778751  0.43763927  0.69129940  1
  Zn  Zn156  1  0.43748886  0.93560934  0.18739728  1
  Zn  Zn157  1  0.43584133  0.93689355  0.68843804  1
  Zn  Zn158  1  0.93802149  0.43997419  0.18645313  1
  Zn  Zn159  1  0.93934225  0.43893790  0.68691198  1
  Zn  Zn160  1  0.93539629  0.93666544  0.18399075  1
  Zn  Zn161  1  0.93907637  0.93834242  0.68464864  1
  Zn  Zn162  1  0.06103154  0.06056826  0.31342463  1
  Zn  Zn163  1  0.06290869  0.06278064  0.80978329  1
  Zn  Zn164  1  0.06146236  0.56210250  0.31353517  1
  Zn  Zn165  1  0.06258902  0.56343806  0.81106607  1
  Zn  Zn166  1  0.56201585  0.06106878  0.31585362  1
  Zn  Zn167  1  0.56173669  0.06229576  0.81556086  1
  Zn  Zn168  1  0.55937550  0.55952651  0.31110881  1
  Zn  Zn169  1  0.56324833  0.56246097  0.81523886  1
  Zn  Zn170  1  0.43975933  0.18206369  0.43345293  1
  Zn  Zn171  1  0.43529455  0.19055971  0.93990607  1
  Zn  Zn172  1  0.43686990  0.68713292  0.44049482  1
  Zn  Zn173  1  0.44213599  0.68869903  0.93951249  1
  Zn  Zn174  1  0.93955162  0.18776344  0.43563037  1
  Zn  Zn175  1  0.93854592  0.18967884  0.93524165  1
  Zn  Zn176  1  0.93778891  0.68746684  0.43590910  1
  Zn  Zn177  1  0.94010978  0.68904846  0.93498793  1
  Zn  Zn178  1  0.06123439  0.31437403  0.06456411  1
  Zn  Zn179  1  0.06559968  0.31380062  0.56305707  1
  Zn  Zn180  1  0.05918932  0.81350239  0.06109481  1
  Zn  Zn181  1  0.06262462  0.81236946  0.56234950  1
  Zn  Zn182  1  0.56089239  0.31052350  0.06283128  1
  Zn  Zn183  1  0.56471074  0.31102477  0.56426577  1
  Zn  Zn184  1  0.55833575  0.81303458  0.06238780  1
  Zn  Zn185  1  0.56109186  0.81060049  0.56182153  1
  O  O186  1  0.11243250  0.11499576  0.12977290  1
  O  O187  1  0.12132318  0.12103329  0.61619948  1
  O  O188  1  0.11887963  0.62564409  0.11785239  1
  O  O189  1  0.12141197  0.62036537  0.61916919  1
  O  O190  1  0.63331824  0.11087611  0.11546349  1
  O  O191  1  0.61983170  0.11949192  0.62229774  1
  O  O192  1  0.61698055  0.61920305  0.12177316  1
  O  O193  1  0.62002070  0.62023639  0.62181386  1
  O  O194  1  0.38676958  0.38527075  0.36493147  1
  O  O195  1  0.38151767  0.37939516  0.88305913  1
  O  O196  1  0.38620432  0.87690260  0.37433076  1
  O  O197  1  0.37527674  0.88343988  0.88242873  1
  O  O198  1  0.87531048  0.38035099  0.38124081  1
  O  O199  1  0.88261393  0.38122853  0.88278146  1
  O  O200  1  0.87097909  0.87281549  0.38595297  1
  O  O201  1  0.87739485  0.88072793  0.88064901  1
  O  O202  1  0.25043468  -0.00032075  0.36131975  1
  O  O203  1  0.25497504  0.00864721  0.87188127  1
  O  O204  1  0.25889992  0.50493166  0.36934985  1
  O  O205  1  0.25677918  0.50667563  0.87109061  1
  O  O206  1  0.74940442  -0.00029659  0.36134468  1
  O  O207  1  0.75544793  0.00493261  0.86817055  1
  O  O208  1  0.75350068  0.50466863  0.36962710  1
  O  O209  1  0.75963494  0.50634391  0.87273409  1
  O  O210  1  0.24927061  0.49431559  0.13246828  1
  O  O211  1  0.24866849  0.49430119  0.63041538  1
  O  O212  1  0.23872015  0.99941605  0.12942645  1
  O  O213  1  0.24613939  0.99644275  0.62995426  1
  O  O214  1  0.73645442  0.49582634  0.13234573  1
  O  O215  1  0.74337183  0.49231177  0.62830996  1
  O  O216  1  0.74009627  0.98948654  0.13365037  1
  O  O217  1  0.74355676  0.99455347  0.63093428  1
  O  O218  1  0.00766832  0.36736878  0.24701586  1
  O  O219  1  0.00043909  0.36927290  0.75622307  1
  O  O220  1  0.00483464  0.86666326  0.24656919  1
  O  O221  1  0.00088690  0.87448962  0.75748200  1
  O  O222  1  0.51245846  0.37309505  0.25902940  1
  O  O223  1  0.50563760  0.37033061  0.75998495  1
  O  O224  1  0.51165992  0.88150625  0.25915483  1
  O  O225  1  0.50668584  0.86898879  0.75148459  1
  O  O226  1  0.50607205  0.12435058  0.24496670  1
  O  O227  1  0.49611015  0.13002849  0.74637372  1
  O  O228  1  0.48786766  0.62267338  0.24123936  1
  O  O229  1  0.49481197  0.63033333  0.74646803  1
  O  O230  1  0.99273993  0.13122295  0.24130627  1
  O  O231  1  0.99422277  0.13070356  0.74370588  1
  O  O232  1  0.99478620  0.63202868  0.24441992  1
  O  O233  1  0.98929304  0.62702986  0.74316019  1
  O  O234  1  0.36738915  0.25941517  0.01058533  1
  O  O235  1  0.37810797  0.24222005  0.51566871  1
  O  O236  1  0.37136118  0.75437018  0.00729179  1
  O  O237  1  0.36718940  0.75042833  0.50861918  1
  O  O238  1  0.87718773  0.26276351  0.00088954  1
  O  O239  1  0.87071983  0.25394662  0.50524175  1
  O  O240  1  0.87850159  0.76479144  -0.00046485  1
  O  O241  1  0.86784922  0.75590420  0.50395186  1
  O  O242  1  0.12716126  0.23987452  0.49842275  1
  O  O243  1  0.14129983  0.25763889  1.00125202  1
  O  O244  1  0.13134662  0.74405499  0.49716531  1
  O  O245  1  0.13042760  0.74618745  0.99466797  1
  O  O246  1  0.63171642  0.24328127  0.49711840  1
  O  O247  1  0.62420905  0.23567279  1.00146504  1
  O  O248  1  0.62980520  0.74230384  0.49497169  1
  O  O249  1  0.61714733  0.74224206  0.99172291  1
  O  O250  1  0.48340278  0.25387561  0.12529090  1
  O  O251  1  0.49506020  0.24547608  0.63178879  1
  O  O252  1  0.48658800  0.74044047  0.12267181  1
  O  O253  1  0.49483101  0.74380221  0.63177986  1
  O  O254  1  0.99889612  0.24155569  0.13346761  1
  O  O255  1  0.99463394  0.24536134  0.63024337  1
  O  O256  1  0.99556083  0.74459180  0.13375404  1
  O  O257  1  0.99313694  0.74304469  0.62555338  1
  O  O258  1  0.00294445  0.25168777  0.35967330  1
  O  O259  1  0.00371525  0.25580838  0.86854086  1
  O  O260  1  0.00170280  0.75111136  0.35976627  1
  O  O261  1  0.00747857  0.75845948  0.87324429  1
  O  O262  1  0.50702114  0.25801483  0.37326532  1
  O  O263  1  0.49973827  0.26164192  0.87090872  1
  O  O264  1  0.50548336  0.76177398  0.38206344  1
  O  O265  1  0.50996765  0.75227984  0.86924249  1
  O  O266  1  0.23988376  0.12767688  0.49921451  1
  O  O267  1  0.25745504  0.13619105  0.98940217  1
  O  O268  1  0.24446423  0.63153077  0.49463041  1
  O  O269  1  0.24559085  0.63062020  0.99448548  1
  O  O270  1  0.74532659  0.13009928  0.50063820  1
  O  O271  1  0.74117587  0.12003252  0.99415369  1
  O  O272  1  0.74342135  0.62931183  0.49479875  1
  O  O273  1  0.73538900  0.62399254  1.00359295  1
  O  O274  1  0.26030584  0.36837923  0.00421614  1
  O  O275  1  0.24777183  0.37486177  0.51454156  1
  O  O276  1  0.25720682  0.86898627  0.00274965  1
  O  O277  1  0.25103856  0.86945165  0.50544748  1
  O  O278  1  0.76274819  0.37554860  -0.00036353  1
  O  O279  1  0.75532493  0.36763666  0.50729462  1
  O  O280  1  0.75781706  0.88391377  0.00977602  1
  O  O281  1  0.75508775  0.86867047  0.50469418  1
  O  O282  1  0.13065383  0.49222867  0.24841452  1
  O  O283  1  0.13364907  0.50183362  0.74262526  1
  O  O284  1  0.12800988  0.99255427  0.23968664  1
  O  O285  1  0.13284029  1.00099177  0.74111728  1
  O  O286  1  0.62805721  0.49196657  0.24350110  1
  O  O287  1  0.62698071  0.49419184  0.74525074  1
  O  O288  1  0.63201358  0.99040465  0.24326858  1
  O  O289  1  0.62972245  0.99488158  0.74612062  1
  O  O290  1  0.36123865  -0.00233821  0.24508356  1
  O  O291  1  0.37003847  0.00692955  0.75601533  1
  O  O292  1  0.37068628  0.50926138  0.25858187  1
  O  O293  1  0.37033712  0.50722222  0.75822861  1
  O  O294  1  0.86500078  0.00566428  0.24747740  1
  O  O295  1  0.86901994  0.00587685  0.75319669  1
  O  O296  1  0.86771111  0.50463876  0.25467291  1
  O  O297  1  0.87557742  0.50986095  0.75536978  1
  O  O298  1  0.12403204  0.37492418  0.36157165  1
  O  O299  1  0.11835426  0.37403336  0.87186257  1
  O  O300  1  0.12211839  0.87348026  0.35979986  1
  O  O301  1  0.11835718  0.87079309  0.87388165  1
  O  O302  1  0.61883127  0.37002460  0.36849588  1
  O  O303  1  0.61681601  0.37554844  0.87353277  1
  O  O304  1  0.61903741  0.86840233  0.36812010  1
  O  O305  1  0.62403245  0.86757586  0.87016937  1
  O  O306  1  0.36952122  0.14002593  0.12660537  1
  O  O307  1  0.38141149  0.13266651  0.63252391  1
  O  O308  1  0.38092246  0.62912883  0.13067882  1
  O  O309  1  0.37983246  0.63045023  0.63289938  1
  O  O310  1  0.88236584  0.12267099  0.13521749  1
  O  O311  1  0.88053428  0.13077742  0.62965574  1
  O  O312  1  0.87931064  0.62489508  0.13089470  1
  O  O313  1  0.87958098  0.62927445  0.63030966  1
  O  O314  1  0.25869258  0.25606456  0.11849721  1
  O  O315  1  0.26076288  0.25889528  0.62558985  1
  O  O316  1  0.26147822  0.74923697  0.11767833  1
  O  O317  1  0.25456334  0.75555930  0.62036697  1
  O  O318  1  0.75430663  0.25468751  0.11925812  1
  O  O319  1  0.75665216  0.25508000  0.62076871  1
  O  O320  1  0.74880954  0.76343994  0.12958758  1
  O  O321  1  0.75467590  0.75533046  0.61885909  1
  O  O322  1  0.24796768  0.24774985  0.37841202  1
  O  O323  1  0.25200716  0.24388352  0.88239286  1
  O  O324  1  0.24899478  0.74389614  0.38064482  1
  O  O325  1  0.24601787  0.74494488  0.88083655  1
  O  O326  1  0.74322298  0.24726497  0.38264865  1
  O  O327  1  0.74782914  0.24109937  0.88043637  1
  O  O328  1  0.74109116  0.74196609  0.37981923  1
  O  O329  1  0.73482153  0.74667208  0.86934424  1
  O  O330  1  -0.01017040  0.11926065  0.01271169  1
  O  O331  1  0.00864226  0.12521016  0.50522613  1
  O  O332  1  0.00496588  0.62142794  0.00441572  1
  O  O333  1  0.00657580  0.62453144  0.50511218  1
  O  O334  1  0.50909820  0.11398364  -0.00556017  1
  O  O335  1  0.50795256  0.11817850  0.50747255  1
  O  O336  1  0.50862626  0.62533450  0.01386130  1
  O  O337  1  0.50603423  0.62230182  0.50853591  1
  O  O338  1  0.50704745  0.37620680  0.48681963  1
  O  O339  1  0.48948153  0.36896984  0.99138245  1
  O  O340  1  0.49977646  0.87970805  0.49212193  1
  O  O341  1  0.49392414  0.88746354  0.99853953  1
  O  O342  1  0.99286263  0.37637427  0.49785258  1
  O  O343  1  0.99410541  0.38127821  0.99510107  1
  O  O344  1  0.98705899  0.87376102  0.49787607  1
  O  O345  1  0.98961247  0.88256018  0.99451177  1
  O  O346  1  0.49288723  0.49147310  0.37647869  1
  O  O347  1  0.49323793  0.48697939  0.87104745  1
  O  O348  1  0.50336040  0.98620216  0.38326151  1
  O  O349  1  0.49284702  0.99875022  0.88502971  1
  O  O350  1  0.99009989  0.49762539  0.37632537  1
  O  O351  1  0.99516784  0.49623452  0.88071602  1
  O  O352  1  0.99347838  0.99378306  0.37639471  1
  O  O353  1  0.99434589  0.99723064  0.87904094  1
  O  O354  1  0.00503670  0.00716489  0.12074827  1
  O  O355  1  0.00674113  0.00807072  0.62152515  1
  O  O356  1  0.00289946  0.50827717  0.11820666  1
  O  O357  1  0.00784446  0.50718210  0.62239233  1
  O  O358  1  0.51034720  -0.00592641  0.11618688  1
  O  O359  1  0.50551152  0.00510874  0.62222249  1
  O  O360  1  0.50923975  0.50912353  0.13310572  1
  O  O361  1  0.50518785  0.50563350  0.62547507  1
  O  O362  1  0.24257311  0.38054395  0.24531645  1
  O  O363  1  0.25100906  0.38275661  0.74120663  1
  O  O364  1  0.23899871  0.88248025  0.24475870  1
  O  O365  1  0.24863039  0.88416379  0.74321929  1
  O  O366  1  0.73721468  0.37977803  0.25140953  1
  O  O367  1  0.74440245  0.37517318  0.74543182  1
  O  O368  1  0.74162114  0.88117419  0.24276406  1
  O  O369  1  0.74485336  0.88064928  0.74369778  1
  O  O370  1  0.24469402  0.11167503  0.24855169  1
  O  O371  1  0.25683404  0.12157426  0.75768734  1
  O  O372  1  0.25889721  0.62001004  0.25452881  1
  O  O373  1  0.25703561  0.62064204  0.75664457  1
  O  O374  1  0.75679945  0.11501793  0.24824845  1
  O  O375  1  0.75566506  0.11980719  0.75428755  1
  O  O376  1  0.75313906  0.61911457  0.25525155  1
  O  O377  1  0.76452018  0.62428455  0.74996610  1
  O  O378  1  0.37371333  0.11862506  0.36620355  1
  O  O379  1  0.36741606  0.12123153  0.87075485  1
  O  O380  1  0.37230375  0.61967296  0.36701499  1
  O  O381  1  0.37141106  0.62114270  0.87305749  1
  O  O382  1  0.87299915  0.12324322  0.36079529  1
  O  O383  1  0.87108613  0.11907037  0.86860070  1
  O  O384  1  0.86701344  0.61951156  0.36953441  1
  O  O385  1  0.87562329  0.62188880  0.86666127  1
  O  O386  1  0.13130448  0.37746439  0.13542572  1
  O  O387  1  0.13593203  0.38216910  0.62817670  1
  O  O388  1  0.12279209  0.88381143  0.13323345  1
  O  O389  1  0.13151362  0.88278752  0.62460381  1
  O  O390  1  0.62085714  0.38179426  0.13267219  1
  O  O391  1  0.63019203  0.37963044  0.63223455  1
  O  O392  1  0.62845056  0.88087226  0.13085856  1
  O  O393  1  0.62984982  0.87907637  0.63061199  1
  O  O394  1  0.11708078  0.25872836  0.24768956  1
  O  O395  1  0.11712490  0.25196827  0.75070419  1
  O  O396  1  0.11653191  0.75844362  0.24696553  1
  O  O397  1  0.12345555  0.75307314  0.75825783  1
  O  O398  1  0.62672416  0.25861084  0.25479786  1
  O  O399  1  0.61839561  0.25716228  0.75346906  1
  O  O400  1  0.62909599  0.76175255  0.25579143  1
  O  O401  1  0.61948819  0.75413807  0.75773839  1
  O  O402  1  0.37521669  0.25322133  0.23463564  1
  O  O403  1  0.38225502  0.24525897  0.74233650  1
  O  O404  1  0.36580560  0.73937625  0.23991161  1
  O  O405  1  0.37960848  0.74483685  0.74671913  1
  O  O406  1  0.88207753  0.24242553  0.24757017  1
  O  O407  1  0.88116831  0.24456131  0.74470024  1
  O  O408  1  0.88151142  0.74333622  0.24747483  1
  O  O409  1  0.87665998  0.74189217  0.74311306  1
  O  O410  1  0.37501551  0.50733280  0.48432005  1
  O  O411  1  0.36935307  0.48766945  0.99618416  1
  O  O412  1  0.38456545  0.99735223  0.49891253  1
  O  O413  1  0.38130098  0.99740232  0.99882923  1
  O  O414  1  0.87442320  0.49277452  0.49357644  1
  O  O415  1  0.88157212  0.49405712  0.99507511  1
  O  O416  1  0.87390253  0.98790482  0.49836763  1
  O  O417  1  0.87959834  0.99126358  0.99340619  1
  O  O418  1  0.11739345  -0.00708500  0.01221281  1
  O  O419  1  0.12410655  0.00934508  0.50523990  1
  O  O420  1  0.12003990  0.50792642  0.00119252  1
  O  O421  1  0.12540041  0.50802729  0.50656196  1
  O  O422  1  0.61763853  0.00509765  0.00671463  1
  O  O423  1  0.62105701  0.00358525  0.50809426  1
  O  O424  1  0.62665634  0.50761910  0.01298741  1
  O  O425  1  0.62366478  0.50577032  0.50844727  1
  O  O426  1  0.37126847  0.37065484  0.11925250  1
  O  O427  1  0.36885303  0.36621511  0.63149079  1
  O  O428  1  0.37484576  0.86439185  0.12024240  1
  O  O429  1  0.36813892  0.86797118  0.62428507  1
  O  O430  1  0.87479309  0.37633164  0.11339523  1
  O  O431  1  0.87049162  0.36943990  0.62041194  1
  O  O432  1  0.86456893  0.87479475  0.11582681  1
  O  O433  1  0.86886139  0.87012470  0.61630874  1
  O  O434  1  0.12593018  0.12547853  0.38483352  1
  O  O435  1  0.13965317  0.12671285  0.87119288  1
  O  O436  1  0.13298964  0.62570384  0.37971231  1
  O  O437  1  0.13102192  0.63132790  0.88060795  1
  O  O438  1  0.62790828  0.12999612  0.38449009  1
  O  O439  1  0.63136653  0.12428446  0.88504040  1
  O  O440  1  0.62750413  0.62739298  0.37878543  1
  O  O441  1  0.62389398  0.63132524  0.88601945  1
