# generated using pymatgen
data_V93Zn93O256
_symmetry_space_group_name_H-M   'P 1'
_cell_length_a   17.04704067
_cell_length_b   17.04885100
_cell_length_c   17.04995347
_cell_angle_alpha   89.99718517
_cell_angle_beta   89.94276993
_cell_angle_gamma   90.04330150
_symmetry_Int_Tables_number   1
_chemical_formula_structural   V93Zn93O256
_chemical_formula_sum   'V93 Zn93 O256'
_cell_volume   4955.26596446
_cell_formula_units_Z   1
loop_
 _symmetry_equiv_pos_site_id
 _symmetry_equiv_pos_as_xyz
  1  'x, y, z'
loop_
 _atom_site_type_symbol
 _atom_site_label
 _atom_site_symmetry_multiplicity
 _atom_site_fract_x
 _atom_site_fract_y
 _atom_site_fract_z
 _atom_site_occupancy
  V  V0  1  0.00087731  0.87593534  0.87398663  1
  V  V1  1  0.49930513  0.24938729  0.75116038  1
  V  V2  1  0.37387597  0.49814280  0.37562164  1
  V  V3  1  0.37546005  0.74853259  0.62738655  1
  V  V4  1  0.12389701  0.24497368  0.87777516  1
  V  V5  1  0.00875610  0.25938660  0.24673526  1
  V  V6  1  0.00535201  0.12282262  0.60956290  1
  V  V7  1  0.12450223  0.87545380  0.24961700  1
  V  V8  1  0.37434227  0.24858865  0.62467982  1
  V  V9  1  0.37405280  0.74958920  0.12549335  1
  V  V10  1  0.75216734  0.12540632  0.37495374  1
  V  V11  1  0.62317094  0.62473251  0.00010916  1
  V  V12  1  0.12446883  0.75059877  0.87422497  1
  V  V13  1  0.62357905  0.49894649  0.12654346  1
  V  V14  1  0.61994860  0.87438564  0.75346477  1
  V  V15  1  0.49932395  0.12198167  0.12520219  1
  V  V16  1  0.87470104  0.25150036  0.12399410  1
  V  V17  1  0.00024724  0.24815149  0.74813938  1
  V  V18  1  0.24495147  0.24425084  0.00117309  1
  V  V19  1  0.62544123  0.49883411  0.62650549  1
  V  V20  1  0.49838167  0.37301516  0.87556615  1
  V  V21  1  0.37436115  0.62445644  0.75092606  1
  V  V22  1  0.24829526  0.49816336  0.75047235  1
  V  V23  1  0.49799369  0.62341268  0.12659324  1
  V  V24  1  0.37301749  0.24859880  0.12545810  1
  V  V25  1  0.62542809  0.25014579  0.37445807  1
  V  V26  1  0.37425158  0.37378197  0.50050736  1
  V  V27  1  0.00360717  0.00304617  -0.00240827  1
  V  V28  1  -0.00113288  0.37538679  0.87317761  1
  V  V29  1  0.38199689  0.87436849  -0.00303237  1
  V  V30  1  0.87552560  0.87664590  -0.00120664  1
  V  V31  1  0.49937679  0.62483599  0.62749766  1
  V  V32  1  0.75179679  0.25050995  0.49944101  1
  V  V33  1  0.37290367  0.49884398  0.87641421  1
  V  V34  1  0.50086761  0.12461752  0.62538555  1
  V  V35  1  0.87501459  0.50138121  0.37474193  1
  V  V36  1  0.37482691  0.12292501  0.75030109  1
  V  V37  1  0.12475604  0.62526126  0.50036856  1
  V  V38  1  0.25015103  0.87466182  0.12495922  1
  V  V39  1  0.62597230  0.62647961  0.50127405  1
  V  V40  1  0.62759138  0.12511412  0.50085764  1
  V  V41  1  0.75048199  0.87684693  0.12548351  1
  V  V42  1  0.24475660  0.49297667  0.24970400  1
  V  V43  1  0.00393094  0.12650364  0.12019958  1
  V  V44  1  0.87666438  0.37681701  0.49835617  1
  V  V45  1  0.24970963  0.87542124  0.62589791  1
  V  V46  1  0.88217276  0.87743519  0.50057694  1
  V  V47  1  -0.00712140  0.63035790  0.62464591  1
  V  V48  1  0.75730911  0.87090933  0.62599228  1
  V  V49  1  -0.00805851  0.75101050  0.74720280  1
  V  V50  1  0.12354506  0.49462735  0.12787458  1
  V  V51  1  0.24851967  -0.00130205  0.74940196  1
  V  V52  1  -0.00033086  0.50202174  -0.00189838  1
  V  V53  1  0.37342766  0.62416494  0.25078246  1
  V  V54  1  0.62475468  0.12371111  0.00125630  1
  V  V55  1  -0.00017009  0.75178598  0.25112367  1
  V  V56  1  0.61801552  0.75421642  0.87519081  1
  V  V57  1  0.24908265  0.74910773  -0.00081579  1
  V  V58  1  0.24795098  0.37401387  0.62496294  1
  V  V59  1  0.75228477  0.12531042  0.87397276  1
  V  V60  1  0.24810331  0.62432318  0.87550719  1
  V  V61  1  0.37630129  0.00208611  0.37371991  1
  V  V62  1  0.24907423  0.62468216  0.37622278  1
  V  V63  1  -0.00071242  0.50211572  0.49982475  1
  V  V64  1  0.37805551  0.87261241  0.50166759  1
  V  V65  1  0.87584768  0.12694613  0.24869132  1
  V  V66  1  0.87512616  0.62617575  0.24957682  1
  V  V67  1  0.50076315  0.74931160  0.25183518  1
  V  V68  1  -0.00035780  0.62610807  0.12341672  1
  V  V69  1  0.38111907  -0.00428680  0.87599678  1
  V  V70  1  0.50309501  -0.00156207  0.50053438  1
  V  V71  1  0.25097722  0.74765755  0.50128243  1
  V  V72  1  0.49724549  0.49808185  0.00162384  1
  V  V73  1  0.75513431  0.74968504  0.50157969  1
  V  V74  1  0.88457770  0.00131450  0.37859760  1
  V  V75  1  0.12745199  0.25174363  0.38209110  1
  V  V76  1  0.74975208  0.75139686  0.00053669  1
  V  V77  1  0.75062261  0.62382553  0.87296811  1
  V  V78  1  0.12577263  0.00292745  0.12161277  1
  V  V79  1  0.75219007  0.00027383  0.75067627  1
  V  V80  1  0.75099105  0.00016059  0.24966318  1
  V  V81  1  0.12436859  0.00431036  0.61114938  1
  V  V82  1  0.50567100  0.87240806  0.37554130  1
  V  V83  1  0.37139817  0.37248265  0.00120334  1
  V  V84  1  0.49980359  0.25005675  0.25158545  1
  V  V85  1  0.87201883  0.37600712  -0.00145617  1
  V  V86  1  0.87712863  0.24931369  0.62305215  1
  V  V87  1  0.74908942  0.50025353  0.24922150  1
  V  V88  1  0.49927218  0.49959243  0.50024009  1
  V  V89  1  0.62760922  -0.00026082  0.62565512  1
  V  V90  1  0.62288148  0.24940291  0.87508346  1
  V  V91  1  0.24789166  0.12349671  0.87643691  1
  V  V92  1  0.74918636  0.37541452  0.62558454  1
  Zn  Zn93  1  0.62792902  0.74829849  0.37410563  1
  Zn  Zn94  1  0.50286159  -0.00548447  -0.00178668  1
  Zn  Zn95  1  0.50058872  0.37467345  0.37574833  1
  Zn  Zn96  1  0.87152330  0.62534982  0.74576614  1
  Zn  Zn97  1  0.12353775  0.37592160  0.74932266  1
  Zn  Zn98  1  0.87483653  0.75038640  0.12469688  1
  Zn  Zn99  1  0.24520948  0.24025774  0.50384736  1
  Zn  Zn100  1  0.00469440  0.88040501  0.38075110  1
  Zn  Zn101  1  0.00592001  0.38086834  0.36802456  1
  Zn  Zn102  1  0.62577329  0.37556705  0.75151497  1
  Zn  Zn103  1  0.12381289  0.62495538  -0.00063323  1
  Zn  Zn104  1  0.75068153  0.49862499  0.75016783  1
  Zn  Zn105  1  0.25221534  0.00125952  0.24995840  1
  Zn  Zn106  1  0.37071067  0.12374626  0.25188973  1
  Zn  Zn107  1  0.74910780  0.62783950  0.37475366  1
  Zn  Zn108  1  0.62739255  0.87414558  0.24970744  1
  Zn  Zn109  1  0.24285792  0.36939953  0.12845287  1
  Zn  Zn110  1  0.74609370  0.37291985  0.12350266  1
  Zn  Zn111  1  0.87823075  0.00243198  0.87261204  1
  Zn  Zn112  1  0.49738301  0.75270854  0.75432349  1
  Zn  Zn113  1  0.12241122  0.49990863  0.62592725  1
  Zn  Zn114  1  0.62533992  0.37512258  0.25058040  1
  Zn  Zn115  1  0.87627101  0.12350787  0.74691707  1
  Zn  Zn116  1  0.23734698  0.11733883  0.38003267  1
  Zn  Zn117  1  0.12293966  0.87586427  0.74747877  1
  Zn  Zn118  1  0.62454813  -0.00045514  0.12690765  1
  Zn  Zn119  1  0.12690909  0.75236167  0.37611628  1
  Zn  Zn120  1  0.87496174  0.50174549  0.87130412  1
  Zn  Zn121  1  0.74944853  0.25054284  0.00091846  1
  Zn  Zn122  1  0.18930764  0.18399319  0.19467673  1
  Zn  Zn123  1  0.18564843  0.18531791  0.68824994  1
  Zn  Zn124  1  0.18584714  0.68416783  0.18661823  1
  Zn  Zn125  1  0.18277780  0.68710358  0.68859313  1
  Zn  Zn126  1  0.68815006  0.18818796  0.18740623  1
  Zn  Zn127  1  0.68772010  0.18964648  0.68861633  1
  Zn  Zn128  1  0.68636192  0.68798288  0.18757687  1
  Zn  Zn129  1  0.68656322  0.68901605  0.68771783  1
  Zn  Zn130  1  0.31227547  0.31130107  0.31362856  1
  Zn  Zn131  1  0.31173361  0.31095283  0.81205802  1
  Zn  Zn132  1  0.31355585  0.81358573  0.31371044  1
  Zn  Zn133  1  0.31166381  0.81284592  0.81265181  1
  Zn  Zn134  1  0.81625584  0.31506679  0.31106998  1
  Zn  Zn135  1  0.81226645  0.31150485  0.81070446  1
  Zn  Zn136  1  0.81465443  0.81364615  0.31530452  1
  Zn  Zn137  1  0.81122104  0.81320888  0.81519242  1
  Zn  Zn138  1  0.18414753  0.43350278  0.43691653  1
  Zn  Zn139  1  0.18398378  0.43415532  0.93907454  1
  Zn  Zn140  1  0.19164403  0.93397353  0.43697514  1
  Zn  Zn141  1  0.18930664  0.93522258  0.93699541  1
  Zn  Zn142  1  0.68688591  0.43740617  0.43658611  1
  Zn  Zn143  1  0.68497652  0.43814748  0.93750687  1
  Zn  Zn144  1  0.69272030  0.93856520  0.43803224  1
  Zn  Zn145  1  0.68789285  0.93934159  0.93706984  1
  Zn  Zn146  1  0.31280051  0.06168498  0.06156518  1
  Zn  Zn147  1  0.31077325  0.06183178  0.55925406  1
  Zn  Zn148  1  0.30909596  0.56193687  0.06353571  1
  Zn  Zn149  1  0.31189117  0.56044612  0.56371484  1
  Zn  Zn150  1  0.81529784  0.06261793  0.06158416  1
  Zn  Zn151  1  0.81714029  0.06200293  0.56312449  1
  Zn  Zn152  1  0.81204515  0.56327399  0.06218512  1
  Zn  Zn153  1  0.81205820  0.56233976  0.56300612  1
  Zn  Zn154  1  0.43314396  0.43432545  0.18826685  1
  Zn  Zn155  1  0.43665180  0.43685837  0.68849122  1
  Zn  Zn156  1  0.43849665  0.93580861  0.18858790  1
  Zn  Zn157  1  0.43742233  0.93803142  0.68735880  1
  Zn  Zn158  1  0.93469885  0.43950131  0.18411919  1
  Zn  Zn159  1  0.93443979  0.44095969  0.68712565  1
  Zn  Zn160  1  0.93670273  0.93873156  0.18761416  1
  Zn  Zn161  1  0.94052625  0.94169364  0.68682973  1
  Zn  Zn162  1  0.06324774  0.06900274  0.30785710  1
  Zn  Zn163  1  0.06503116  0.06310236  0.80560345  1
  Zn  Zn164  1  0.06300652  0.56472991  0.31298447  1
  Zn  Zn165  1  0.06224871  0.56368801  0.81005702  1
  Zn  Zn166  1  0.56470752  0.06177163  0.31191331  1
  Zn  Zn167  1  0.56388557  0.06186663  0.81216505  1
  Zn  Zn168  1  0.56323633  0.56335231  0.31573259  1
  Zn  Zn169  1  0.56259627  0.56152438  0.81226387  1
  Zn  Zn170  1  0.43684478  0.18662379  0.44063519  1
  Zn  Zn171  1  0.43481252  0.18490008  0.93854577  1
  Zn  Zn172  1  0.43750997  0.68535973  0.43903911  1
  Zn  Zn173  1  0.43589286  0.68568430  0.93860486  1
  Zn  Zn174  1  0.94086304  0.19172764  0.43208473  1
  Zn  Zn175  1  0.93721667  0.18896733  0.93806054  1
  Zn  Zn176  1  0.93664778  0.68929441  0.43600490  1
  Zn  Zn177  1  0.93599474  0.69001993  0.93692218  1
  Zn  Zn178  1  0.06082927  0.31475696  0.05899930  1
  Zn  Zn179  1  0.06129816  0.31428946  0.56017261  1
  Zn  Zn180  1  0.06229176  0.81377412  0.06172043  1
  Zn  Zn181  1  0.06563999  0.81240235  0.56546769  1
  Zn  Zn182  1  0.56175158  0.31160474  0.06372366  1
  Zn  Zn183  1  0.56227106  0.31321050  0.56257959  1
  Zn  Zn184  1  0.56416982  0.80987596  0.06552380  1
  Zn  Zn185  1  0.56606158  0.81018481  0.56567409  1
  O  O186  1  0.11500567  0.11328063  0.13172904  1
  O  O187  1  0.11783390  0.11695595  0.62826601  1
  O  O188  1  0.11787891  0.61524412  0.12174674  1
  O  O189  1  0.11506674  0.62298920  0.61770453  1
  O  O190  1  0.61761949  0.12506389  0.11653481  1
  O  O191  1  0.62123744  0.11963882  0.62044184  1
  O  O192  1  0.61717236  0.61986155  0.11958619  1
  O  O193  1  0.61933566  0.61983215  0.62068427  1
  O  O194  1  0.37592496  0.38066173  0.38263113  1
  O  O195  1  0.37851532  0.37898995  0.88138372  1
  O  O196  1  0.38673908  0.88041371  0.38123862  1
  O  O197  1  0.36890550  0.88346502  0.88548538  1
  O  O198  1  0.87737333  0.38342460  0.38187047  1
  O  O199  1  0.87966564  0.37406294  0.88392247  1
  O  O200  1  0.87808133  0.88544039  0.38224920  1
  O  O201  1  0.88187605  0.87899168  0.88175904  1
  O  O202  1  0.26501016  -0.00489379  0.37411030  1
  O  O203  1  0.25754765  0.00435100  0.87117959  1
  O  O204  1  0.25311669  0.50427628  0.36803077  1
  O  O205  1  0.25398978  0.50307266  0.87158804  1
  O  O206  1  0.76006693  0.00647137  0.36944370  1
  O  O207  1  0.75079727  0.01052434  0.86982118  1
  O  O208  1  0.75525235  0.50283111  0.36537162  1
  O  O209  1  0.74660381  0.51317983  0.87520829  1
  O  O210  1  0.24087470  0.49975324  0.13274988  1
  O  O211  1  0.25022928  0.48919570  0.63146654  1
  O  O212  1  0.24052957  0.99486059  0.12395201  1
  O  O213  1  0.24547621  0.99514312  0.63009779  1
  O  O214  1  0.74268489  0.50082974  0.13353610  1
  O  O215  1  0.74279912  0.49325639  0.62417219  1
  O  O216  1  0.75134835  0.99256505  0.13022609  1
  O  O217  1  0.74535528  0.99322157  0.63007593  1
  O  O218  1  -0.00992242  0.36364483  0.24842898  1
  O  O219  1  -0.00096552  0.36345051  0.75336461  1
  O  O220  1  0.00850855  0.86804187  0.24755604  1
  O  O221  1  0.00018862  0.86799953  0.75515696  1
  O  O222  1  0.49990943  0.36102462  0.25082741  1
  O  O223  1  0.49852858  0.36707887  0.75813308  1
  O  O224  1  0.50200637  0.86817205  0.25953517  1
  O  O225  1  0.51608958  0.87445161  0.74361974  1
  O  O226  1  0.50162013  0.13324807  0.24056713  1
  O  O227  1  0.49484312  0.12856560  0.74464968  1
  O  O228  1  0.49296333  0.62886655  0.24604854  1
  O  O229  1  0.49177385  0.62525365  0.74500892  1
  O  O230  1  0.99427849  0.13441247  0.23654144  1
  O  O231  1  0.99851508  0.13793892  0.74432284  1
  O  O232  1  0.99588426  0.63383398  0.24419203  1
  O  O233  1  0.99861560  0.63348850  0.74181700  1
  O  O234  1  0.36553717  0.25308150  0.00475577  1
  O  O235  1  0.37661059  0.25733786  0.50817544  1
  O  O236  1  0.37020269  0.75617162  0.00482419  1
  O  O237  1  0.37095930  0.75309992  0.50788831  1
  O  O238  1  0.87520614  0.26011025  0.00538178  1
  O  O239  1  0.87057965  0.25616704  0.50300680  1
  O  O240  1  0.86774941  0.75902498  0.00196868  1
  O  O241  1  0.86325668  0.76111940  0.49281761  1
  O  O242  1  0.12372140  0.25194007  0.48597451  1
  O  O243  1  0.13268643  0.25395395  0.98982317  1
  O  O244  1  0.13349816  0.74456866  0.49849551  1
  O  O245  1  0.13152939  0.75008578  0.99344237  1
  O  O246  1  0.63123837  0.24389311  0.49545297  1
  O  O247  1  0.62496979  0.23862124  0.99488973  1
  O  O248  1  0.63623745  0.74491596  0.50053893  1
  O  O249  1  0.62903252  0.74532473  0.99361302  1
  O  O250  1  0.49487865  0.24097808  0.13202279  1
  O  O251  1  0.49477021  0.24375079  0.63071978  1
  O  O252  1  0.49380578  0.74282008  0.13110404  1
  O  O253  1  0.49345497  0.74285623  0.62787910  1
  O  O254  1  0.99683816  0.24390221  0.12662886  1
  O  O255  1  0.99820576  0.24419085  0.63117022  1
  O  O256  1  0.99966153  0.74619786  0.13484486  1
  O  O257  1  1.00673930  0.74230250  0.63628258  1
  O  O258  1  0.00900033  0.25389471  0.36378812  1
  O  O259  1  0.00577289  0.25298447  0.86820523  1
  O  O260  1  0.00323669  0.75248832  0.36057850  1
  O  O261  1  0.00524785  0.75569462  0.86848785  1
  O  O262  1  0.50540661  0.24725579  0.36608427  1
  O  O263  1  0.50237656  0.25270691  0.87093372  1
  O  O264  1  0.49936769  0.75855590  0.37164820  1
  O  O265  1  0.51385282  0.74454882  0.87562657  1
  O  O266  1  0.26051471  0.13010992  0.48982422  1
  O  O267  1  0.25503120  0.13713158  0.99398668  1
  O  O268  1  0.24544934  0.62832749  0.49613325  1
  O  O269  1  0.24952775  0.63190907  0.99306784  1
  O  O270  1  0.74680390  0.13066095  0.49543484  1
  O  O271  1  0.74181797  0.12471363  0.99208808  1
  O  O272  1  0.74624445  0.63562697  0.50214869  1
  O  O273  1  0.74220217  0.63081904  0.99470835  1
  O  O274  1  0.25398142  0.36138082  0.00096244  1
  O  O275  1  0.25585713  0.37221571  0.51097823  1
  O  O276  1  0.25954902  0.86873966  0.00616780  1
  O  O277  1  0.25893814  0.86717161  0.50640716  1
  O  O278  1  0.75986059  0.37356390  -0.00051572  1
  O  O279  1  0.75596720  0.36924930  0.50505277  1
  O  O280  1  0.75492876  0.87273799  0.00663533  1
  O  O281  1  0.75709831  0.86932674  0.50766321  1
  O  O282  1  0.13396352  0.50729054  0.24119480  1
  O  O283  1  0.13279027  0.49569697  0.74744104  1
  O  O284  1  0.12283653  0.99018237  0.23944924  1
  O  O285  1  0.13432327  0.99731232  0.74181837  1
  O  O286  1  0.63271401  0.50071520  0.24560746  1
  O  O287  1  0.62677172  0.49658105  0.74202955  1
  O  O288  1  0.63561034  0.99683983  0.24812552  1
  O  O289  1  0.63170396  0.99267880  0.74668782  1
  O  O290  1  0.37533818  -0.00192091  0.26065290  1
  O  O291  1  0.37000126  0.00269468  0.75751788  1
  O  O292  1  0.36652246  0.50582387  0.25453063  1
  O  O293  1  0.36849776  0.50461123  0.75745404  1
  O  O294  1  0.87065446  0.00689392  0.25685191  1
  O  O295  1  0.86758268  0.00391583  0.75312189  1
  O  O296  1  0.86756592  0.50643816  0.25329990  1
  O  O297  1  0.86925034  0.50607721  0.75435376  1
  O  O298  1  0.12120083  0.36141217  0.37353218  1
  O  O299  1  0.11766715  0.36266462  0.87288182  1
  O  O300  1  0.12282231  0.87502513  0.36371601  1
  O  O301  1  0.11850465  0.86889320  0.87323262  1
  O  O302  1  0.62163504  0.36605526  0.37247375  1
  O  O303  1  0.61601402  0.36732117  0.87650702  1
  O  O304  1  0.61451530  0.87486292  0.37669732  1
  O  O305  1  0.63375935  0.86600868  0.86544250  1
  O  O306  1  0.38485741  0.12937316  0.12527652  1
  O  O307  1  0.38200526  0.12760268  0.63118046  1
  O  O308  1  0.37885504  0.62984407  0.13043863  1
  O  O309  1  0.37884043  0.62908433  0.63148796  1
  O  O310  1  0.88432421  0.13062965  0.12832514  1
  O  O311  1  0.88525755  0.13117449  0.62597981  1
  O  O312  1  0.88172258  0.62743719  0.13121165  1
  O  O313  1  0.88887649  0.62537735  0.62317591  1
  O  O314  1  0.25200830  0.24808312  0.11776398  1
  O  O315  1  0.25584603  0.25776019  0.62713670  1
  O  O316  1  0.25518257  0.75376587  0.11999061  1
  O  O317  1  0.25587660  0.75411283  0.62141842  1
  O  O318  1  0.75862286  0.25196027  0.12228305  1
  O  O319  1  0.75624593  0.25368105  0.61855540  1
  O  O320  1  0.75052229  0.75984083  0.11914391  1
  O  O321  1  0.74685929  0.76242643  0.61722297  1
  O  O322  1  0.23474128  0.25213769  0.37316304  1
  O  O323  1  0.24294877  0.24473770  0.88096740  1
  O  O324  1  0.25175150  0.74339285  0.38274938  1
  O  O325  1  0.24505268  0.74434489  0.87949516  1
  O  O326  1  0.74704406  0.24455302  0.37935054  1
  O  O327  1  0.74268718  0.23990962  0.87573893  1
  O  O328  1  0.74718018  0.75016490  0.38571949  1
  O  O329  1  0.73977191  0.74336708  0.88109319  1
  O  O330  1  -0.00403274  0.11724465  0.01032233  1
  O  O331  1  -0.00244987  0.13134693  0.51126306  1
  O  O332  1  -0.00084182  0.62002961  0.00540792  1
  O  O333  1  0.00404069  0.62404331  0.50599465  1
  O  O334  1  0.50752733  0.12499442  0.00939577  1
  O  O335  1  0.50806074  0.11860459  0.50651179  1
  O  O336  1  0.50279695  0.61795383  0.00685707  1
  O  O337  1  0.50449247  0.61923109  0.50778154  1
  O  O338  1  0.49239204  0.38197177  0.50024138  1
  O  O339  1  0.49187351  0.37835976  0.99542061  1
  O  O340  1  0.49826817  0.87786583  0.49490100  1
  O  O341  1  0.48609991  0.87473302  1.00837193  1
  O  O342  1  0.99227797  0.38469590  0.50009207  1
  O  O343  1  0.99025636  0.38075638  0.99312085  1
  O  O344  1  0.98636556  0.86517937  0.49946774  1
  O  O345  1  0.99557896  0.88396369  0.99528206  1
  O  O346  1  0.49194718  0.49878051  0.38167431  1
  O  O347  1  0.49308088  0.49438150  0.88219274  1
  O  O348  1  0.49738670  0.99021349  0.38043625  1
  O  O349  1  0.48493453  1.00588229  0.87681025  1
  O  O350  1  0.99310752  0.50116115  0.38036296  1
  O  O351  1  0.99920229  0.49376320  0.88004756  1
  O  O352  1  0.98753828  1.00202942  0.36703478  1
  O  O353  1  1.00329664  0.99799546  0.88302872  1
  O  O354  1  0.00587103  0.00668343  0.11772854  1
  O  O355  1  0.01198005  0.01130814  0.63051471  1
  O  O356  1  0.00586846  0.50619839  0.12019037  1
  O  O357  1  0.00116798  0.51045660  0.61832655  1
  O  O358  1  0.50166099  0.01087951  0.12416998  1
  O  O359  1  0.50721219  0.00486032  0.62003661  1
  O  O360  1  0.50199133  0.50432638  0.12135294  1
  O  O361  1  0.50394719  0.50507237  0.62004381  1
  O  O362  1  0.25620065  0.38992047  0.24729253  1
  O  O363  1  0.25091433  0.37919293  0.74075017  1
  O  O364  1  0.24030005  0.87494255  0.24356924  1
  O  O365  1  0.25007012  0.88094972  0.74260544  1
  O  O366  1  0.75061454  0.38885099  0.24702582  1
  O  O367  1  0.74677171  0.37502918  0.74122359  1
  O  O368  1  0.75211024  0.88016891  0.24087477  1
  O  O369  1  0.74410759  0.87869946  0.74284339  1
  O  O370  1  0.25441251  0.11815369  0.26015454  1
  O  O371  1  0.25695686  0.11865179  0.75594199  1
  O  O372  1  0.25503292  0.61719528  0.25552649  1
  O  O373  1  0.25489493  0.61895847  0.75546858  1
  O  O374  1  0.75669752  0.12110735  0.25523535  1
  O  O375  1  0.74889792  0.11982381  0.75903545  1
  O  O376  1  0.75537300  0.61632582  0.24944694  1
  O  O377  1  0.75017163  0.62721439  0.76051777  1
  O  O378  1  0.38640821  0.10758206  0.37402240  1
  O  O379  1  0.36804164  0.11617118  0.87020230  1
  O  O380  1  0.36886328  0.61801489  0.37082912  1
  O  O381  1  0.36848343  0.61834556  0.87110482  1
  O  O382  1  0.87141256  0.11995045  0.36999785  1
  O  O383  1  0.86289421  0.12630409  0.87428684  1
  O  O384  1  0.87255145  0.61907293  0.36731666  1
  O  O385  1  0.86000302  0.62588365  0.87712391  1
  O  O386  1  0.12367504  0.39022622  0.12028678  1
  O  O387  1  0.13691118  0.37535502  0.62556783  1
  O  O388  1  0.12928211  0.88306611  0.13156680  1
  O  O389  1  0.13264191  0.88438504  0.62653688  1
  O  O390  1  0.62597453  0.38276603  0.12773499  1
  O  O391  1  0.63134295  0.38048202  0.62529605  1
  O  O392  1  0.63793727  0.87799623  0.12454614  1
  O  O393  1  0.63634386  0.88043858  0.63274102  1
  O  O394  1  0.11335476  0.25049002  0.25069715  1
  O  O395  1  0.11601061  0.25279145  0.75839326  1
  O  O396  1  0.11836602  0.75968479  0.24825561  1
  O  O397  1  0.11467988  0.75268406  0.75739130  1
  O  O398  1  0.61646324  0.24992034  0.25528755  1
  O  O399  1  0.61625092  0.25033968  0.75715452  1
  O  O400  1  0.61664288  0.75254538  0.25333305  1
  O  O401  1  0.62388885  0.75831762  0.75852421  1
  O  O402  1  0.38372488  0.24655780  0.24539410  1
  O  O403  1  0.37997235  0.24192117  0.74548319  1
  O  O404  1  0.37998378  0.74446548  0.24485713  1
  O  O405  1  0.37689080  0.74343590  0.74613182  1
  O  O406  1  0.88279015  0.24473159  0.24362117  1
  O  O407  1  0.88482197  0.24875552  0.74218772  1
  O  O408  1  0.88407191  0.74627113  0.24840430  1
  O  O409  1  0.88806868  0.74816026  0.75652761  1
  O  O410  1  0.37930294  0.49437295  0.49520242  1
  O  O411  1  0.37765923  0.49379686  0.99604461  1
  O  O412  1  0.38461800  0.99114167  0.49433936  1
  O  O413  1  0.37497207  0.99098884  0.99269175  1
  O  O414  1  0.87946038  0.49684755  0.49385841  1
  O  O415  1  0.88012920  0.49104443  0.99807025  1
  O  O416  1  0.86931230  0.99050127  0.48879895  1
  O  O417  1  0.88822673  0.99587409  0.99793626  1
  O  O418  1  0.11529005  -0.00724918  0.01093340  1
  O  O419  1  0.13139711  -0.00461560  0.51213632  1
  O  O420  1  0.11808597  0.50237934  0.00789880  1
  O  O421  1  0.11734334  0.50748846  0.50018294  1
  O  O422  1  0.62140264  0.01148575  0.00039323  1
  O  O423  1  0.62299252  0.00542140  0.50559842  1
  O  O424  1  0.61641737  0.50523394  0.00602841  1
  O  O425  1  0.61958645  0.50588231  0.50632122  1
  O  O426  1  0.37070989  0.36604982  0.11814318  1
  O  O427  1  0.36686307  0.36911505  0.62140477  1
  O  O428  1  0.36932943  0.86920798  0.11869392  1
  O  O429  1  0.37121280  0.86934678  0.62065902  1
  O  O430  1  0.87373099  0.37063589  0.11216587  1
  O  O431  1  0.86956226  0.36890028  0.61782651  1
  O  O432  1  0.86548659  0.87557808  0.11842144  1
  O  O433  1  0.86427807  0.88560648  0.61581251  1
  O  O434  1  0.12173927  0.14424160  0.36723238  1
  O  O435  1  0.13089642  0.13781910  0.86835475  1
  O  O436  1  0.13211259  0.62868009  0.38183281  1
  O  O437  1  0.13126293  0.63211215  0.87645563  1
  O  O438  1  0.63221607  0.12953720  0.38163715  1
  O  O439  1  0.63100960  0.12849221  0.88272805  1
  O  O440  1  0.62760001  0.62732034  0.38613754  1
  O  O441  1  0.63102481  0.63295067  0.88058952  1
