# generated using pymatgen
data_V93Zn93O256
_symmetry_space_group_name_H-M   'P 1'
_cell_length_a   17.05375844
_cell_length_b   17.05073411
_cell_length_c   17.05084924
_cell_angle_alpha   89.92867705
_cell_angle_beta   90.00679025
_cell_angle_gamma   89.99379463
_symmetry_Int_Tables_number   1
_chemical_formula_structural   V93Zn93O256
_chemical_formula_sum   'V93 Zn93 O256'
_cell_volume   4958.02670349
_cell_formula_units_Z   1
loop_
 _symmetry_equiv_pos_site_id
 _symmetry_equiv_pos_as_xyz
  1  'x, y, z'
loop_
 _atom_site_type_symbol
 _atom_site_label
 _atom_site_symmetry_multiplicity
 _atom_site_fract_x
 _atom_site_fract_y
 _atom_site_fract_z
 _atom_site_occupancy
  V  V0  1  0.24380184  0.75169546  -0.00680406  1
  V  V1  1  -0.00056261  0.62592263  0.12484669  1
  V  V2  1  0.25292414  0.25070897  0.00774194  1
  V  V3  1  -0.00058933  0.25047813  0.25041872  1
  V  V4  1  0.50105058  -0.00170134  -0.00096450  1
  V  V5  1  0.49291864  0.24605732  0.24393400  1
  V  V6  1  0.37391117  0.62484146  0.74835345  1
  V  V7  1  0.00327374  0.74875497  0.75722867  1
  V  V8  1  0.87578826  0.62427649  0.75029307  1
  V  V9  1  0.37482421  0.00439347  0.37145360  1
  V  V10  1  0.75571191  -0.00204991  0.75437397  1
  V  V11  1  0.74936246  0.49947885  0.25041219  1
  V  V12  1  0.87406913  0.50020218  0.87650207  1
  V  V13  1  0.74973712  0.24867771  0.50137924  1
  V  V14  1  0.12435056  0.37600404  0.75026195  1
  V  V15  1  0.87515238  0.37478432  0.50151235  1
  V  V16  1  -0.00019184  -0.00057061  0.49983312  1
  V  V17  1  0.12437205  0.00062094  0.12421183  1
  V  V18  1  0.00045043  0.12404368  0.62671358  1
  V  V19  1  0.49688078  0.12314217  0.63303065  1
  V  V20  1  0.00010691  0.87958974  0.87380303  1
  V  V21  1  0.24590151  0.62794253  0.87387284  1
  V  V22  1  0.62312675  -0.00107096  0.12436842  1
  V  V23  1  0.74795523  0.74613038  -0.00066651  1
  V  V24  1  0.87419556  0.87343348  0.50167959  1
  V  V25  1  0.12574616  0.12472384  0.49980598  1
  V  V26  1  0.87488894  0.37521537  0.00110702  1
  V  V27  1  0.12558262  0.87629788  0.24822440  1
  V  V28  1  0.24968817  0.50031667  0.24691733  1
  V  V29  1  0.49951463  0.87395228  0.87248710  1
  V  V30  1  -0.00050641  0.50146994  0.00080357  1
  V  V31  1  0.87396638  0.24996467  0.12598641  1
  V  V32  1  0.87611718  0.12129828  0.75463192  1
  V  V33  1  0.25010871  0.62563958  0.37428946  1
  V  V34  1  0.12458678  0.62768116  -0.00405480  1
  V  V35  1  0.37517953  0.37503207  0.50088572  1
  V  V36  1  0.75354038  0.12159455  0.87573625  1
  V  V37  1  0.25602564  0.12545086  0.86914483  1
  V  V38  1  0.12555971  0.50018526  0.12468781  1
  V  V39  1  0.62388677  0.74347852  0.87722510  1
  V  V40  1  0.87454794  0.24849006  0.62615028  1
  V  V41  1  0.24859571  0.87735481  0.12228071  1
  V  V42  1  0.12429785  0.12725222  -0.00130815  1
  V  V43  1  0.74869649  0.62490993  0.87676663  1
  V  V44  1  -0.00092883  0.75044037  0.24804708  1
  V  V45  1  0.62697214  0.87324939  0.74903654  1
  V  V46  1  0.00026390  0.62490676  0.62491563  1
  V  V47  1  0.62433448  0.37392880  0.75089601  1
  V  V48  1  0.24978903  0.49968773  0.75038716  1
  V  V49  1  0.62492373  0.62302398  0.50052769  1
  V  V50  1  0.37497449  0.37439577  0.00802096  1
  V  V51  1  0.87398883  0.87966694  -0.00565249  1
  V  V52  1  0.38204568  0.62660706  0.24549764  1
  V  V53  1  0.12731080  0.87225415  0.75338292  1
  V  V54  1  0.74909286  0.37536269  0.12634742  1
  V  V55  1  0.37438481  0.87645966  -0.00299280  1
  V  V56  1  0.74993582  -0.00080601  0.25006951  1
  V  V57  1  0.74902838  0.49845215  0.75174972  1
  V  V58  1  0.75165747  0.62440312  0.37562915  1
  V  V59  1  0.37532594  0.24487680  0.63328060  1
  V  V60  1  0.62489487  0.12336308  0.00009588  1
  V  V61  1  -0.00346347  0.00147299  -0.00341927  1
  V  V62  1  0.37453153  0.74954479  0.62276277  1
  V  V63  1  0.75007535  0.87395450  0.12382417  1
  V  V64  1  0.37943358  0.74743436  0.12283528  1
  V  V65  1  0.49943640  0.37749693  0.88023345  1
  V  V66  1  0.12609868  -0.00184140  0.62442497  1
  V  V67  1  0.37631882  0.49986587  0.37455985  1
  V  V68  1  0.12519592  0.24956830  0.37608174  1
  V  V69  1  -0.00028482  0.25012984  0.75137466  1
  V  V70  1  0.62426668  0.74957533  0.37360343  1
  V  V71  1  0.12479592  0.62517766  0.49966336  1
  V  V72  1  0.49959911  0.37335127  0.37718136  1
  V  V73  1  0.37522602  0.87410929  0.49817492  1
  V  V74  1  0.61952469  0.51030179  0.11839990  1
  V  V75  1  0.12564169  0.75066530  0.37267601  1
  V  V76  1  0.62509953  0.12410991  0.50299362  1
  V  V77  1  0.62444699  0.24893078  0.37533922  1
  V  V78  1  0.87493253  0.00024316  0.37499257  1
  V  V79  1  0.25071981  0.37483904  0.62676838  1
  V  V80  1  0.25067912  0.87440705  0.62398670  1
  V  V81  1  0.49976475  0.87429638  0.37366562  1
  V  V82  1  0.62518955  -0.00164733  0.62514256  1
  V  V83  1  0.62499119  0.24983981  0.87704814  1
  V  V84  1  -0.00005599  0.37538940  0.87492532  1
  V  V85  1  0.87356927  0.12359007  0.24999757  1
  V  V86  1  -0.00087796  0.12559830  0.12367498  1
  V  V87  1  0.37532787  0.50153384  0.87702566  1
  V  V88  1  0.50028746  0.62250721  0.62500216  1
  V  V89  1  0.25020118  0.24945250  0.49989501  1
  V  V90  1  0.00033685  0.37596850  0.37553556  1
  V  V91  1  0.74944842  0.24882722  0.00157977  1
  V  V92  1  0.62432801  0.87460378  0.25017055  1
  Zn  Zn93  1  0.49504655  0.24428088  0.75630378  1
  Zn  Zn94  1  0.49450081  0.12775178  0.11922570  1
  Zn  Zn95  1  0.87253638  0.74938558  0.62539259  1
  Zn  Zn96  1  -0.00059061  0.50045184  0.50008977  1
  Zn  Zn97  1  0.50001228  0.52708446  0.00508520  1
  Zn  Zn98  1  0.62574571  0.49782953  0.62531329  1
  Zn  Zn99  1  0.74937517  0.12395861  0.37562251  1
  Zn  Zn100  1  0.36595285  0.12877728  0.23377434  1
  Zn  Zn101  1  0.00141041  0.87568204  0.37456215  1
  Zn  Zn102  1  0.25148749  0.12558834  0.37243757  1
  Zn  Zn103  1  0.12536767  0.25074172  0.87566729  1
  Zn  Zn104  1  0.24996583  0.75032765  0.49830038  1
  Zn  Zn105  1  0.50115947  0.74897432  0.74882865  1
  Zn  Zn106  1  0.25146176  0.37234739  0.12689546  1
  Zn  Zn107  1  0.74832408  0.37488095  0.62624767  1
  Zn  Zn108  1  0.87396878  0.74898412  0.12431606  1
  Zn  Zn109  1  0.74931937  0.87116706  0.62539414  1
  Zn  Zn110  1  0.62321436  0.37372988  0.24873166  1
  Zn  Zn111  1  0.50048372  -0.00058764  0.50057506  1
  Zn  Zn112  1  0.12602200  0.37455170  0.24859026  1
  Zn  Zn113  1  0.50068286  0.49790127  0.49946848  1
  Zn  Zn114  1  0.87549414  0.62598867  0.25025716  1
  Zn  Zn115  1  0.50223281  0.74783883  0.24472278  1
  Zn  Zn116  1  0.25636180  0.00633422  0.74543852  1
  Zn  Zn117  1  0.87565102  0.50080190  0.37570811  1
  Zn  Zn118  1  0.38225061  0.00965897  0.86664468  1
  Zn  Zn119  1  0.75147266  0.74951297  0.50302899  1
  Zn  Zn120  1  0.24979674  0.00369384  0.24833692  1
  Zn  Zn121  1  0.12652463  0.49965961  0.62390693  1
  Zn  Zn122  1  0.18570483  0.18674043  0.18905035  1
  Zn  Zn123  1  0.18507453  0.19025952  0.68685897  1
  Zn  Zn124  1  0.18937095  0.68816339  0.18339856  1
  Zn  Zn125  1  0.18745418  0.68962645  0.68634118  1
  Zn  Zn126  1  0.68372591  0.18504176  0.18801370  1
  Zn  Zn127  1  0.68762663  0.18658196  0.68885460  1
  Zn  Zn128  1  0.68771887  0.68807202  0.18781383  1
  Zn  Zn129  1  0.68894757  0.68810454  0.68809414  1
  Zn  Zn130  1  0.31250628  0.31353755  0.31392496  1
  Zn  Zn131  1  0.31099501  0.31268197  0.81764005  1
  Zn  Zn132  1  0.31139402  0.81409886  0.31010479  1
  Zn  Zn133  1  0.31444141  0.81238578  0.80910035  1
  Zn  Zn134  1  0.81189191  0.31218142  0.31376947  1
  Zn  Zn135  1  0.81232582  0.31014730  0.81413513  1
  Zn  Zn136  1  0.81315439  0.81288175  0.31505478  1
  Zn  Zn137  1  0.81513726  0.81154073  0.81250198  1
  Zn  Zn138  1  0.18830064  0.43820862  0.43762284  1
  Zn  Zn139  1  0.18772318  0.43854694  0.93733425  1
  Zn  Zn140  1  0.18991403  0.93726495  0.43599984  1
  Zn  Zn141  1  0.18508408  0.94140910  0.93588683  1
  Zn  Zn142  1  0.68735293  0.43626577  0.43787053  1
  Zn  Zn143  1  0.68674084  0.43844403  0.94022725  1
  Zn  Zn144  1  0.68840225  0.93748925  0.43773152  1
  Zn  Zn145  1  0.68627670  0.93497191  0.93584096  1
  Zn  Zn146  1  0.31480798  0.06261032  0.05742767  1
  Zn  Zn147  1  0.31364871  0.06098474  0.55947422  1
  Zn  Zn148  1  0.31423163  0.56380796  0.06029462  1
  Zn  Zn149  1  0.31208825  0.56125439  0.56132692  1
  Zn  Zn150  1  0.81161488  0.06095658  0.06333355  1
  Zn  Zn151  1  0.81137160  0.06085686  0.56548748  1
  Zn  Zn152  1  0.81186626  0.56391743  0.06570742  1
  Zn  Zn153  1  0.81188072  0.55912382  0.56501090  1
  Zn  Zn154  1  0.44079949  0.43649560  0.19034513  1
  Zn  Zn155  1  0.43771184  0.43618004  0.68923225  1
  Zn  Zn156  1  0.43629748  0.93722479  0.18678199  1
  Zn  Zn157  1  0.43598658  0.93874162  0.68859503  1
  Zn  Zn158  1  0.93596851  0.43902523  0.18886395  1
  Zn  Zn159  1  0.93760475  0.43870688  0.68728743  1
  Zn  Zn160  1  0.93662748  0.93611953  0.18421892  1
  Zn  Zn161  1  0.93768193  0.93671621  0.68603845  1
  Zn  Zn162  1  0.06182440  0.06268751  0.31259406  1
  Zn  Zn163  1  0.06770025  0.06085791  0.81282802  1
  Zn  Zn164  1  0.06276793  0.56253516  0.31217335  1
  Zn  Zn165  1  0.06440922  0.56091629  0.81351237  1
  Zn  Zn166  1  0.56064957  0.06261508  0.31303918  1
  Zn  Zn167  1  0.56839387  0.06010611  0.81220192  1
  Zn  Zn168  1  0.56401533  0.55996430  0.31057530  1
  Zn  Zn169  1  0.56093512  0.56133679  0.81398005  1
  Zn  Zn170  1  0.43891914  0.18584594  0.44210124  1
  Zn  Zn171  1  0.43669703  0.19088482  0.94214085  1
  Zn  Zn172  1  0.43836602  0.68798780  0.43567715  1
  Zn  Zn173  1  0.43337961  0.68846712  0.93706824  1
  Zn  Zn174  1  0.93751353  0.18648003  0.43763588  1
  Zn  Zn175  1  0.93599678  0.18874158  0.93632532  1
  Zn  Zn176  1  0.93838878  0.68960124  0.43623157  1
  Zn  Zn177  1  0.93574672  0.69007010  0.93720267  1
  Zn  Zn178  1  0.06519155  0.31373550  0.06295843  1
  Zn  Zn179  1  0.06315913  0.31151141  0.56409522  1
  Zn  Zn180  1  0.06200667  0.81366002  0.06211386  1
  Zn  Zn181  1  0.06078901  0.81097026  0.56413517  1
  Zn  Zn182  1  0.56532030  0.31807352  0.06404047  1
  Zn  Zn183  1  0.55990383  0.30953452  0.56465592  1
  Zn  Zn184  1  0.56252528  0.80978608  0.05984276  1
  Zn  Zn185  1  0.56197631  0.81056697  0.56062378  1
  O  O186  1  0.11701564  0.12085634  0.11865989  1
  O  O187  1  0.11971869  0.11926811  0.61998489  1
  O  O188  1  0.11927617  0.61939465  0.11728948  1
  O  O189  1  0.11748193  0.62564949  0.61636575  1
  O  O190  1  0.62059834  0.11711905  0.11748048  1
  O  O191  1  0.61793326  0.12003153  0.62191747  1
  O  O192  1  0.63049559  0.60886832  0.13055666  1
  O  O193  1  0.61710628  0.62430886  0.61780290  1
  O  O194  1  0.37991760  0.38015730  0.38184746  1
  O  O195  1  0.38270448  0.38138726  0.88186626  1
  O  O196  1  0.37959820  0.88122507  0.37798359  1
  O  O197  1  0.38854403  0.86810987  0.87955288  1
  O  O198  1  0.88370103  0.37224430  0.38531815  1
  O  O199  1  0.87935997  0.38042010  0.88161887  1
  O  O200  1  0.87767159  0.88165797  0.38420878  1
  O  O201  1  0.88584914  0.87162731  0.88410488  1
  O  O202  1  0.26114535  0.00154219  0.37226077  1
  O  O203  1  0.24895719  0.01800509  0.87719238  1
  O  O204  1  0.25533930  0.50473481  0.36557040  1
  O  O205  1  0.25608413  0.50661323  0.86960748  1
  O  O206  1  0.75616669  0.00181743  0.36715987  1
  O  O207  1  0.74248437  0.00543303  0.86252951  1
  O  O208  1  0.74858648  0.50724595  0.36707399  1
  O  O209  1  0.75505522  0.50502661  0.87245795  1
  O  O210  1  0.24470335  0.50243068  0.13381405  1
  O  O211  1  0.25055148  0.49273743  0.63234937  1
  O  O212  1  0.24135721  0.99393131  0.12124974  1
  O  O213  1  0.24345251  0.99294463  0.62444684  1
  O  O214  1  0.74336436  0.49588596  0.13239897  1
  O  O215  1  0.74669307  0.49512807  0.63565263  1
  O  O216  1  0.74352211  0.99312767  0.13015557  1
  O  O217  1  0.74298455  0.99816551  0.63693442  1
  O  O218  1  -0.00212569  0.36967970  0.26071585  1
  O  O219  1  0.00351950  0.37082970  0.75519425  1
  O  O220  1  0.00617541  0.86574441  0.24819957  1
  O  O221  1  0.00523537  0.86897480  0.75538716  1
  O  O222  1  0.50156521  0.36256218  0.25871494  1
  O  O223  1  0.50803562  0.37478756  0.76271398  1
  O  O224  1  0.50760178  0.87344799  0.25612215  1
  O  O225  1  0.50788723  0.87270935  0.75840371  1
  O  O226  1  0.50050035  0.13946451  0.24965798  1
  O  O227  1  0.50697612  0.12555860  0.73813544  1
  O  O228  1  0.48559391  0.62625373  0.25471677  1
  O  O229  1  0.49377473  0.62453799  0.74081919  1
  O  O230  1  0.99351104  0.13080992  0.24330896  1
  O  O231  1  0.99670331  0.12879455  0.74631799  1
  O  O232  1  1.00055777  0.63450422  0.24469899  1
  O  O233  1  0.99791330  0.63092785  0.74550828  1
  O  O234  1  0.36480786  0.26306215  -0.00490463  1
  O  O235  1  0.36984074  0.25586560  0.50912543  1
  O  O236  1  0.36313646  0.75674047  0.00634860  1
  O  O237  1  0.37325123  0.75533088  0.50468151  1
  O  O238  1  0.86913113  0.25550923  0.00708079  1
  O  O239  1  0.87077544  0.25616427  0.50558886  1
  O  O240  1  0.86564811  0.76141824  -0.00075840  1
  O  O241  1  0.87536232  0.76118779  0.49997724  1
  O  O242  1  0.13009236  0.24452451  0.49643976  1
  O  O243  1  0.13282030  0.24579142  0.99754878  1
  O  O244  1  0.12367031  0.73948755  0.49350867  1
  O  O245  1  0.13697515  0.74483185  1.00678332  1
  O  O246  1  0.62936398  0.24526770  0.49417561  1
  O  O247  1  0.63060280  0.24483809  0.99654744  1
  O  O248  1  0.62680188  0.73729981  0.49315954  1
  O  O249  1  0.63849183  0.75912473  0.98849481  1
  O  O250  1  0.50816743  0.25303662  0.14220239  1
  O  O251  1  0.49147606  0.24137434  0.62926936  1
  O  O252  1  0.48311530  0.75900492  0.12543484  1
  O  O253  1  0.49499781  0.73719644  0.62530673  1
  O  O254  1  0.99375469  0.24584193  0.12993538  1
  O  O255  1  0.99457965  0.24340736  0.63144215  1
  O  O256  1  1.00051885  0.74485023  0.13331231  1
  O  O257  1  0.99786440  0.73862212  0.63496042  1
  O  O258  1  0.00417621  0.25777497  0.37097295  1
  O  O259  1  -0.00002971  0.25821993  0.86894318  1
  O  O260  1  0.00714012  0.75069082  0.36320343  1
  O  O261  1  -0.00231624  0.75986927  0.86452052  1
  O  O262  1  0.50791786  0.25342259  0.37020450  1
  O  O263  1  0.50546903  0.25914811  0.87440286  1
  O  O264  1  0.50698275  0.75599012  0.37089131  1
  O  O265  1  0.50900178  0.75884336  0.87306298  1
  O  O266  1  0.24275042  0.13210837  0.49836263  1
  O  O267  1  0.24393100  0.13383558  0.99201262  1
  O  O268  1  0.24058337  0.62581568  0.49401529  1
  O  O269  1  0.24528275  0.63337623  0.99426254  1
  O  O270  1  0.74363579  0.13130168  0.50000806  1
  O  O271  1  0.74505621  0.12914843  0.99639976  1
  O  O272  1  0.74232672  0.62229642  0.49186763  1
  O  O273  1  0.75904841  0.63871084  0.99306417  1
  O  O274  1  0.25801639  0.36864386  -0.00092418  1
  O  O275  1  0.25496849  0.36983745  0.50634772  1
  O  O276  1  0.25224499  0.86952917  0.00088268  1
  O  O277  1  0.25607522  0.87179024  0.50649060  1
  O  O278  1  0.75611294  0.36859135  0.00533548  1
  O  O279  1  0.75975643  0.36851153  0.50101692  1
  O  O280  1  0.75732058  0.86848046  0.00174635  1
  O  O281  1  0.76149045  0.87375530  0.50115558  1
  O  O282  1  0.13515639  0.50067559  0.24502754  1
  O  O283  1  0.13232269  0.49379636  0.74788406  1
  O  O284  1  0.12332034  0.99432835  0.24166168  1
  O  O285  1  0.12828036  0.98852018  0.74246588  1
  O  O286  1  0.63546372  0.49661161  0.24303923  1
  O  O287  1  0.63021570  0.48887452  0.75292560  1
  O  O288  1  0.62994026  0.99455091  0.24498034  1
  O  O289  1  0.63497699  0.99263843  0.74425961  1
  O  O290  1  0.37422951  0.00165411  0.26020488  1
  O  O291  1  0.36687494  -0.00926178  0.75746049  1
  O  O292  1  0.36827571  0.50755879  0.25288909  1
  O  O293  1  0.36932966  0.50481232  0.75628597  1
  O  O294  1  0.87039949  0.00368752  0.25368031  1
  O  O295  1  0.86408249  0.00508531  0.74396034  1
  O  O296  1  0.86149533  0.50260015  0.25231879  1
  O  O297  1  0.86980967  0.50394718  0.75748058  1
  O  O298  1  0.11461351  0.36966821  0.37584540  1
  O  O299  1  0.11719274  0.37570560  0.86877395  1
  O  O300  1  0.12390093  0.86876108  0.36740490  1
  O  O301  1  0.11561709  0.87903484  0.86325246  1
  O  O302  1  0.61947505  0.36370461  0.37613025  1
  O  O303  1  0.61788406  0.37089207  0.87154800  1
  O  O304  1  0.62092300  0.86961528  0.37002963  1
  O  O305  1  0.61773711  0.86561423  0.86967980  1
  O  O306  1  0.38254923  0.12160988  0.12222011  1
  O  O307  1  0.38423367  0.13398418  0.61818487  1
  O  O308  1  0.36608736  0.63590540  0.13459005  1
  O  O309  1  0.38210417  0.62841911  0.62770675  1
  O  O310  1  0.87972613  0.13042926  0.12957966  1
  O  O311  1  0.88153262  0.12937089  0.63246617  1
  O  O312  1  0.88325372  0.62900204  0.12867759  1
  O  O313  1  0.88508448  0.62341850  0.63122121  1
  O  O314  1  0.24398297  0.25252226  0.11186951  1
  O  O315  1  0.25711060  0.25435485  0.62027827  1
  O  O316  1  0.25748405  0.75682168  0.11458788  1
  O  O317  1  0.25697830  0.75588477  0.62176146  1
  O  O318  1  0.75425183  0.25422950  0.12137547  1
  O  O319  1  0.75687177  0.25190417  0.62012812  1
  O  O320  1  0.74931854  0.75534458  0.11512362  1
  O  O321  1  0.75497770  0.75212187  0.62152551  1
  O  O322  1  0.24307438  0.25121363  0.38242161  1
  O  O323  1  0.24687678  0.24121509  0.88435533  1
  O  O324  1  0.24309849  0.74312815  0.37456942  1
  O  O325  1  0.25623139  0.74547711  0.88649036  1
  O  O326  1  0.73983707  0.24819706  0.38076884  1
  O  O327  1  0.74466732  0.24385473  0.88315717  1
  O  O328  1  0.74382532  0.73870409  0.37562949  1
  O  O329  1  0.74337052  0.74587673  0.88052932  1
  O  O330  1  0.00259787  0.12176048  0.00426020  1
  O  O331  1  0.00493151  0.11992708  0.50736611  1
  O  O332  1  0.00376529  0.62121666  0.00359591  1
  O  O333  1  0.00676423  0.62519030  0.50753310  1
  O  O334  1  0.50840286  0.11755650  -0.00408255  1
  O  O335  1  0.50816764  0.12364696  0.51343277  1
  O  O336  1  0.50302496  0.63598569  0.00065569  1
  O  O337  1  0.50844185  0.62285186  0.50672560  1
  O  O338  1  0.49374217  0.37557575  0.49503772  1
  O  O339  1  0.49236027  0.37176541  0.99012239  1
  O  O340  1  0.49387963  0.87529118  0.49165894  1
  O  O341  1  0.49659251  0.87837202  0.98982304  1
  O  O342  1  0.99224829  0.37351132  0.49262602  1
  O  O343  1  0.99394576  0.38137129  0.99578412  1
  O  O344  1  0.99212935  0.88078579  0.49917411  1
  O  O345  1  0.99405945  0.87864440  0.99221574  1
  O  O346  1  0.49410032  0.49160053  0.37402492  1
  O  O347  1  0.49515468  0.49108065  0.87917572  1
  O  O348  1  0.49260299  0.99280307  0.37665015  1
  O  O349  1  0.50488708  0.98849561  0.87941359  1
  O  O350  1  0.99745985  0.48885753  0.37598945  1
  O  O351  1  0.99300555  0.49551754  0.88121977  1
  O  O352  1  0.99308383  0.99860613  0.38186735  1
  O  O353  1  1.00377551  0.98827772  0.88005783  1
  O  O354  1  0.00379285  0.00648661  0.11735856  1
  O  O355  1  0.00645603  0.00526916  0.62009259  1
  O  O356  1  0.00435005  0.50548266  0.12017619  1
  O  O357  1  0.00351504  0.51309357  0.62479601  1
  O  O358  1  0.50805029  -0.00460652  0.11541622  1
  O  O359  1  0.50650240  0.00723625  0.62428205  1
  O  O360  1  0.51659100  0.49467339  0.12701381  1
  O  O361  1  0.50096024  0.51150919  0.62345170  1
  O  O362  1  0.25127135  0.38812084  0.24828171  1
  O  O363  1  0.24489119  0.37986998  0.74682312  1
  O  O364  1  0.24220419  0.87711142  0.24004858  1
  O  O365  1  0.23853558  0.87069469  0.74398743  1
  O  O366  1  0.74971266  0.38373872  0.24622546  1
  O  O367  1  0.73996881  0.37919118  0.75341692  1
  O  O368  1  0.74508524  0.87920502  0.24445488  1
  O  O369  1  0.74649060  0.88227707  0.75113999  1
  O  O370  1  0.25169065  0.12274997  0.25484554  1
  O  O371  1  0.24200660  0.12837907  0.76606128  1
  O  O372  1  0.25687787  0.61705272  0.25430801  1
  O  O373  1  0.25373187  0.62044415  0.75314608  1
  O  O374  1  0.75606279  0.11727784  0.24992149  1
  O  O375  1  0.75497965  0.11706961  0.75551083  1
  O  O376  1  0.74992741  0.61762609  0.26032354  1
  O  O377  1  0.75614953  0.61851985  0.75690244  1
  O  O378  1  0.37655480  0.11284541  0.37750572  1
  O  O379  1  0.35974994  0.12900160  0.87950585  1
  O  O380  1  0.36942020  0.62048518  0.36677194  1
  O  O381  1  0.36655739  0.62100814  0.86707680  1
  O  O382  1  0.87348431  0.11914380  0.36794405  1
  O  O383  1  0.86624465  0.13017508  0.86758697  1
  O  O384  1  0.86358566  0.62258361  0.37557821  1
  O  O385  1  0.87029490  0.61915043  0.86962567  1
  O  O386  1  0.12780253  0.38520200  0.12815903  1
  O  O387  1  0.13206595  0.37643477  0.63104332  1
  O  O388  1  0.12893448  0.88153909  0.12798977  1
  O  O389  1  0.12889894  0.87863694  0.63202718  1
  O  O390  1  0.63429660  0.38427079  0.12876230  1
  O  O391  1  0.62368241  0.37489912  0.63820548  1
  O  O392  1  0.63109916  0.87855284  0.12950420  1
  O  O393  1  0.62465893  0.87923636  0.63124068  1
  O  O394  1  0.11675927  0.25328234  0.25676787  1
  O  O395  1  0.11650519  0.25830233  0.75131527  1
  O  O396  1  0.11777725  0.75456922  0.25178388  1
  O  O397  1  0.11372049  0.76032028  0.74359327  1
  O  O398  1  0.61755855  0.25011916  0.26133283  1
  O  O399  1  0.62526766  0.25990876  0.75851331  1
  O  O400  1  0.62341959  0.75611497  0.25502729  1
  O  O401  1  0.62516679  0.75520613  0.76066454  1
  O  O402  1  0.39003181  0.24908881  0.25715241  1
  O  O403  1  0.37483198  0.25630034  0.73708475  1
  O  O404  1  0.37316150  0.74244893  0.24051943  1
  O  O405  1  0.37765787  0.74202967  0.74107599  1
  O  O406  1  0.87896588  0.24437995  0.24494270  1
  O  O407  1  0.88024371  0.24370688  0.74525987  1
  O  O408  1  0.88725084  0.75037144  0.24905579  1
  O  O409  1  0.88619752  0.74279408  0.74947060  1
  O  O410  1  0.37569435  0.49362887  0.49193309  1
  O  O411  1  0.37768301  0.49303693  0.99374531  1
  O  O412  1  0.37750330  0.99168078  0.49027128  1
  O  O413  1  0.38276461  0.99182938  0.98986415  1
  O  O414  1  0.87669116  0.48671843  0.49877445  1
  O  O415  1  0.87930984  0.49485668  0.99627687  1
  O  O416  1  0.87977206  0.99395626  0.49607816  1
  O  O417  1  0.87994372  0.98773372  1.00458154  1
  O  O418  1  0.11600302  0.00654641  0.00534486  1
  O  O419  1  0.11949989  0.00417159  0.50461380  1
  O  O420  1  0.11852783  0.50636294  0.00505298  1
  O  O421  1  0.12294117  0.51309035  0.50063302  1
  O  O422  1  0.62158865  0.00337707  0.00465001  1
  O  O423  1  0.62504203  0.00599426  0.50717835  1
  O  O424  1  0.62434737  0.49719902  0.01473034  1
  O  O425  1  0.62339326  0.51082466  0.50180805  1
  O  O426  1  0.37393402  0.38399946  0.11151662  1
  O  O427  1  0.37097058  0.36688498  0.62067825  1
  O  O428  1  0.36747751  0.86943371  0.11703178  1
  O  O429  1  0.37115757  0.86882284  0.61807876  1
  O  O430  1  0.86987030  0.36966787  0.12024366  1
  O  O431  1  0.87660768  0.36801539  0.61609458  1
  O  O432  1  0.86842713  0.87160085  0.11366398  1
  O  O433  1  0.87484531  0.87360952  0.61325162  1
  O  O434  1  0.12328422  0.13231446  0.38281931  1
  O  O435  1  0.13266819  0.12790002  0.88242135  1
  O  O436  1  0.12913170  0.62972225  0.38177664  1
  O  O437  1  0.13303194  0.62010340  0.88308854  1
  O  O438  1  0.62460145  0.13412218  0.38294566  1
  O  O439  1  0.63262227  0.13076275  0.88063307  1
  O  O440  1  0.63162172  0.62770697  0.38153589  1
  O  O441  1  0.63160863  0.63657162  0.86781253  1
