# generated using pymatgen
data_V93Zn93O256
_symmetry_space_group_name_H-M   'P 1'
_cell_length_a   17.05162709
_cell_length_b   17.05502061
_cell_length_c   17.05673228
_cell_angle_alpha   90.05809754
_cell_angle_beta   89.95916026
_cell_angle_gamma   90.01670733
_symmetry_Int_Tables_number   1
_chemical_formula_structural   V93Zn93O256
_chemical_formula_sum   'V93 Zn93 O256'
_cell_volume   4960.36410255
_cell_formula_units_Z   1
loop_
 _symmetry_equiv_pos_site_id
 _symmetry_equiv_pos_as_xyz
  1  'x, y, z'
loop_
 _atom_site_type_symbol
 _atom_site_label
 _atom_site_symmetry_multiplicity
 _atom_site_fract_x
 _atom_site_fract_y
 _atom_site_fract_z
 _atom_site_occupancy
  V  V0  1  0.75032986  0.25123163  0.50023849  1
  V  V1  1  0.12633929  0.62533933  0.00036357  1
  V  V2  1  0.24962136  0.62441362  0.37527120  1
  V  V3  1  0.49938208  0.12493273  0.12557894  1
  V  V4  1  0.12456281  0.24935434  0.37496292  1
  V  V5  1  0.75038821  0.00229715  0.74884369  1
  V  V6  1  0.74989776  0.25019165  0.00003481  1
  V  V7  1  0.12364212  0.75052572  0.37544752  1
  V  V8  1  0.38253956  0.74540259  0.62444442  1
  V  V9  1  -0.00419933  0.74721526  0.75083529  1
  V  V10  1  0.74916122  0.49951197  0.24976821  1
  V  V11  1  0.62472823  0.37631514  0.74930371  1
  V  V12  1  0.12423098  0.62412201  0.50071669  1
  V  V13  1  0.50077829  0.87646841  0.37437260  1
  V  V14  1  0.25094726  0.00051510  0.25009286  1
  V  V15  1  0.25065714  0.87590923  0.12469417  1
  V  V16  1  0.75007492  0.74729567  -0.00194290  1
  V  V17  1  0.00015489  0.62634684  0.12733847  1
  V  V18  1  0.87575654  0.37488247  -0.00106762  1
  V  V19  1  0.87508001  0.37522479  0.50071867  1
  V  V20  1  0.37439341  0.62515577  0.25093960  1
  V  V21  1  0.12570460  -0.00080233  0.62795810  1
  V  V22  1  0.38117180  0.50002341  0.37881614  1
  V  V23  1  0.87536711  0.50540350  0.87083231  1
  V  V24  1  0.62629662  0.87477893  0.24989529  1
  V  V25  1  0.12415459  0.87378685  0.25137928  1
  V  V26  1  0.87262348  0.74641244  0.63249568  1
  V  V27  1  0.24920566  0.50070487  0.75024200  1
  V  V28  1  0.25180107  0.11408061  0.87031620  1
  V  V29  1  0.87523079  0.00176632  0.87384877  1
  V  V30  1  0.61254210  0.50397509  0.62208654  1
  V  V31  1  0.61255237  0.62167568  0.50350531  1
  V  V32  1  0.62335810  0.25179278  0.37339565  1
  V  V33  1  0.75168976  0.12613319  0.87398956  1
  V  V34  1  0.37432913  0.00121866  0.37426786  1
  V  V35  1  0.87475527  0.50069644  0.37690277  1
  V  V36  1  0.37416770  0.24963373  0.12537285  1
  V  V37  1  0.88123516  -0.00021144  0.37873313  1
  V  V38  1  0.62538295  0.74939307  0.37599232  1
  V  V39  1  0.49898152  0.12628685  0.62469950  1
  V  V40  1  0.87494718  0.25010947  0.12555767  1
  V  V41  1  0.88295115  0.87845729  0.50059837  1
  V  V42  1  -0.00018563  0.25005693  0.25002726  1
  V  V43  1  -0.00360829  0.62564806  0.62915782  1
  V  V44  1  0.37065012  0.12033385  0.74843979  1
  V  V45  1  -0.00000165  0.37407926  0.87470235  1
  V  V46  1  0.75064337  -0.00064210  0.24995753  1
  V  V47  1  0.37503637  0.74980569  0.12573305  1
  V  V48  1  0.00063872  0.12434003  0.12402644  1
  V  V49  1  0.74971887  0.37562672  0.12583666  1
  V  V50  1  0.24960833  0.75018421  -0.00000824  1
  V  V51  1  0.62570580  0.00031615  0.62375667  1
  V  V52  1  0.62674777  0.62403384  -0.00105180  1
  V  V53  1  0.12501603  0.00008722  0.12478842  1
  V  V54  1  0.49908959  -0.00339206  -0.00746499  1
  V  V55  1  0.24864568  0.74960697  0.50220837  1
  V  V56  1  0.12459796  0.49984373  0.62576362  1
  V  V57  1  0.37981331  0.87378475  -0.00798255  1
  V  V58  1  0.37366979  0.50002314  0.87448510  1
  V  V59  1  0.74771739  0.87649637  0.62544127  1
  V  V60  1  0.74989408  0.74915248  0.50069557  1
  V  V61  1  0.49990970  0.24954504  0.75048257  1
  V  V62  1  0.62541913  0.25122181  0.87401364  1
  V  V63  1  0.12675009  0.24833195  0.87476722  1
  V  V64  1  0.12327086  0.74954311  0.87555093  1
  V  V65  1  -0.00091926  0.87520825  0.87428537  1
  V  V66  1  0.62618100  0.12617773  0.49957363  1
  V  V67  1  -0.00081608  0.12083838  0.62262952  1
  V  V68  1  0.00051663  0.00010579  0.00012559  1
  V  V69  1  0.12610151  0.49897863  0.12466557  1
  V  V70  1  0.75003045  0.62500200  0.37587665  1
  V  V71  1  0.12538409  0.37504253  0.25029213  1
  V  V72  1  0.25090044  0.24818919  -0.00222470  1
  V  V73  1  0.50070811  0.00096505  0.49774163  1
  V  V74  1  0.12198728  0.11902302  0.49915721  1
  V  V75  1  0.37491070  0.37495982  -0.00068533  1
  V  V76  1  0.87488354  0.87514652  0.00086204  1
  V  V77  1  0.49958172  0.75029636  0.24932822  1
  V  V78  1  0.50063646  0.49984672  0.00119547  1
  V  V79  1  0.12613136  0.37566458  0.74973985  1
  V  V80  1  0.87643369  0.74922876  0.12700240  1
  V  V81  1  0.87425301  0.12458774  0.25095897  1
  V  V82  1  0.38085503  0.37770414  0.49949594  1
  V  V83  1  0.75272875  0.50921319  0.74811507  1
  V  V84  1  0.12610361  0.87618013  0.75015845  1
  V  V85  1  0.62461317  0.12481322  -0.00060444  1
  V  V86  1  -0.00069240  0.49968574  0.50082522  1
  V  V87  1  0.75032424  0.87442856  0.12628577  1
  V  V88  1  0.00014512  0.24908339  0.74866632  1
  V  V89  1  0.75036043  0.37617263  0.62475894  1
  V  V90  1  0.25009524  0.87716677  0.62907599  1
  V  V91  1  0.25003394  0.25083513  0.50121550  1
  V  V92  1  0.38476150  0.62341615  0.74608987  1
  Zn  Zn93  1  0.87548378  0.62646040  0.25227665  1
  Zn  Zn94  1  0.50197936  0.37831298  0.37457848  1
  Zn  Zn95  1  -0.00017839  0.37558952  0.37655814  1
  Zn  Zn96  1  0.75328891  0.62559585  0.87057841  1
  Zn  Zn97  1  0.87528058  0.24917136  0.62479155  1
  Zn  Zn98  1  0.37379990  0.12680132  0.25063733  1
  Zn  Zn99  1  -0.00244440  0.75174234  0.25458842  1
  Zn  Zn100  1  0.49324735  0.76636923  0.76508094  1
  Zn  Zn101  1  0.61543711  0.75696209  0.87430391  1
  Zn  Zn102  1  0.62464861  -0.00074525  0.12484266  1
  Zn  Zn103  1  0.62391441  0.49834126  0.12597150  1
  Zn  Zn104  1  0.49869246  0.25333473  0.25120712  1
  Zn  Zn105  1  0.24942255  0.62569427  0.87372452  1
  Zn  Zn106  1  -0.00031789  0.49939429  -0.00173319  1
  Zn  Zn107  1  0.24986945  0.12426295  0.37440964  1
  Zn  Zn108  1  0.50036907  0.62430397  0.12612774  1
  Zn  Zn109  1  0.37460330  0.25198462  0.62530538  1
  Zn  Zn110  1  0.00280666  0.87631767  0.37767544  1
  Zn  Zn111  1  0.25098782  0.37574363  0.62495639  1
  Zn  Zn112  1  0.12688687  0.12358573  -0.00171973  1
  Zn  Zn113  1  0.50041816  0.37411268  0.87488796  1
  Zn  Zn114  1  0.24966785  0.37400746  0.12419893  1
  Zn  Zn115  1  0.62176656  0.37493794  0.24905874  1
  Zn  Zn116  1  0.60982885  0.87961579  0.76248533  1
  Zn  Zn117  1  0.38017810  -0.01174979  0.86082057  1
  Zn  Zn118  1  0.25164261  0.49891873  0.25059319  1
  Zn  Zn119  1  0.37435715  0.87432858  0.50099850  1
  Zn  Zn120  1  0.75066516  0.12479400  0.37511301  1
  Zn  Zn121  1  0.87552114  0.12687876  0.74824894  1
  Zn  Zn122  1  0.18845024  0.18519585  0.18766433  1
  Zn  Zn123  1  0.18724391  0.18762567  0.68729299  1
  Zn  Zn124  1  0.18856502  0.68848705  0.18934222  1
  Zn  Zn125  1  0.18900639  0.68694323  0.68893288  1
  Zn  Zn126  1  0.68750360  0.18678152  0.18811890  1
  Zn  Zn127  1  0.68723567  0.18811692  0.68669417  1
  Zn  Zn128  1  0.68702422  0.68527760  0.18577486  1
  Zn  Zn129  1  0.67573098  0.69041096  0.68736081  1
  Zn  Zn130  1  0.31119183  0.31338198  0.31383469  1
  Zn  Zn131  1  0.31287775  0.31073766  0.81291618  1
  Zn  Zn132  1  0.31114197  0.81345440  0.31364351  1
  Zn  Zn133  1  0.31081878  0.80683317  0.80987682  1
  Zn  Zn134  1  0.81095743  0.31383129  0.31463868  1
  Zn  Zn135  1  0.81325209  0.31522419  0.80986180  1
  Zn  Zn136  1  0.81394841  0.81304336  0.31374057  1
  Zn  Zn137  1  0.79938061  0.82006471  0.81706011  1
  Zn  Zn138  1  0.19076063  0.43785461  0.43699023  1
  Zn  Zn139  1  0.18872060  0.43620683  0.93760804  1
  Zn  Zn140  1  0.18820338  0.93651433  0.43987997  1
  Zn  Zn141  1  0.18846080  0.93589658  0.93823929  1
  Zn  Zn142  1  0.68610335  0.43845120  0.43962371  1
  Zn  Zn143  1  0.68921043  0.43749507  0.93567101  1
  Zn  Zn144  1  0.69156422  0.93826218  0.43680492  1
  Zn  Zn145  1  0.68572813  0.93864303  0.93793845  1
  Zn  Zn146  1  0.31376915  0.06103911  0.05804842  1
  Zn  Zn147  1  0.31118755  0.06248053  0.56244209  1
  Zn  Zn148  1  0.31221229  0.56361877  0.06319432  1
  Zn  Zn149  1  0.31330063  0.56183859  0.56328781  1
  Zn  Zn150  1  0.81252239  0.06212151  0.06308501  1
  Zn  Zn151  1  0.81314886  0.06350930  0.56015114  1
  Zn  Zn152  1  0.81495355  0.56089617  0.06210877  1
  Zn  Zn153  1  0.80790009  0.56338993  0.56227265  1
  Zn  Zn154  1  0.43800284  0.43653973  0.19026023  1
  Zn  Zn155  1  0.43496916  0.43420918  0.68782035  1
  Zn  Zn156  1  0.43787184  0.93766171  0.18485320  1
  Zn  Zn157  1  0.43762783  0.93647579  0.68173320  1
  Zn  Zn158  1  0.93742006  0.43840813  0.18840875  1
  Zn  Zn159  1  0.93687682  0.43679225  0.68793218  1
  Zn  Zn160  1  0.93827883  0.93693640  0.18993503  1
  Zn  Zn161  1  0.93779732  0.93771351  0.68751545  1
  Zn  Zn162  1  0.06230313  0.06229242  0.31148398  1
  Zn  Zn163  1  0.06381767  0.06269995  0.80996539  1
  Zn  Zn164  1  0.06214465  0.56240490  0.31316280  1
  Zn  Zn165  1  0.06102414  0.56342200  0.81206476  1
  Zn  Zn166  1  0.56368005  0.06476785  0.31129337  1
  Zn  Zn167  1  0.56323887  0.06336834  0.80965275  1
  Zn  Zn168  1  0.56279804  0.56471145  0.31384598  1
  Zn  Zn169  1  0.56552140  0.56293463  0.81536148  1
  Zn  Zn170  1  0.43803968  0.18844212  0.43842233  1
  Zn  Zn171  1  0.43652197  0.18437254  0.93496719  1
  Zn  Zn172  1  0.43494992  0.68955358  0.43677093  1
  Zn  Zn173  1  0.43752288  0.68426370  0.93514726  1
  Zn  Zn174  1  0.93786811  0.18827790  0.43736738  1
  Zn  Zn175  1  0.93839863  0.18735711  0.93739971  1
  Zn  Zn176  1  0.93704882  0.68854012  0.44093076  1
  Zn  Zn177  1  0.93871523  0.68709824  0.94069432  1
  Zn  Zn178  1  0.06258561  0.31132449  0.06064374  1
  Zn  Zn179  1  0.06242994  0.31159737  0.56337463  1
  Zn  Zn180  1  0.06241348  0.81282650  0.06369426  1
  Zn  Zn181  1  0.06214657  0.81048892  0.56431199  1
  Zn  Zn182  1  0.56287087  0.31376790  0.06286180  1
  Zn  Zn183  1  0.56334170  0.31366787  0.56364565  1
  Zn  Zn184  1  0.56254448  0.81152559  0.06203820  1
  Zn  Zn185  1  0.56325227  0.81388022  0.56056732  1
  O  O186  1  0.11805110  0.11785630  0.12341500  1
  O  O187  1  0.12041380  0.11708058  0.61972210  1
  O  O188  1  0.11932003  0.61826233  0.12176641  1
  O  O189  1  0.11821452  0.61996461  0.61970805  1
  O  O190  1  0.61558540  0.12565963  0.11778778  1
  O  O191  1  0.61942947  0.11950331  0.61924770  1
  O  O192  1  0.62251850  0.62103238  0.11283259  1
  O  O193  1  0.63090718  0.61556251  0.61412797  1
  O  O194  1  0.37387305  0.38367328  0.38169372  1
  O  O195  1  0.37718424  0.38163880  0.88143044  1
  O  O196  1  0.38094808  0.88512787  0.37631430  1
  O  O197  1  0.36534549  0.87430981  0.88840507  1
  O  O198  1  0.87669628  0.38257468  0.38257124  1
  O  O199  1  0.88046640  0.38203144  0.87990924  1
  O  O200  1  0.87564627  0.88156502  0.38420393  1
  O  O201  1  0.87940051  0.88171545  0.88117890  1
  O  O202  1  0.25950318  -0.00091554  0.37056821  1
  O  O203  1  0.25364548  0.01083833  0.87834999  1
  O  O204  1  0.25844040  0.50740172  0.37253308  1
  O  O205  1  0.25562500  0.50123079  0.86867361  1
  O  O206  1  0.76100770  0.00117652  0.36769245  1
  O  O207  1  0.75655543  0.00843815  0.87002964  1
  O  O208  1  0.75479823  0.50451217  0.36809706  1
  O  O209  1  0.75830763  0.50025664  0.86574004  1
  O  O210  1  0.23702040  0.49863139  0.12748611  1
  O  O211  1  0.24122669  0.49901028  0.63194726  1
  O  O212  1  0.24557035  0.99533040  0.12901816  1
  O  O213  1  0.23957723  0.98829983  0.61926799  1
  O  O214  1  0.75198684  0.49444762  0.13485254  1
  O  O215  1  0.74594202  0.49448225  0.63323427  1
  O  O216  1  0.74956459  0.99261160  0.13135798  1
  O  O217  1  0.74583210  0.99476953  0.62744743  1
  O  O218  1  0.01004936  0.36927809  0.25043552  1
  O  O219  1  0.00636022  0.36899492  0.75507474  1
  O  O220  1  0.00938704  0.87230545  0.25265371  1
  O  O221  1  0.00529678  0.86860985  0.75565736  1
  O  O222  1  0.50451990  0.37108165  0.25484199  1
  O  O223  1  0.50669253  0.36778167  0.75222434  1
  O  O224  1  0.50624972  0.87045961  0.25466929  1
  O  O225  1  0.49681373  0.88158737  0.75534751  1
  O  O226  1  0.49811514  0.12692452  0.23608079  1
  O  O227  1  0.49285672  0.13051886  0.74406295  1
  O  O228  1  0.49347415  0.63271952  0.24924584  1
  O  O229  1  0.48508946  0.61951546  0.75346776  1
  O  O230  1  0.99429584  0.13057194  0.24333116  1
  O  O231  1  1.00051461  0.13086577  0.73947926  1
  O  O232  1  0.99952694  0.62659092  0.23804385  1
  O  O233  1  1.00402124  0.63456132  0.74183665  1
  O  O234  1  0.37145856  0.25427621  0.00631035  1
  O  O235  1  0.36456954  0.25638885  0.49845753  1
  O  O236  1  0.36955313  0.75595931  0.00606709  1
  O  O237  1  0.36634019  0.75046145  0.50723804  1
  O  O238  1  0.86949383  0.25466462  0.00567977  1
  O  O239  1  0.86854429  0.25685450  0.50076812  1
  O  O240  1  0.86968899  0.75502214  0.00800162  1
  O  O241  1  0.86879969  0.75911562  0.50920174  1
  O  O242  1  0.13207925  0.24341760  0.49505013  1
  O  O243  1  0.13195049  0.24730412  0.99299292  1
  O  O244  1  0.12909792  0.74336892  0.49640992  1
  O  O245  1  0.12973793  0.74624404  0.99559246  1
  O  O246  1  0.63022102  0.24577755  0.49318739  1
  O  O247  1  0.63084678  0.24505864  0.99420144  1
  O  O248  1  0.63084962  0.74341711  0.49572078  1
  O  O249  1  0.63587207  0.74218890  1.00202245  1
  O  O250  1  0.49061861  0.24120063  0.12188272  1
  O  O251  1  0.50031807  0.24285701  0.63207196  1
  O  O252  1  0.49288961  0.74910379  0.13216836  1
  O  O253  1  0.48259647  0.75897836  0.62161149  1
  O  O254  1  0.99432988  0.24474485  0.13004863  1
  O  O255  1  1.00181844  0.23886279  0.63117556  1
  O  O256  1  0.99567761  0.74073999  0.12581449  1
  O  O257  1  0.99094188  0.74618398  0.63085934  1
  O  O258  1  0.00668362  0.25205994  0.36722694  1
  O  O259  1  0.00638318  0.25371936  0.86908777  1
  O  O260  1  0.00821202  0.75144323  0.37500229  1
  O  O261  1  0.00286925  0.75617748  0.87140335  1
  O  O262  1  0.51170786  0.24889512  0.37360072  1
  O  O263  1  0.50798408  0.24938126  0.86910267  1
  O  O264  1  0.50523276  0.75701518  0.36913158  1
  O  O265  1  0.50224276  0.75171731  0.87880092  1
  O  O266  1  0.23982656  0.13324470  0.49901216  1
  O  O267  1  0.25033180  0.13022090  0.98868448  1
  O  O268  1  0.24282346  0.62990319  0.49515395  1
  O  O269  1  0.24334549  0.63272105  0.99936035  1
  O  O270  1  0.74329147  0.13274472  0.49939524  1
  O  O271  1  0.74497080  0.13054041  0.99530622  1
  O  O272  1  0.74332580  0.63208065  0.49341968  1
  O  O273  1  0.74349859  0.63176191  1.00364814  1
  O  O274  1  0.25673197  0.36651047  0.00199058  1
  O  O275  1  0.25655797  0.36496229  0.50012982  1
  O  O276  1  0.25801551  0.86996604  0.00642352  1
  O  O277  1  0.24901158  0.86732271  0.51143492  1
  O  O278  1  0.75574065  0.36897325  0.00519338  1
  O  O279  1  0.75570138  0.37094894  0.50599562  1
  O  O280  1  0.75658912  0.86641435  0.00750465  1
  O  O281  1  0.75794893  0.86995830  0.50867106  1
  O  O282  1  0.12466521  0.49148100  0.24223819  1
  O  O283  1  0.12943015  0.49504134  0.74575993  1
  O  O284  1  0.13078055  0.99423638  0.24462662  1
  O  O285  1  0.12219070  0.99200600  0.73765355  1
  O  O286  1  0.63772237  0.49998136  0.25014183  1
  O  O287  1  0.63284963  0.49619502  0.74354979  1
  O  O288  1  0.63193661  0.99308066  0.24913837  1
  O  O289  1  0.63303215  1.00038830  0.74116450  1
  O  O290  1  0.37017107  -0.00037674  0.25836043  1
  O  O291  1  0.37857333  0.01595485  0.74654694  1
  O  O292  1  0.37158628  0.50602499  0.25835581  1
  O  O293  1  0.36899426  0.50468079  0.75335646  1
  O  O294  1  0.86979778  0.00449788  0.25731696  1
  O  O295  1  0.86929260  0.00251469  0.75634468  1
  O  O296  1  0.86558794  0.50164757  0.25674827  1
  O  O297  1  0.86473494  0.49284680  0.75926315  1
  O  O298  1  0.12374419  0.37025443  0.36537527  1
  O  O299  1  0.11956603  0.36903362  0.86966512  1
  O  O300  1  0.12463089  0.86947575  0.37073852  1
  O  O301  1  0.11873314  0.87000757  0.87054365  1
  O  O302  1  0.62335410  0.36437818  0.37683512  1
  O  O303  1  0.62449063  0.36853822  0.86782598  1
  O  O304  1  0.62139473  0.86907203  0.37035742  1
  O  O305  1  0.66315975  0.86235802  0.86221191  1
  O  O306  1  0.38301248  0.13312902  0.12251107  1
  O  O307  1  0.37971042  0.12785462  0.63081094  1
  O  O308  1  0.37532305  0.63231718  0.13249961  1
  O  O309  1  0.36771700  0.63444376  0.63331063  1
  O  O310  1  0.88047704  0.13064094  0.13045418  1
  O  O311  1  0.88733682  0.12532257  0.62403707  1
  O  O312  1  0.88602304  0.62915004  0.12484523  1
  O  O313  1  0.87913884  0.63927205  0.61729445  1
  O  O314  1  0.25965180  0.24714767  0.11743132  1
  O  O315  1  0.24918487  0.25158687  0.61198012  1
  O  O316  1  0.25475055  0.75640480  0.11972262  1
  O  O317  1  0.25484878  0.75758383  0.62009850  1
  O  O318  1  0.75628881  0.25455912  0.11964286  1
  O  O319  1  0.74983837  0.25796830  0.61823788  1
  O  O320  1  0.75618136  0.75376577  0.11722027  1
  O  O321  1  0.75549214  0.75818629  0.62149000  1
  O  O322  1  0.24340353  0.24697019  0.38409657  1
  O  O323  1  0.24530035  0.24157891  0.88001022  1
  O  O324  1  0.24461379  0.74494499  0.38240631  1
  O  O325  1  0.24022770  0.74869878  0.88218594  1
  O  O326  1  0.74114654  0.24850746  0.38192370  1
  O  O327  1  0.74590706  0.24602798  0.88033365  1
  O  O328  1  0.74432187  0.74567346  0.38045648  1
  O  O329  1  0.76253214  0.74126883  0.89229091  1
  O  O330  1  0.00147995  0.11797126  0.00629132  1
  O  O331  1  0.01257627  0.13348914  0.51036368  1
  O  O332  1  0.00757429  0.62315359  0.01209358  1
  O  O333  1  0.00534023  0.61921868  0.50807302  1
  O  O334  1  0.50394449  0.11797264  0.00739956  1
  O  O335  1  0.50612422  0.12014513  0.50532472  1
  O  O336  1  0.50806764  0.61493222  0.00221354  1
  O  O337  1  0.51402690  0.63086078  0.49447857  1
  O  O338  1  0.48433342  0.36654020  0.49672743  1
  O  O339  1  0.49457500  0.38400739  0.99861555  1
  O  O340  1  0.49910473  0.88335816  0.49153618  1
  O  O341  1  0.49072459  0.88476637  1.00771239  1
  O  O342  1  0.99426385  0.38180182  0.49975393  1
  O  O343  1  0.99368917  0.37501910  0.99264173  1
  O  O344  1  0.98654014  0.87096440  0.50113572  1
  O  O345  1  0.99425396  0.87985494  0.99445753  1
  O  O346  1  0.48499190  0.50123031  0.37239870  1
  O  O347  1  0.49410378  0.49867121  0.88677217  1
  O  O348  1  0.49340853  0.99617530  0.37771058  1
  O  O349  1  0.49809184  1.00804330  0.88895618  1
  O  O350  1  0.99332369  0.49998289  0.38272927  1
  O  O351  1  0.99220528  0.49248790  0.87445457  1
  O  O352  1  0.98537563  0.99799850  0.37007126  1
  O  O353  1  0.99585581  0.99458967  0.87939701  1
  O  O354  1  0.00449777  0.00472208  0.11978931  1
  O  O355  1  0.01048857  0.01000771  0.62778601  1
  O  O356  1  0.00936662  0.50784183  0.12413418  1
  O  O357  1  0.00421769  0.50589533  0.62094751  1
  O  O358  1  0.50018614  0.01010092  0.11550613  1
  O  O359  1  0.50604249  0.00679607  0.61594910  1
  O  O360  1  0.50025728  0.50078098  0.11263043  1
  O  O361  1  0.51416898  0.49579065  0.63045512  1
  O  O362  1  0.23591518  0.37460907  0.24622754  1
  O  O363  1  0.24368691  0.38130141  0.74916314  1
  O  O364  1  0.24461524  0.88071509  0.24381235  1
  O  O365  1  0.24199556  0.86720697  0.73706216  1
  O  O366  1  0.74969187  0.38489380  0.24484749  1
  O  O367  1  0.74308946  0.38305283  0.74399830  1
  O  O368  1  0.74528705  0.87904432  0.24538161  1
  O  O369  1  0.75614851  0.88424546  0.73189187  1
  O  O370  1  0.25228566  0.11596789  0.25387361  1
  O  O371  1  0.25931291  0.13231455  0.75827586  1
  O  O372  1  0.25678317  0.62498289  0.25791621  1
  O  O373  1  0.25738734  0.61745118  0.75242186  1
  O  O374  1  0.75773269  0.11801925  0.25022266  1
  O  O375  1  0.75213585  0.12024086  0.75534189  1
  O  O376  1  0.75103206  0.61598342  0.25612889  1
  O  O377  1  0.74388146  0.61216983  0.74976807  1
  O  O378  1  0.37526368  0.11235843  0.37332414  1
  O  O379  1  0.36742967  0.12239904  0.86531159  1
  O  O380  1  0.36925888  0.61887089  0.37159674  1
  O  O381  1  0.37034157  0.61701010  0.86563371  1
  O  O382  1  0.87420420  0.11712793  0.37000529  1
  O  O383  1  0.86943174  0.11931205  0.87402472  1
  O  O384  1  0.86799012  0.61912889  0.37607308  1
  O  O385  1  0.87637793  0.60885249  0.88234493  1
  O  O386  1  0.12371790  0.38246807  0.13214843  1
  O  O387  1  0.12519550  0.38231888  0.63201478  1
  O  O388  1  0.13119042  0.88056122  0.12994559  1
  O  O389  1  0.12935326  0.88099785  0.62861597  1
  O  O390  1  0.63495857  0.37722596  0.12681787  1
  O  O391  1  0.63111308  0.38407080  0.62866971  1
  O  O392  1  0.63223393  0.87512369  0.13241550  1
  O  O393  1  0.63709153  0.88238862  0.61945302  1
  O  O394  1  0.12017556  0.25640361  0.25335474  1
  O  O395  1  0.12001151  0.25576569  0.75524291  1
  O  O396  1  0.12538586  0.75685327  0.25790081  1
  O  O397  1  0.11729248  0.75610828  0.75574509  1
  O  O398  1  0.62599352  0.25058859  0.26178938  1
  O  O399  1  0.62043736  0.25556386  0.75477164  1
  O  O400  1  0.62062187  0.75404492  0.25618436  1
  O  O401  1  0.61375637  0.75579279  0.75154837  1
  O  O402  1  0.37436452  0.24847552  0.23806916  1
  O  O403  1  0.38176116  0.24103986  0.74821507  1
  O  O404  1  0.37976727  0.74610072  0.24635321  1
  O  O405  1  0.37533279  0.73991063  0.74170846  1
  O  O406  1  0.87943692  0.24546396  0.24543112  1
  O  O407  1  0.88405482  0.24860904  0.74646105  1
  O  O408  1  0.87626562  0.74697478  0.24226446  1
  O  O409  1  0.87758423  0.76053003  0.73788505  1
  O  O410  1  0.36622600  0.48968390  0.49076380  1
  O  O411  1  0.38130344  0.49632858  0.99603778  1
  O  O412  1  0.38064463  0.99912997  0.49064807  1
  O  O413  1  0.38313063  0.98932228  0.99844722  1
  O  O414  1  0.87926157  0.49535066  0.49621465  1
  O  O415  1  0.87623983  0.49142379  0.99089345  1
  O  O416  1  0.86777566  0.99008301  0.49004603  1
  O  O417  1  0.88042232  0.99440022  0.99466318  1
  O  O418  1  0.11812738  -0.00034763  0.00679263  1
  O  O419  1  0.12896430  0.01136527  0.50899333  1
  O  O420  1  0.12358402  0.50416496  0.00951985  1
  O  O421  1  0.11972557  0.50473443  0.50489617  1
  O  O422  1  0.61717126  0.00554524  0.00232829  1
  O  O423  1  0.62116634  0.00627934  0.50288273  1
  O  O424  1  0.61824011  0.50590293  -0.00004695  1
  O  O425  1  0.63120101  0.50984480  0.50981869  1
  O  O426  1  0.37311204  0.36467987  0.11917126  1
  O  O427  1  0.37066853  0.37235480  0.61470890  1
  O  O428  1  0.36936780  0.86936833  0.11689082  1
  O  O429  1  0.36328240  0.86752754  0.62263835  1
  O  O430  1  0.87070811  0.36912440  0.12006389  1
  O  O431  1  0.86866381  0.37375570  0.61786096  1
  O  O432  1  0.87081654  0.86968596  0.12017819  1
  O  O433  1  0.86849047  0.87006128  0.61706759  1
  O  O434  1  0.12404883  0.12904458  0.38429369  1
  O  O435  1  0.13455319  0.12954253  0.87375808  1
  O  O436  1  0.12994887  0.62956358  0.38099404  1
  O  O437  1  0.12336708  0.63178910  0.88312245  1
  O  O438  1  0.62724186  0.13338964  0.38139205  1
  O  O439  1  0.63204897  0.13120465  0.87990707  1
  O  O440  1  0.63104466  0.63049071  0.38291229  1
  O  O441  1  0.63102608  0.62578238  0.88972949  1
