# generated using pymatgen
data_V93Zn93O256
_symmetry_space_group_name_H-M   'P 1'
_cell_length_a   17.04564049
_cell_length_b   17.04738676
_cell_length_c   17.04745522
_cell_angle_alpha   90.00836606
_cell_angle_beta   90.04244478
_cell_angle_gamma   89.98923735
_symmetry_Int_Tables_number   1
_chemical_formula_structural   V93Zn93O256
_chemical_formula_sum   'V93 Zn93 O256'
_cell_volume   4953.70985123
_cell_formula_units_Z   1
loop_
 _symmetry_equiv_pos_site_id
 _symmetry_equiv_pos_as_xyz
  1  'x, y, z'
loop_
 _atom_site_type_symbol
 _atom_site_label
 _atom_site_symmetry_multiplicity
 _atom_site_fract_x
 _atom_site_fract_y
 _atom_site_fract_z
 _atom_site_occupancy
  V  V0  1  0.50082936  0.25066600  0.25047995  1
  V  V1  1  0.00053603  0.00191415  -0.00075425  1
  V  V2  1  0.50084469  0.37398802  0.87571712  1
  V  V3  1  0.49899992  0.87214374  0.87544267  1
  V  V4  1  0.37707692  0.12296079  0.25204215  1
  V  V5  1  0.49616464  0.88158983  0.37579424  1
  V  V6  1  0.37501496  0.62443768  0.25135632  1
  V  V7  1  0.00277291  0.88128335  0.37753325  1
  V  V8  1  0.74951159  0.75073460  0.49952826  1
  V  V9  1  0.37646165  0.37443001  0.00100298  1
  V  V10  1  0.74856075  0.74931350  -0.00053536  1
  V  V11  1  0.49804134  0.61864316  0.62213403  1
  V  V12  1  0.25118026  0.25026986  0.00030442  1
  V  V13  1  0.37333415  0.74790235  0.62522728  1
  V  V14  1  0.25074663  0.25007053  0.49981598  1
  V  V15  1  0.00025145  0.37554802  0.37555713  1
  V  V16  1  0.74985482  0.50075463  0.75032585  1
  V  V17  1  0.12608996  0.37538203  0.24925031  1
  V  V18  1  0.74985725  0.24834425  0.49850901  1
  V  V19  1  0.87672701  0.37135438  0.00347851  1
  V  V20  1  0.24994855  0.62444839  0.87449268  1
  V  V21  1  0.37362190  -0.00189384  0.87655692  1
  V  V22  1  0.74964247  0.37450865  0.62477234  1
  V  V23  1  0.75032236  0.87588540  0.12454296  1
  V  V24  1  0.62438232  0.37415152  0.75069756  1
  V  V25  1  0.24899374  0.12500673  0.87548189  1
  V  V26  1  0.49967062  0.49907302  0.00029468  1
  V  V27  1  0.75151641  0.12542484  0.87316669  1
  V  V28  1  0.37501151  0.88073408  0.49591699  1
  V  V29  1  0.24647894  -0.00264720  0.74867411  1
  V  V30  1  0.75230824  0.00086046  0.24977531  1
  V  V31  1  0.36825581  0.75272189  0.12539137  1
  V  V32  1  0.49985045  0.75016056  0.25024140  1
  V  V33  1  0.87379397  0.62484767  0.25294459  1
  V  V34  1  0.37578408  0.25059951  0.12548002  1
  V  V35  1  0.62481273  0.74948203  0.37573367  1
  V  V36  1  0.12624765  0.25440940  0.87268309  1
  V  V37  1  0.87390059  0.75139347  0.62334045  1
  V  V38  1  0.25354530  0.12114712  0.37387038  1
  V  V39  1  0.24882595  0.74840201  0.50077403  1
  V  V40  1  0.00578618  0.25488369  0.74777476  1
  V  V41  1  0.62582215  0.00023398  0.12400609  1
  V  V42  1  0.62650590  0.25036694  0.37601275  1
  V  V43  1  -0.00223698  0.75067551  0.75030354  1
  V  V44  1  0.12335974  0.62575800  0.00098574  1
  V  V45  1  -0.00074311  0.87584834  0.87335421  1
  V  V46  1  0.50007739  0.62466725  0.12546578  1
  V  V47  1  0.24908316  0.87384315  0.62517002  1
  V  V48  1  0.00162342  0.12038323  0.61958247  1
  V  V49  1  0.87433109  0.87614435  -0.00068716  1
  V  V50  1  0.12895764  -0.00031451  0.12379291  1
  V  V51  1  0.00040171  0.62576282  0.12497640  1
  V  V52  1  0.62466475  0.87642251  0.74637275  1
  V  V53  1  0.62556422  0.12378074  -0.00101804  1
  V  V54  1  0.62622552  0.49930758  0.12629603  1
  V  V55  1  0.00113805  0.75278782  0.24989904  1
  V  V56  1  0.25019947  0.49873082  0.25157125  1
  V  V57  1  -0.00129600  0.62428853  0.62471152  1
  V  V58  1  0.87769305  0.00407179  0.37468339  1
  V  V59  1  0.24973569  0.62428628  0.37740684  1
  V  V60  1  0.37813677  0.49964161  0.37841389  1
  V  V61  1  0.12948678  0.87588832  0.24639540  1
  V  V62  1  0.62571281  0.62582058  0.00019370  1
  V  V63  1  0.50013659  0.37829404  0.37864326  1
  V  V64  1  0.75222682  0.25042677  0.00160937  1
  V  V65  1  0.62536648  0.24998265  0.87418716  1
  V  V66  1  0.87779479  0.87993673  0.49941957  1
  V  V67  1  -0.00517604  0.12930448  0.12442735  1
  V  V68  1  0.62127070  0.62086324  0.49969087  1
  V  V69  1  0.50071453  -0.00117828  0.00073419  1
  V  V70  1  0.62192128  0.49869633  0.62324406  1
  V  V71  1  -0.00410916  0.25072994  0.24485715  1
  V  V72  1  0.12431191  0.49442253  0.63296134  1
  V  V73  1  0.75504787  0.37134201  0.12685441  1
  V  V74  1  -0.00034272  0.49947465  0.49974384  1
  V  V75  1  0.12499272  0.62478430  0.50059532  1
  V  V76  1  0.87525501  0.75183622  0.12516144  1
  V  V77  1  0.12378087  0.11877374  0.49885732  1
  V  V78  1  0.49855480  0.74736451  0.75065969  1
  V  V79  1  0.87168353  0.62474657  0.75034113  1
  V  V80  1  0.00046651  0.37722441  0.87312670  1
  V  V81  1  0.12515678  0.50126465  0.12575997  1
  V  V82  1  0.62631593  0.37559419  0.25065553  1
  V  V83  1  0.12302158  0.75056606  0.87522125  1
  V  V84  1  0.87598594  0.25126706  0.62320207  1
  V  V85  1  0.87476695  0.00162355  0.87271668  1
  V  V86  1  0.24576526  0.37315309  0.63264551  1
  V  V87  1  0.25498031  -0.00169771  0.24784716  1
  V  V88  1  0.36818823  0.87405578  0.00485271  1
  V  V89  1  0.87561254  0.12554427  0.74881032  1
  V  V90  1  0.37790185  0.12472039  0.74728123  1
  V  V91  1  0.62514470  0.87500764  0.25060116  1
  V  V92  1  0.37874267  0.37936184  0.50180188  1
  Zn  Zn93  1  0.87317997  0.12984922  0.24668393  1
  Zn  Zn94  1  0.74792612  0.00047664  0.74622566  1
  Zn  Zn95  1  0.37318360  0.49906025  0.87452252  1
  Zn  Zn96  1  0.87219761  0.50092752  0.87653636  1
  Zn  Zn97  1  0.74948025  0.62328895  0.37577874  1
  Zn  Zn98  1  0.12547332  0.75079806  0.37533547  1
  Zn  Zn99  1  0.12250273  0.87451407  0.74763377  1
  Zn  Zn100  1  0.87313608  0.50251331  0.37774029  1
  Zn  Zn101  1  0.74958014  0.12532596  0.37311377  1
  Zn  Zn102  1  -0.00183250  0.50050072  0.00005244  1
  Zn  Zn103  1  0.50218798  0.12423033  0.62045747  1
  Zn  Zn104  1  0.25058807  0.37531194  0.12540879  1
  Zn  Zn105  1  0.87456139  0.37766064  0.49951552  1
  Zn  Zn106  1  0.24634836  0.75288934  0.00327099  1
  Zn  Zn107  1  0.75094757  0.50074627  0.25253637  1
  Zn  Zn108  1  0.74728339  0.87817759  0.62342917  1
  Zn  Zn109  1  0.62592070  0.74785165  0.87473704  1
  Zn  Zn110  1  0.12558440  0.24871649  0.37221361  1
  Zn  Zn111  1  0.12058838  -0.00406865  0.61933502  1
  Zn  Zn112  1  0.50085409  0.24799730  0.74783034  1
  Zn  Zn113  1  0.37228052  0.61972001  0.75056677  1
  Zn  Zn114  1  0.50004100  0.00307064  0.50054739  1
  Zn  Zn115  1  0.12523974  0.12634859  0.00022073  1
  Zn  Zn116  1  0.74883616  0.62409047  0.87552902  1
  Zn  Zn117  1  0.24823972  0.49376490  0.75509676  1
  Zn  Zn118  1  0.62443081  0.00272669  0.62012282  1
  Zn  Zn119  1  0.50236509  0.12561936  0.12491222  1
  Zn  Zn120  1  0.37736086  0.24992499  0.62609282  1
  Zn  Zn121  1  0.62104668  0.12130575  0.49977086  1
  Zn  Zn122  1  0.18531901  0.18811343  0.18572142  1
  Zn  Zn123  1  0.18819621  0.18501166  0.68645656  1
  Zn  Zn124  1  0.18766396  0.68598898  0.18994896  1
  Zn  Zn125  1  0.18430305  0.68575495  0.68938616  1
  Zn  Zn126  1  0.68920991  0.18767188  0.18785078  1
  Zn  Zn127  1  0.68615567  0.18620085  0.68511887  1
  Zn  Zn128  1  0.68820070  0.68853141  0.18644176  1
  Zn  Zn129  1  0.68703314  0.68912028  0.68527341  1
  Zn  Zn130  1  0.31359477  0.31123291  0.31414833  1
  Zn  Zn131  1  0.31616545  0.31034525  0.81484305  1
  Zn  Zn132  1  0.31234488  0.81118544  0.31434646  1
  Zn  Zn133  1  0.31167978  0.81045217  0.81461173  1
  Zn  Zn134  1  0.81496524  0.31377542  0.31304120  1
  Zn  Zn135  1  0.81433134  0.31200553  0.81231286  1
  Zn  Zn136  1  0.81236735  0.81279629  0.31431718  1
  Zn  Zn137  1  0.80961698  0.81182035  0.81284585  1
  Zn  Zn138  1  0.18690482  0.43816727  0.44017705  1
  Zn  Zn139  1  0.18636683  0.43803096  0.94093241  1
  Zn  Zn140  1  0.19193710  0.93777802  0.43382339  1
  Zn  Zn141  1  0.18573975  0.93687484  0.93568195  1
  Zn  Zn142  1  0.68954850  0.43910926  0.43653462  1
  Zn  Zn143  1  0.68789457  0.43858581  0.93819983  1
  Zn  Zn144  1  0.68881008  0.93893342  0.43710523  1
  Zn  Zn145  1  0.68681252  0.93611513  0.93253350  1
  Zn  Zn146  1  0.31434326  0.06446727  0.06395660  1
  Zn  Zn147  1  0.31142660  0.06145160  0.56421540  1
  Zn  Zn148  1  0.31130776  0.56280145  0.06155594  1
  Zn  Zn149  1  0.31001371  0.55918050  0.56562493  1
  Zn  Zn150  1  0.81277268  0.06269549  0.06091572  1
  Zn  Zn151  1  0.81003680  0.06134501  0.56349682  1
  Zn  Zn152  1  0.81359048  0.55993402  0.06332393  1
  Zn  Zn153  1  0.81041115  0.56227920  0.56192497  1
  Zn  Zn154  1  0.43842616  0.43714914  0.18896917  1
  Zn  Zn155  1  0.43334050  0.43634999  0.69133100  1
  Zn  Zn156  1  0.43932664  0.93698178  0.18610640  1
  Zn  Zn157  1  0.43837169  0.93805192  0.68371425  1
  Zn  Zn158  1  0.93848247  0.43967296  0.18824704  1
  Zn  Zn159  1  0.93522761  0.43793784  0.68756049  1
  Zn  Zn160  1  0.94029295  0.94045825  0.18754467  1
  Zn  Zn161  1  0.93546443  0.93827623  0.68689630  1
  Zn  Zn162  1  0.06456287  0.06469961  0.31052821  1
  Zn  Zn163  1  0.06215693  0.06616595  0.81098007  1
  Zn  Zn164  1  0.06205325  0.56229135  0.31270955  1
  Zn  Zn165  1  0.06135178  0.56455141  0.81267944  1
  Zn  Zn166  1  0.56531047  0.06363853  0.31459511  1
  Zn  Zn167  1  0.56181740  0.05944809  0.81412766  1
  Zn  Zn168  1  0.56156331  0.56024167  0.31348460  1
  Zn  Zn169  1  0.56300192  0.56083124  0.81370866  1
  Zn  Zn170  1  0.43859093  0.18985645  0.43712006  1
  Zn  Zn171  1  0.43838426  0.18658133  0.93586709  1
  Zn  Zn172  1  0.43690307  0.69100611  0.43809403  1
  Zn  Zn173  1  0.43569584  0.68663576  0.93953186  1
  Zn  Zn174  1  0.93842995  0.19108840  0.43614544  1
  Zn  Zn175  1  0.93813113  0.18899746  0.93765691  1
  Zn  Zn176  1  0.94011722  0.69172271  0.43713385  1
  Zn  Zn177  1  0.93514199  0.68739329  0.93696762  1
  Zn  Zn178  1  0.06546950  0.31363193  0.06134708  1
  Zn  Zn179  1  0.06516408  0.31016474  0.55983642  1
  Zn  Zn180  1  0.06160502  0.81370239  0.06169660  1
  Zn  Zn181  1  0.06194757  0.81205650  0.56261297  1
  Zn  Zn182  1  0.56464187  0.31153391  0.06345678  1
  Zn  Zn183  1  0.56101367  0.30704159  0.56569887  1
  Zn  Zn184  1  0.56041179  0.81218955  0.06283151  1
  Zn  Zn185  1  0.55959816  0.81032714  0.56255968  1
  O  O186  1  0.11606943  0.11469241  0.12372107  1
  O  O187  1  0.11882083  0.12345243  0.61616806  1
  O  O188  1  0.11962729  0.62203657  0.12127786  1
  O  O189  1  0.11833886  0.61637493  0.61996604  1
  O  O190  1  0.62592585  0.11822363  0.11715413  1
  O  O191  1  0.62182057  0.12245609  0.62021761  1
  O  O192  1  0.61907531  0.62006294  0.12119016  1
  O  O193  1  0.61650589  0.62060629  0.61834053  1
  O  O194  1  0.37919107  0.37922186  0.38280480  1
  O  O195  1  0.38253631  0.37446524  0.88382623  1
  O  O196  1  0.38428359  0.86622993  0.38426544  1
  O  O197  1  0.37976690  0.87840902  0.88376707  1
  O  O198  1  0.89000205  0.37835080  0.37488398  1
  O  O199  1  0.88479005  0.37580533  0.88255639  1
  O  O200  1  0.88362523  0.88218290  0.37976763  1
  O  O201  1  0.87973955  0.88098000  0.87983672  1
  O  O202  1  0.24768561  0.01193246  0.36196919  1
  O  O203  1  0.25404403  0.00377390  0.86793146  1
  O  O204  1  0.25627361  0.50546118  0.37121260  1
  O  O205  1  0.24650800  0.51017743  0.87460380  1
  O  O206  1  0.76154451  0.00021433  0.36738654  1
  O  O207  1  0.75738134  0.00738051  0.87247337  1
  O  O208  1  0.75520006  0.50513071  0.37054706  1
  O  O209  1  0.75049714  0.50148001  0.86531989  1
  O  O210  1  0.24371582  0.50026113  0.13377009  1
  O  O211  1  0.24002411  0.49022688  0.62668672  1
  O  O212  1  0.23923732  1.00801785  0.13463409  1
  O  O213  1  0.24864571  0.99263606  0.63520992  1
  O  O214  1  0.74422697  0.48852756  0.12709889  1
  O  O215  1  0.74265039  0.49377787  0.63009232  1
  O  O216  1  0.74561262  0.99419160  0.12873809  1
  O  O217  1  0.74644645  0.99470054  0.62954628  1
  O  O218  1  0.00565029  0.36992299  0.25516189  1
  O  O219  1  -0.00656077  0.36327408  0.75860301  1
  O  O220  1  0.00973433  0.87269081  0.25682143  1
  O  O221  1  -0.00102388  0.86896564  0.75565830  1
  O  O222  1  0.50622958  0.36951212  0.25657863  1
  O  O223  1  0.50686733  0.37369871  0.75763860  1
  O  O224  1  0.50418122  0.86953715  0.25633521  1
  O  O225  1  0.50352135  0.86489212  0.75434080  1
  O  O226  1  0.49134143  0.13000399  0.25134488  1
  O  O227  1  0.48551375  0.12217272  0.75492120  1
  O  O228  1  0.49419705  0.63041180  0.24545011  1
  O  O229  1  0.49976521  0.63308556  0.74168183  1
  O  O230  1  1.00134993  0.13376961  0.24197104  1
  O  O231  1  0.99643438  0.13612113  0.74125446  1
  O  O232  1  0.99420089  0.63297884  0.24549070  1
  O  O233  1  0.99235596  0.63060658  0.74396094  1
  O  O234  1  0.37144898  0.25409041  0.00521667  1
  O  O235  1  0.36262714  0.25828746  0.49942822  1
  O  O236  1  0.37484592  0.75753756  0.00937078  1
  O  O237  1  0.36771164  0.75656443  0.50640276  1
  O  O238  1  0.86847072  0.26311629  -0.00585823  1
  O  O239  1  0.86750464  0.25398999  0.50447869  1
  O  O240  1  0.87008526  0.75691175  0.00654615  1
  O  O241  1  0.87042670  0.75854422  0.50334673  1
  O  O242  1  0.13753608  0.24013246  0.49743882  1
  O  O243  1  0.13181436  0.24847834  0.99024511  1
  O  O244  1  0.13106913  0.74275964  0.49934846  1
  O  O245  1  0.12571925  0.74543136  0.99488276  1
  O  O246  1  0.63581518  0.25254381  0.49317659  1
  O  O247  1  0.63172695  0.24389755  0.99415250  1
  O  O248  1  0.62961972  0.74240606  0.49616744  1
  O  O249  1  0.63018362  0.74412785  1.00125882  1
  O  O250  1  0.49563976  0.24802747  0.13301998  1
  O  O251  1  0.49360532  0.24418600  0.63150087  1
  O  O252  1  0.49129545  0.74443099  0.13141158  1
  O  O253  1  0.49390161  0.74005414  0.63355809  1
  O  O254  1  1.00847226  0.24070955  0.13224652  1
  O  O255  1  0.99812576  0.24464275  0.63135734  1
  O  O256  1  0.99436833  0.74668585  0.13080689  1
  O  O257  1  0.99360258  0.74405941  0.62983432  1
  O  O258  1  0.00459834  0.25917281  0.36658885  1
  O  O259  1  0.00684509  0.25616522  0.86747491  1
  O  O260  1  0.00308610  0.76356521  0.36792752  1
  O  O261  1  0.00268027  0.75625619  0.87005925  1
  O  O262  1  0.50593121  0.25865148  0.36880694  1
  O  O263  1  0.50819249  0.25591555  0.87395933  1
  O  O264  1  0.50504912  0.75740422  0.36851968  1
  O  O265  1  0.49839786  0.75284954  0.86504994  1
  O  O266  1  0.24758472  0.13080514  0.49269880  1
  O  O267  1  0.25000014  0.13131421  0.99252835  1
  O  O268  1  0.24503447  0.62890225  0.49693146  1
  O  O269  1  0.24204088  0.62732794  0.99160282  1
  O  O270  1  0.75250849  0.14035462  0.49718738  1
  O  O271  1  0.74621765  0.13022809  0.99379086  1
  O  O272  1  0.73860954  0.63272005  0.50060758  1
  O  O273  1  0.74401516  0.63141310  1.00301182  1
  O  O274  1  0.25772052  0.36794250  0.00167778  1
  O  O275  1  0.25595687  0.36613358  0.50569798  1
  O  O276  1  0.26451904  0.87403301  -0.00516580  1
  O  O277  1  0.25565831  0.86855966  0.50297628  1
  O  O278  1  0.75701316  0.37098770  0.00722239  1
  O  O279  1  0.75138618  0.36623412  0.50616516  1
  O  O280  1  0.75521960  0.87117956  0.00479652  1
  O  O281  1  0.76227498  0.86808691  0.49789164  1
  O  O282  1  0.13063617  0.49587211  0.24530639  1
  O  O283  1  0.12437963  0.50333637  0.73611163  1
  O  O284  1  0.13321905  0.99484741  0.24258003  1
  O  O285  1  0.13761669  1.00036985  0.74998916  1
  O  O286  1  0.62628337  0.49337692  0.24369879  1
  O  O287  1  0.63010457  0.49381363  0.74316914  1
  O  O288  1  0.63175707  0.99445009  0.24468773  1
  O  O289  1  0.62433332  0.98586835  0.75187866  1
  O  O290  1  0.36550900  0.00966631  0.23932874  1
  O  O291  1  0.36474697  0.00340446  0.75659062  1
  O  O292  1  0.37011289  0.50577632  0.25641526  1
  O  O293  1  0.36741889  0.50280810  0.75637454  1
  O  O294  1  0.87058608  -0.00066163  0.25893881  1
  O  O295  1  0.87470303  0.00805469  0.75634705  1
  O  O296  1  0.87588026  0.51466686  0.25076933  1
  O  O297  1  0.86712561  0.50708327  0.74944437  1
  O  O298  1  0.11569929  0.37546175  0.36938739  1
  O  O299  1  0.11519728  0.36360755  0.88063247  1
  O  O300  1  0.11814198  0.87759485  0.36560011  1
  O  O301  1  0.11660351  0.86902298  0.87277337  1
  O  O302  1  0.62011500  0.37116857  0.37008963  1
  O  O303  1  0.62080367  0.36934679  0.87106907  1
  O  O304  1  0.61718716  0.86794631  0.36914002  1
  O  O305  1  0.61636938  0.87058064  0.86643365  1
  O  O306  1  0.37799659  0.13192537  0.13592314  1
  O  O307  1  0.37139744  0.12530112  0.63783494  1
  O  O308  1  0.38089800  0.63166487  0.13091403  1
  O  O309  1  0.38227018  0.62892409  0.62449611  1
  O  O310  1  0.89045601  0.11827263  0.12605575  1
  O  O311  1  0.88377778  0.13175756  0.62707454  1
  O  O312  1  0.88050384  0.63195505  0.13271156  1
  O  O313  1  0.87990697  0.63139797  0.62901073  1
  O  O314  1  0.25679326  0.25051777  0.11853445  1
  O  O315  1  0.24963377  0.25586557  0.61552013  1
  O  O316  1  0.26450060  0.74374739  0.12484993  1
  O  O317  1  0.25354958  0.75330242  0.62113619  1
  O  O318  1  0.74483322  0.26359068  0.11867588  1
  O  O319  1  0.75574967  0.25550599  0.61709280  1
  O  O320  1  0.75594837  0.75805818  0.11997518  1
  O  O321  1  0.75694397  0.75409584  0.61741208  1
  O  O322  1  0.24857618  0.24011680  0.38259292  1
  O  O323  1  0.24222109  0.24612406  0.87872674  1
  O  O324  1  0.24781011  0.74193544  0.38195869  1
  O  O325  1  0.24201971  0.74161175  0.87739420  1
  O  O326  1  0.74633320  0.25235473  0.38283290  1
  O  O327  1  0.74521315  0.24504477  0.88096209  1
  O  O328  1  0.74236976  0.74839630  0.38131969  1
  O  O329  1  0.74746995  0.74676655  0.88486675  1
  O  O330  1  0.00200752  0.12034025  0.00674677  1
  O  O331  1  0.01198763  0.13607767  0.50875463  1
  O  O332  1  0.00462155  0.62465345  0.00699138  1
  O  O333  1  0.00474697  0.62111316  0.50567024  1
  O  O334  1  0.50701357  0.11671498  0.00005644  1
  O  O335  1  0.49923310  0.12074614  0.49913010  1
  O  O336  1  0.50480890  0.61958276  0.00683775  1
  O  O337  1  0.50947668  0.63383321  0.51145019  1
  O  O338  1  0.48546360  0.36539102  0.49529243  1
  O  O339  1  0.49687696  0.37926134  0.99604540  1
  O  O340  1  0.49048749  0.87084836  0.49119462  1
  O  O341  1  0.49131841  0.87899029  0.99531324  1
  O  O342  1  1.00143186  0.37877749  0.49047630  1
  O  O343  1  0.99246443  0.37352561  0.99194090  1
  O  O344  1  0.99094025  0.86990084  0.48864803  1
  O  O345  1  0.99343385  0.88172424  0.99415530  1
  O  O346  1  0.49108840  0.49065219  0.37109246  1
  O  O347  1  0.49980700  0.49228048  0.88346407  1
  O  O348  1  0.50310417  0.98345210  0.37253732  1
  O  O349  1  0.49270237  0.99181056  0.88193128  1
  O  O350  1  1.00019943  0.49141531  0.38085929  1
  O  O351  1  1.00084384  0.48678558  0.87464392  1
  O  O352  1  0.99283850  0.99011046  0.36694488  1
  O  O353  1  0.99536754  0.99690792  0.87914909  1
  O  O354  1  0.00949354  0.00780219  0.12012771  1
  O  O355  1  0.00121193  0.01653645  0.63053897  1
  O  O356  1  0.00759883  0.50837842  0.12507239  1
  O  O357  1  0.00606961  0.50345384  0.62047826  1
  O  O358  1  0.50863134  0.00140804  0.11871464  1
  O  O359  1  0.50293183  0.00368135  0.62041643  1
  O  O360  1  0.50572199  0.50513618  0.12079495  1
  O  O361  1  0.50435073  0.51220145  0.63213887  1
  O  O362  1  0.24454809  0.38082242  0.25090172  1
  O  O363  1  0.25416173  0.37023288  0.73597423  1
  O  O364  1  0.24097446  0.88566662  0.25856798  1
  O  O365  1  0.24981061  0.88267100  0.74502398  1
  O  O366  1  0.74641111  0.37500060  0.24165086  1
  O  O367  1  0.74474992  0.37933254  0.74410913  1
  O  O368  1  0.74487648  0.87963733  0.24414054  1
  O  O369  1  0.73703784  0.87356959  0.74893650  1
  O  O370  1  0.25622108  0.11969867  0.25557301  1
  O  O371  1  0.25631786  0.11621275  0.75516920  1
  O  O372  1  0.25579711  0.61922671  0.25773849  1
  O  O373  1  0.24861029  0.62408438  0.76296108  1
  O  O374  1  0.75534371  0.11831567  0.25099305  1
  O  O375  1  0.75866320  0.12672739  0.75650239  1
  O  O376  1  0.76211740  0.62670493  0.25001025  1
  O  O377  1  0.75424073  0.61912667  0.74822459  1
  O  O378  1  0.36535598  0.13104291  0.36189675  1
  O  O379  1  0.36799186  0.11752739  0.86881638  1
  O  O380  1  0.37099429  0.62042235  0.37155621  1
  O  O381  1  0.36212319  0.62403749  0.87648486  1
  O  O382  1  0.87773317  0.11348480  0.37382556  1
  O  O383  1  0.87178754  0.12149405  0.86933743  1
  O  O384  1  0.87625769  0.62854707  0.36365230  1
  O  O385  1  0.87238390  0.62187253  0.86633276  1
  O  O386  1  0.12711361  0.38279792  0.13160442  1
  O  O387  1  0.13390561  0.38320060  0.61749433  1
  O  O388  1  0.11803609  0.88672158  0.13574513  1
  O  O389  1  0.13113388  0.87829506  0.62672750  1
  O  O390  1  0.63365944  0.37986389  0.13053771  1
  O  O391  1  0.62918745  0.37956916  0.63005119  1
  O  O392  1  0.63002545  0.88013030  0.13077322  1
  O  O393  1  0.62318473  0.87210094  0.63636480  1
  O  O394  1  0.11645819  0.25666757  0.25120989  1
  O  O395  1  0.11569494  0.24430892  0.75861871  1
  O  O396  1  0.12174012  0.76113368  0.24980932  1
  O  O397  1  0.11481761  0.75092632  0.75661480  1
  O  O398  1  0.62100238  0.25639963  0.25555916  1
  O  O399  1  0.62605363  0.25707255  0.75771255  1
  O  O400  1  0.61928559  0.75547012  0.25393043  1
  O  O401  1  0.61305279  0.75580584  0.75035397  1
  O  O402  1  0.38020682  0.24265605  0.24562110  1
  O  O403  1  0.37497664  0.23570996  0.75063833  1
  O  O404  1  0.37919748  0.74500749  0.24370354  1
  O  O405  1  0.38429356  0.74811046  0.74439603  1
  O  O406  1  0.89156044  0.24953282  0.25379345  1
  O  O407  1  0.88488517  0.24474939  0.74404074  1
  O  O408  1  0.88062428  0.74586822  0.24459513  1
  O  O409  1  0.87865231  0.74569453  0.74333038  1
  O  O410  1  0.36639196  0.48654874  0.49449256  1
  O  O411  1  0.38216143  0.49288172  1.00046058  1
  O  O412  1  0.37160823  0.98281776  0.50315652  1
  O  O413  1  0.37964693  0.99264348  0.99796764  1
  O  O414  1  0.88398038  0.49826901  0.49948796  1
  O  O415  1  0.87763798  0.48737017  0.99714730  1
  O  O416  1  0.87034318  0.98934603  0.48869373  1
  O  O417  1  0.88068161  0.99523466  0.99287897  1
  O  O418  1  0.12052808  -0.00018186  0.00843966  1
  O  O419  1  0.13390568  0.01479447  0.49957985  1
  O  O420  1  0.12128948  0.50737208  0.00816717  1
  O  O421  1  0.11930646  0.50584691  0.50987909  1
  O  O422  1  0.62092689  0.00349519  0.00354964  1
  O  O423  1  0.62123916  0.00185373  0.49960099  1
  O  O424  1  0.61960722  0.50491737  0.00777222  1
  O  O425  1  0.62967328  0.51283428  0.50664806  1
  O  O426  1  0.37463165  0.36819131  0.11965890  1
  O  O427  1  0.36491064  0.37445090  0.61639192  1
  O  O428  1  0.38158304  0.86448753  0.11641171  1
  O  O429  1  0.36873732  0.86683178  0.61683492  1
  O  O430  1  0.86657320  0.38052035  0.11664920  1
  O  O431  1  0.86842736  0.36796267  0.62393823  1
  O  O432  1  0.87116857  0.87227028  0.11934592  1
  O  O433  1  0.87784299  0.87043714  0.61316652  1
  O  O434  1  0.13494987  0.12655049  0.38109343  1
  O  O435  1  0.12995062  0.13626285  0.87678619  1
  O  O436  1  0.13119172  0.62579530  0.38210338  1
  O  O437  1  0.12876260  0.63086336  0.88112184  1
  O  O438  1  0.62927467  0.13622528  0.37622568  1
  O  O439  1  0.63137538  0.12896571  0.87964198  1
  O  O440  1  0.62145049  0.63078965  0.38469031  1
  O  O441  1  0.62621011  0.62702707  0.88481802  1
