# generated using pymatgen
data_V93Zn93O256
_symmetry_space_group_name_H-M   'P 1'
_cell_length_a   17.04506375
_cell_length_b   17.04699303
_cell_length_c   17.05067117
_cell_angle_alpha   90.03996359
_cell_angle_beta   89.98787585
_cell_angle_gamma   90.02059970
_symmetry_Int_Tables_number   1
_chemical_formula_structural   V93Zn93O256
_chemical_formula_sum   'V93 Zn93 O256'
_cell_volume   4954.36214969
_cell_formula_units_Z   1
loop_
 _symmetry_equiv_pos_site_id
 _symmetry_equiv_pos_as_xyz
  1  'x, y, z'
loop_
 _atom_site_type_symbol
 _atom_site_label
 _atom_site_symmetry_multiplicity
 _atom_site_fract_x
 _atom_site_fract_y
 _atom_site_fract_z
 _atom_site_occupancy
  V  V0  1  -0.00194796  -0.00084682  0.49904839  1
  V  V1  1  0.75181109  0.50004604  0.74942140  1
  V  V2  1  0.37420915  0.24956244  0.62523226  1
  V  V3  1  0.37487334  0.12425330  0.74991898  1
  V  V4  1  0.37606777  0.50081051  0.87486630  1
  V  V5  1  -0.00035206  0.25001067  0.74912394  1
  V  V6  1  0.24660016  0.12657551  0.37586890  1
  V  V7  1  0.37463537  0.37570188  0.50065812  1
  V  V8  1  0.37590871  0.62598563  0.25149958  1
  V  V9  1  0.12535255  0.74632287  0.37700024  1
  V  V10  1  0.49792802  0.25154042  0.25040592  1
  V  V11  1  0.49933425  0.12287341  0.62335314  1
  V  V12  1  0.62054678  0.62531645  0.50513551  1
  V  V13  1  0.37777127  0.74722869  0.62523083  1
  V  V14  1  0.25097080  0.49940750  0.74949481  1
  V  V15  1  0.00381974  0.50442917  0.49866775  1
  V  V16  1  0.75126550  0.37458990  0.62424779  1
  V  V17  1  0.12469667  -0.00060235  0.62551348  1
  V  V18  1  0.00090708  0.87494259  0.87659085  1
  V  V19  1  0.00042855  0.37758446  0.88163535  1
  V  V20  1  -0.00235776  0.12539005  0.62373584  1
  V  V21  1  0.87683783  0.62395669  0.74831127  1
  V  V22  1  0.62475361  0.37536195  0.74850766  1
  V  V23  1  0.62487599  0.12615011  -0.00170123  1
  V  V24  1  0.50039500  0.37570569  0.37571844  1
  V  V25  1  0.75079614  0.74903172  -0.00053246  1
  V  V26  1  0.75088799  0.74917933  0.49977102  1
  V  V27  1  0.37446644  0.00062696  0.37684583  1
  V  V28  1  0.00029491  0.62193900  0.12217650  1
  V  V29  1  0.37528003  0.37478796  0.00018757  1
  V  V30  1  0.12425040  0.25070202  0.87486782  1
  V  V31  1  0.62389099  0.25006058  0.37487977  1
  V  V32  1  0.37424875  0.87498045  0.00196088  1
  V  V33  1  0.12327084  0.12440516  -0.00002241  1
  V  V34  1  0.87995619  0.49975611  0.87994426  1
  V  V35  1  0.37401565  0.25012475  0.12584979  1
  V  V36  1  0.74691819  0.11765300  0.37121679  1
  V  V37  1  0.00129370  0.74849919  0.74979840  1
  V  V38  1  0.12560133  0.50636790  0.62140321  1
  V  V39  1  0.49992589  0.50327873  0.50325158  1
  V  V40  1  0.87522468  0.25016150  0.62428604  1
  V  V41  1  0.12412218  0.62202720  -0.00016939  1
  V  V42  1  0.50624402  0.75441150  0.25178062  1
  V  V43  1  0.62656787  0.74912872  0.87451735  1
  V  V44  1  0.74987010  0.62410205  0.37569241  1
  V  V45  1  0.12439200  0.87558727  0.25061850  1
  V  V46  1  0.24943339  0.37538485  0.62565415  1
  V  V47  1  0.74930085  0.49735419  0.25001769  1
  V  V48  1  0.12234501  0.49845148  0.12330519  1
  V  V49  1  0.25083054  -0.00005968  0.74942170  1
  V  V50  1  0.37856371  0.87966970  0.50059416  1
  V  V51  1  0.00111381  0.74910975  0.24930966  1
  V  V52  1  0.62252311  0.50125360  0.62426853  1
  V  V53  1  -0.00055292  0.87428709  0.37560812  1
  V  V54  1  0.24841782  0.24963614  0.49983771  1
  V  V55  1  0.87551867  0.87472542  0.49984213  1
  V  V56  1  0.25127933  0.62517293  0.87562050  1
  V  V57  1  0.86986534  0.11759295  0.24539981  1
  V  V58  1  0.50046984  0.00159060  0.00242366  1
  V  V59  1  0.24787668  0.00033759  0.25099677  1
  V  V60  1  0.24696554  0.62531078  0.37731414  1
  V  V61  1  0.24907193  0.25015097  0.00001632  1
  V  V62  1  0.87557417  0.74903789  0.12420616  1
  V  V63  1  0.50119739  0.37513735  0.87388504  1
  V  V64  1  0.12673904  0.74870899  0.87473043  1
  V  V65  1  0.25080908  0.87513573  0.62544584  1
  V  V66  1  0.88052654  0.49361951  0.37421094  1
  V  V67  1  0.87372691  0.00075703  0.87315375  1
  V  V68  1  0.12358251  0.12536891  0.49880160  1
  V  V69  1  0.24831378  0.37568602  0.12625763  1
  V  V70  1  0.24628911  0.74579113  0.50007636  1
  V  V71  1  0.12256688  -0.00051918  0.12461787  1
  V  V72  1  0.61980514  0.00000424  0.62331842  1
  V  V73  1  0.74981913  0.87604050  0.62524392  1
  V  V74  1  0.74514099  0.87981027  0.13008320  1
  V  V75  1  0.50015614  0.62477988  0.12614449  1
  V  V76  1  0.37878094  0.62554946  0.74742252  1
  V  V77  1  0.37579797  0.75076893  0.12551500  1
  V  V78  1  0.50092631  0.50026356  0.00090103  1
  V  V79  1  0.61938284  0.12347313  0.49992943  1
  V  V80  1  0.37478382  0.50118168  0.37639161  1
  V  V81  1  0.87653943  0.74902240  0.62557242  1
  V  V82  1  0.50021068  0.25080166  0.75006910  1
  V  V83  1  0.37409606  0.00047759  0.87538827  1
  V  V84  1  0.62580486  0.49941873  0.12555204  1
  V  V85  1  0.88006546  0.37414206  0.49791424  1
  V  V86  1  0.49892480  0.87963371  0.37663204  1
  V  V87  1  0.50180853  0.74536145  0.74464739  1
  V  V88  1  0.25021854  0.49988251  0.25060362  1
  V  V89  1  -0.00206426  0.25646529  0.25567724  1
  V  V90  1  0.62589330  0.87490939  0.74927301  1
  V  V91  1  0.75255780  0.25212965  -0.00046850  1
  V  V92  1  0.37213733  0.12668331  0.25020447  1
  Zn  Zn93  1  0.62750191  0.00369301  0.12922568  1
  Zn  Zn94  1  0.64617464  0.90100987  0.27091944  1
  Zn  Zn95  1  0.74922731  0.00283906  0.75030094  1
  Zn  Zn96  1  0.11914873  0.37802526  0.25709603  1
  Zn  Zn97  1  0.87555432  0.87711402  0.00159952  1
  Zn  Zn98  1  0.25180146  0.74989209  0.00160763  1
  Zn  Zn99  1  0.11727775  0.25867670  0.38012060  1
  Zn  Zn100  1  0.50039903  0.87406990  0.87548541  1
  Zn  Zn101  1  0.62506323  0.37294362  0.25064523  1
  Zn  Zn102  1  0.87708441  0.37820177  0.00203277  1
  Zn  Zn103  1  0.75082414  0.12585691  0.87227499  1
  Zn  Zn104  1  0.75201831  0.37450458  0.12337268  1
  Zn  Zn105  1  0.12494067  0.37567295  0.75012657  1
  Zn  Zn106  1  0.62483641  0.62435997  -0.00185278  1
  Zn  Zn107  1  0.62565185  0.75295379  0.37643887  1
  Zn  Zn108  1  -0.00311626  0.12621044  0.12587975  1
  Zn  Zn109  1  0.87131900  0.12453167  0.74809623  1
  Zn  Zn110  1  0.24944520  0.87260179  0.12690757  1
  Zn  Zn111  1  -0.00096518  0.00053411  -0.00053986  1
  Zn  Zn112  1  0.86939947  -0.00387282  0.37165687  1
  Zn  Zn113  1  0.00579406  0.62796047  0.62111747  1
  Zn  Zn114  1  0.24911195  0.12596247  0.87328368  1
  Zn  Zn115  1  0.75318447  0.62347820  0.87508127  1
  Zn  Zn116  1  0.12747840  0.87454599  0.75096231  1
  Zn  Zn117  1  0.62737314  0.25016088  0.87300834  1
  Zn  Zn118  1  0.50020394  0.12604243  0.12675321  1
  Zn  Zn119  1  0.87528668  0.25506160  0.12503937  1
  Zn  Zn120  1  0.75025092  0.24964886  0.49855454  1
  Zn  Zn121  1  0.87630214  0.62293080  0.24950127  1
  Zn  Zn122  1  0.18407137  0.18794290  0.18784017  1
  Zn  Zn123  1  0.18569929  0.18659716  0.68727540  1
  Zn  Zn124  1  0.18932851  0.68793417  0.18880098  1
  Zn  Zn125  1  0.19078640  0.68715923  0.68885230  1
  Zn  Zn126  1  0.68664238  0.18752373  0.18489469  1
  Zn  Zn127  1  0.68976771  0.18773327  0.68808588  1
  Zn  Zn128  1  0.68784351  0.68705486  0.18728046  1
  Zn  Zn129  1  0.69112288  0.68666944  0.68731012  1
  Zn  Zn130  1  0.30868636  0.31410088  0.31401427  1
  Zn  Zn131  1  0.31225631  0.31261917  0.81303302  1
  Zn  Zn132  1  0.31306565  0.81257492  0.31221978  1
  Zn  Zn133  1  0.31397048  0.81316419  0.81399057  1
  Zn  Zn134  1  0.81162106  0.30752229  0.31255813  1
  Zn  Zn135  1  0.81365381  0.31253552  0.81333132  1
  Zn  Zn136  1  0.81684242  0.80861449  0.31143406  1
  Zn  Zn137  1  0.81392034  0.81428716  0.81157787  1
  Zn  Zn138  1  0.18547393  0.43579221  0.43685279  1
  Zn  Zn139  1  0.18708078  0.43728139  0.93764249  1
  Zn  Zn140  1  0.18720725  0.93595944  0.43818522  1
  Zn  Zn141  1  0.18929564  0.93763597  0.93689837  1
  Zn  Zn142  1  0.68869581  0.43662754  0.43873931  1
  Zn  Zn143  1  0.68972098  0.43691044  0.93533448  1
  Zn  Zn144  1  0.68566384  0.93933421  0.44414407  1
  Zn  Zn145  1  0.68847890  0.93601513  0.93976074  1
  Zn  Zn146  1  0.30958623  0.06278718  0.06409920  1
  Zn  Zn147  1  0.31117966  0.06253577  0.56274034  1
  Zn  Zn148  1  0.31190663  0.56297533  0.06305344  1
  Zn  Zn149  1  0.31330370  0.56411136  0.56440387  1
  Zn  Zn150  1  0.81192227  0.06255227  0.05689080  1
  Zn  Zn151  1  0.80873966  0.06243695  0.56001507  1
  Zn  Zn152  1  0.81203794  0.56406236  0.06152807  1
  Zn  Zn153  1  0.81334021  0.56157325  0.56266382  1
  Zn  Zn154  1  0.43693291  0.43666207  0.18865880  1
  Zn  Zn155  1  0.43842568  0.43854350  0.68614055  1
  Zn  Zn156  1  0.43880458  0.93895315  0.18955087  1
  Zn  Zn157  1  0.43950875  0.93431499  0.68966957  1
  Zn  Zn158  1  0.93515415  0.43707246  0.18447080  1
  Zn  Zn159  1  0.94065727  0.43661782  0.68864170  1
  Zn  Zn160  1  0.93578047  0.93591021  0.18606696  1
  Zn  Zn161  1  0.93815612  0.93635781  0.68947950  1
  Zn  Zn162  1  0.05770644  0.06544948  0.31303249  1
  Zn  Zn163  1  0.06114944  0.06326238  0.81068094  1
  Zn  Zn164  1  0.06352208  0.56298361  0.31090027  1
  Zn  Zn165  1  0.06287496  0.56128297  0.80949331  1
  Zn  Zn166  1  0.55853089  0.06432927  0.31175321  1
  Zn  Zn167  1  0.56160836  0.06167626  0.81302496  1
  Zn  Zn168  1  0.56293006  0.56366393  0.31451189  1
  Zn  Zn169  1  0.56456728  0.56319652  0.81216708  1
  Zn  Zn170  1  0.43649632  0.18780285  0.43707190  1
  Zn  Zn171  1  0.43792062  0.18750132  0.93621996  1
  Zn  Zn172  1  0.43603835  0.69069406  0.43726046  1
  Zn  Zn173  1  0.44015982  0.68782732  0.93663813  1
  Zn  Zn174  1  0.93379681  0.18492955  0.43449351  1
  Zn  Zn175  1  0.93749330  0.18750053  0.93602545  1
  Zn  Zn176  1  0.93719461  0.68501060  0.43706194  1
  Zn  Zn177  1  0.93810436  0.68672119  0.93702763  1
  Zn  Zn178  1  0.05929891  0.30891168  0.06718837  1
  Zn  Zn179  1  0.06262608  0.31650753  0.56286141  1
  Zn  Zn180  1  0.06383578  0.81018038  0.06117934  1
  Zn  Zn181  1  0.06379412  0.81337091  0.56318446  1
  Zn  Zn182  1  0.56396111  0.31214085  0.06292043  1
  Zn  Zn183  1  0.56211328  0.31204632  0.56190331  1
  Zn  Zn184  1  0.56292215  0.81307505  0.06243828  1
  Zn  Zn185  1  0.56303613  0.81169028  0.56172022  1
  O  O186  1  0.12471754  0.11521939  0.11676665  1
  O  O187  1  0.11814516  0.11900058  0.61799039  1
  O  O188  1  0.12040383  0.61909146  0.11920531  1
  O  O189  1  0.12775076  0.61088178  0.62752164  1
  O  O190  1  0.62177410  0.12393421  0.11067453  1
  O  O191  1  0.62010832  0.11933606  0.61862298  1
  O  O192  1  0.61878658  0.61447331  0.12480099  1
  O  O193  1  0.63355889  0.61845495  0.61183620  1
  O  O194  1  0.37905843  0.38177371  0.38178235  1
  O  O195  1  0.38069276  0.38141879  0.88066144  1
  O  O196  1  0.37971485  0.87947219  0.38246395  1
  O  O197  1  0.37713394  0.88082838  0.88592604  1
  O  O198  1  0.86649587  0.38544328  0.38413868  1
  O  O199  1  0.88380875  0.38325537  0.87549085  1
  O  O200  1  0.88066700  0.87536075  0.38069262  1
  O  O201  1  0.88509164  0.88104784  0.87601907  1
  O  O202  1  0.25360913  0.00605083  0.37037144  1
  O  O203  1  0.25632177  0.00219670  0.86767780  1
  O  O204  1  0.25618988  0.50594340  0.37126687  1
  O  O205  1  0.25679062  0.50467932  0.87019766  1
  O  O206  1  0.74698727  0.01243258  0.37750937  1
  O  O207  1  0.76182751  -0.00270053  0.87470694  1
  O  O208  1  0.75642582  0.50634200  0.36875027  1
  O  O209  1  0.75964994  0.50076032  0.86658374  1
  O  O210  1  0.24245672  0.49649923  0.13050616  1
  O  O211  1  0.24481152  0.49509669  0.62840109  1
  O  O212  1  0.23824047  0.99806034  0.13208099  1
  O  O213  1  0.24516337  0.99445994  0.62967645  1
  O  O214  1  0.74247759  0.50392170  0.13401487  1
  O  O215  1  0.74451780  0.49371432  0.62980222  1
  O  O216  1  0.75166634  0.98130710  0.11633155  1
  O  O217  1  0.73806606  0.99390752  0.62539043  1
  O  O218  1  -0.00384168  0.35986855  0.24619404  1
  O  O219  1  0.00257504  0.36694592  0.75948016  1
  O  O220  1  0.00436945  0.86873590  0.25550803  1
  O  O221  1  0.00301019  0.86740992  0.76061820  1
  O  O222  1  0.50001199  0.36987970  0.25860048  1
  O  O223  1  0.50448763  0.37055090  0.75410850  1
  O  O224  1  0.49611635  0.86616546  0.26089654  1
  O  O225  1  0.50708245  0.86354406  0.75411612  1
  O  O226  1  0.48878217  0.13424772  0.24941801  1
  O  O227  1  0.49440521  0.13065649  0.74393720  1
  O  O228  1  0.49515382  0.63339610  0.24756871  1
  O  O229  1  0.49523028  0.63732959  0.75577165  1
  O  O230  1  0.98484300  0.13219334  0.24961756  1
  O  O231  1  0.99769273  0.13211281  0.74089980  1
  O  O232  1  1.00064967  0.63103433  0.23802859  1
  O  O233  1  0.99463350  0.63158013  0.74666534  1
  O  O234  1  0.36952098  0.25543641  0.00491487  1
  O  O235  1  0.36918222  0.25515865  0.50634711  1
  O  O236  1  0.37798190  0.75936995  0.00564108  1
  O  O237  1  0.36712382  0.75922129  0.50446079  1
  O  O238  1  0.86345014  0.24763582  0.00109178  1
  O  O239  1  0.87543646  0.25961584  0.50365985  1
  O  O240  1  0.86651629  0.75011165  0.00486203  1
  O  O241  1  0.87037129  0.75474938  0.50490376  1
  O  O242  1  0.13018548  0.24351932  0.50172236  1
  O  O243  1  0.12958461  0.24217166  0.99686906  1
  O  O244  1  0.13892527  0.75764460  0.49425192  1
  O  O245  1  0.12926324  0.73871362  0.99471695  1
  O  O246  1  0.62608290  0.24064600  0.49463408  1
  O  O247  1  0.63116558  0.24260601  0.99767449  1
  O  O248  1  0.63190811  0.74125107  0.49946186  1
  O  O249  1  0.63159167  0.74956251  0.99113096  1
  O  O250  1  0.49166770  0.25115943  0.13177871  1
  O  O251  1  0.49307102  0.24462790  0.63035845  1
  O  O252  1  0.49650874  0.74594308  0.13331887  1
  O  O253  1  0.49516209  0.75538548  0.63706245  1
  O  O254  1  0.99485921  0.24400153  0.13688516  1
  O  O255  1  0.99506614  0.24573308  0.62884914  1
  O  O256  1  0.99662890  0.74226863  0.12942085  1
  O  O257  1  0.99542666  0.74904452  0.63025521  1
  O  O258  1  -0.00226418  0.24478037  0.36019313  1
  O  O259  1  0.00471472  0.25687295  0.86865435  1
  O  O260  1  0.00460863  0.75329830  0.37055322  1
  O  O261  1  0.00593708  0.75630838  0.87032396  1
  O  O262  1  0.50325561  0.25615600  0.37019113  1
  O  O263  1  0.50030888  0.25793085  0.86768891  1
  O  O264  1  0.49980489  0.76023775  0.36729486  1
  O  O265  1  0.51095391  0.75142182  0.86707941  1
  O  O266  1  0.24367652  0.12990799  0.49609464  1
  O  O267  1  0.23912240  0.13078174  0.99871571  1
  O  O268  1  0.25869498  0.63896622  0.49402083  1
  O  O269  1  0.24205506  0.62619000  0.99430186  1
  O  O270  1  0.73825829  0.12752638  0.49114901  1
  O  O271  1  0.74061212  0.13237887  0.99699930  1
  O  O272  1  0.74363445  0.62789799  0.49229011  1
  O  O273  1  0.74696195  0.63781976  0.99827571  1
  O  O274  1  0.25558442  0.37051525  0.00611891  1
  O  O275  1  0.25679526  0.36987253  0.50644782  1
  O  O276  1  0.26308796  0.87397337  0.00274632  1
  O  O277  1  0.25958650  0.86609048  0.50414963  1
  O  O278  1  0.75030622  0.36383404  -0.00018445  1
  O  O279  1  0.76142630  0.37525882  0.50609517  1
  O  O280  1  0.75181996  0.86230933  0.00949775  1
  O  O281  1  0.75525403  0.86878452  0.50517343  1
  O  O282  1  0.13158778  0.50073423  0.23877088  1
  O  O283  1  0.13335346  0.49803138  0.74109996  1
  O  O284  1  0.12725056  0.99641049  0.24321219  1
  O  O285  1  0.13200231  0.99929637  0.74286932  1
  O  O286  1  0.63245407  0.50025997  0.24359891  1
  O  O287  1  0.63033372  0.49554890  0.74405365  1
  O  O288  1  0.61624790  1.00217404  0.24067921  1
  O  O289  1  0.62554616  0.99331142  0.74191088  1
  O  O290  1  0.36788393  0.00609661  0.25574205  1
  O  O291  1  0.37159058  0.00438739  0.75477711  1
  O  O292  1  0.37054408  0.50630129  0.25617030  1
  O  O293  1  0.37170587  0.50518662  0.75521527  1
  O  O294  1  0.87896302  0.01369824  0.25195066  1
  O  O295  1  0.87316258  -0.00009431  0.75976065  1
  O  O296  1  0.86706203  0.50140063  0.25808010  1
  O  O297  1  0.87090106  0.50418431  0.75604197  1
  O  O298  1  0.12823340  0.37076705  0.36904437  1
  O  O299  1  0.11780839  0.37023726  0.87385913  1
  O  O300  1  0.11891775  0.86789168  0.37007867  1
  O  O301  1  0.11808221  0.86873577  0.87455407  1
  O  O302  1  0.61846480  0.36892791  0.37576330  1
  O  O303  1  0.61778580  0.37580689  0.86598467  1
  O  O304  1  0.61562547  0.87349884  0.37908641  1
  O  O305  1  0.62583273  0.86358965  0.86960559  1
  O  O306  1  0.37333869  0.13269181  0.13208356  1
  O  O307  1  0.37983336  0.12942848  0.62926878  1
  O  O308  1  0.38133602  0.62939130  0.13148879  1
  O  O309  1  0.36970138  0.63448275  0.63484500  1
  O  O310  1  0.87118552  0.12381056  0.13775962  1
  O  O311  1  0.88042201  0.13165456  0.62184678  1
  O  O312  1  0.88607778  0.62802429  0.12434655  1
  O  O313  1  0.87583611  0.63196737  0.63068273  1
  O  O314  1  0.25346037  0.25610364  0.12014685  1
  O  O315  1  0.25517885  0.25456367  0.62000410  1
  O  O316  1  0.25947589  0.75206157  0.12377104  1
  O  O317  1  0.25555672  0.75513862  0.61798220  1
  O  O318  1  0.75024428  0.25259742  0.11355484  1
  O  O319  1  0.75711337  0.25717736  0.62211464  1
  O  O320  1  0.75424918  0.75431572  0.11786999  1
  O  O321  1  0.75632694  0.75616439  0.61882132  1
  O  O322  1  0.24990468  0.24251525  0.38328012  1
  O  O323  1  0.24329220  0.24975442  0.88220854  1
  O  O324  1  0.24650351  0.74603691  0.38200724  1
  O  O325  1  0.24519810  0.74246078  0.87613243  1
  O  O326  1  0.74171926  0.23852300  0.37639245  1
  O  O327  1  0.74759304  0.24830350  0.88456075  1
  O  O328  1  0.75054461  0.73958061  0.37974882  1
  O  O329  1  0.74382922  0.75070682  0.88236880  1
  O  O330  1  0.01287343  0.12446457  0.00260586  1
  O  O331  1  0.00347272  0.11910868  0.50382363  1
  O  O332  1  0.01191457  0.63086309  0.01108879  1
  O  O333  1  -0.00651181  0.60985148  0.50343344  1
  O  O334  1  0.50605731  0.11798986  0.00088612  1
  O  O335  1  0.51079579  0.13052208  0.50614373  1
  O  O336  1  0.50134336  0.61807823  0.00751230  1
  O  O337  1  0.51276466  0.62109233  0.49111385  1
  O  O338  1  0.49337194  0.38087839  0.49462941  1
  O  O339  1  0.49474291  0.38056056  0.99479747  1
  O  O340  1  0.48808352  0.86571116  0.49013112  1
  O  O341  1  0.49134524  0.88326727  0.99977640  1
  O  O342  1  0.98698684  0.38607872  0.50416662  1
  O  O343  1  0.99927362  0.36734232  0.98508911  1
  O  O344  1  0.99465907  0.87872320  0.49478934  1
  O  O345  1  0.99949232  0.87408771  0.98748491  1
  O  O346  1  0.49397313  0.49580324  0.38149202  1
  O  O347  1  0.49551668  0.49561682  0.88022657  1
  O  O348  1  0.49072749  0.98720682  0.37096726  1
  O  O349  1  0.49375098  0.99772823  0.88641735  1
  O  O350  1  0.98775042  0.50688871  0.38030397  1
  O  O351  1  0.99196784  0.48963033  0.86702290  1
  O  O352  1  0.99843955  0.99165930  0.38196637  1
  O  O353  1  0.99473081  0.98986867  0.87410621  1
  O  O354  1  0.01153613  0.00102224  0.12292637  1
  O  O355  1  0.00449427  0.00396686  0.61899629  1
  O  O356  1  0.01077913  0.51019555  0.13163770  1
  O  O357  1  0.00898325  0.50114543  0.61832650  1
  O  O358  1  0.49772168  0.00267554  0.11118883  1
  O  O359  1  0.51160047  0.00566551  0.63122798  1
  O  O360  1  0.50684533  0.50437277  0.12191332  1
  O  O361  1  0.50886324  0.49483467  0.61569940  1
  O  O362  1  0.24992896  0.38273505  0.24174019  1
  O  O363  1  0.25089801  0.38203824  0.74338626  1
  O  O364  1  0.24268569  0.88232332  0.25094595  1
  O  O365  1  0.25131931  0.88131111  0.74300912  1
  O  O366  1  0.74806867  0.38789316  0.25042400  1
  O  O367  1  0.74472605  0.38018345  0.74380224  1
  O  O368  1  0.75080543  0.86613973  0.23580329  1
  O  O369  1  0.74291195  0.87470399  0.74148755  1
  O  O370  1  0.25281259  0.12054085  0.25610019  1
  O  O371  1  0.25747121  0.11846477  0.74945668  1
  O  O372  1  0.25698693  0.61979834  0.25628248  1
  O  O373  1  0.25801419  0.61893212  0.75712663  1
  O  O374  1  0.76137578  0.13131164  0.25689878  1
  O  O375  1  0.75283830  0.12123976  0.75457095  1
  O  O376  1  0.75008569  0.61564528  0.25890323  1
  O  O377  1  0.75872311  0.61831876  0.75123496  1
  O  O378  1  0.36789280  0.11983311  0.37114651  1
  O  O379  1  0.37311186  0.11889181  0.86802672  1
  O  O380  1  0.36918516  0.62037973  0.37056913  1
  O  O381  1  0.37140162  0.61961681  0.86961359  1
  O  O382  1  0.86353532  0.12178311  0.36564504  1
  O  O383  1  0.87698248  0.11188171  0.87234901  1
  O  O384  1  0.86363894  0.61444505  0.37526531  1
  O  O385  1  0.87706777  0.61674118  0.86723235  1
  O  O386  1  0.12872201  0.38519052  0.12530221  1
  O  O387  1  0.13233469  0.38543161  0.62727854  1
  O  O388  1  0.12526584  0.88294493  0.13036965  1
  O  O389  1  0.13294318  0.88177117  0.62683522  1
  O  O390  1  0.62646543  0.38907605  0.12803264  1
  O  O391  1  0.63072496  0.38062039  0.62885341  1
  O  O392  1  0.64002314  0.87354447  0.12395608  1
  O  O393  1  0.62850435  0.88258783  0.62725831  1
  O  O394  1  0.10761446  0.24810314  0.24954830  1
  O  O395  1  0.11875189  0.25096058  0.75644244  1
  O  O396  1  0.12028541  0.75609232  0.25538038  1
  O  O397  1  0.12031043  0.74999053  0.75701094  1
  O  O398  1  0.61709970  0.25062855  0.25621563  1
  O  O399  1  0.61757317  0.25732848  0.74923738  1
  O  O400  1  0.61229014  0.74845487  0.25314288  1
  O  O401  1  0.62047891  0.75320871  0.75452513  1
  O  O402  1  0.37711788  0.24629819  0.24565419  1
  O  O403  1  0.37965646  0.24477827  0.74415173  1
  O  O404  1  0.38436383  0.74550942  0.24596741  1
  O  O405  1  0.38386765  0.74677316  0.74645519  1
  O  O406  1  0.88256200  0.24056755  0.24891297  1
  O  O407  1  0.88222336  0.24966677  0.74189334  1
  O  O408  1  0.88335972  0.74405707  0.24259518  1
  O  O409  1  0.88107312  0.74487370  0.74485964  1
  O  O410  1  0.37949374  0.49606566  0.49600929  1
  O  O411  1  0.38062478  0.49460072  0.99550048  1
  O  O412  1  0.36762532  0.98663444  0.49485054  1
  O  O413  1  0.38020977  0.99474403  0.99678568  1
  O  O414  1  0.88078764  0.49276483  0.49322097  1
  O  O415  1  0.86927283  0.50138024  0.98344305  1
  O  O416  1  0.88004618  0.99209756  0.49826617  1
  O  O417  1  0.88011150  0.99732863  0.98910136  1
  O  O418  1  0.12590145  0.00725984  0.00734770  1
  O  O419  1  0.11910645  0.00445709  0.50566280  1
  O  O420  1  0.13154779  0.51083158  0.01125176  1
  O  O421  1  0.11448724  0.49301898  0.50868723  1
  O  O422  1  0.61633333  0.00611356  0.00128892  1
  O  O423  1  0.62632841  0.01129010  0.51188245  1
  O  O424  1  0.62072992  0.50144425  0.00850128  1
  O  O425  1  0.62074114  0.50729062  0.50375254  1
  O  O426  1  0.36891248  0.37082484  0.11919876  1
  O  O427  1  0.36982009  0.36952409  0.61965429  1
  O  O428  1  0.37514155  0.87054719  0.11697431  1
  O  O429  1  0.37159884  0.86969974  0.61777067  1
  O  O430  1  0.86965106  0.37506723  0.11739236  1
  O  O431  1  0.87103525  0.37089780  0.61701754  1
  O  O432  1  0.86516684  0.86748534  0.12327122  1
  O  O433  1  0.87041588  0.86881423  0.61955556  1
  O  O434  1  0.12975512  0.12751396  0.38221354  1
  O  O435  1  0.12530122  0.13049300  0.88426931  1
  O  O436  1  0.13405877  0.63345050  0.36909113  1
  O  O437  1  0.12935278  0.62673453  0.88290419  1
  O  O438  1  0.62707820  0.12901312  0.38234028  1
  O  O439  1  0.62455794  0.12631400  0.88699774  1
  O  O440  1  0.63636157  0.62470042  0.38463562  1
  O  O441  1  0.63000145  0.63722375  0.87531804  1
