# generated using pymatgen
data_V93Zn93O256
_symmetry_space_group_name_H-M   'P 1'
_cell_length_a   17.04520014
_cell_length_b   17.04620676
_cell_length_c   17.04575053
_cell_angle_alpha   90.00142935
_cell_angle_beta   89.97321159
_cell_angle_gamma   89.99167213
_symmetry_Int_Tables_number   1
_chemical_formula_structural   V93Zn93O256
_chemical_formula_sum   'V93 Zn93 O256'
_cell_volume   4952.74459455
_cell_formula_units_Z   1
loop_
 _symmetry_equiv_pos_site_id
 _symmetry_equiv_pos_as_xyz
  1  'x, y, z'
loop_
 _atom_site_type_symbol
 _atom_site_label
 _atom_site_symmetry_multiplicity
 _atom_site_fract_x
 _atom_site_fract_y
 _atom_site_fract_z
 _atom_site_occupancy
  V  V0  1  0.49569995  0.12321687  0.12973359  1
  V  V1  1  0.12591570  0.24929768  0.87635443  1
  V  V2  1  0.62564524  0.62510942  0.49883885  1
  V  V3  1  0.74720417  -0.00533524  0.25221434  1
  V  V4  1  0.25062674  0.50024148  0.74903255  1
  V  V5  1  0.75079402  0.62541405  0.87512463  1
  V  V6  1  0.87146632  0.00520217  0.87774994  1
  V  V7  1  0.24620712  0.62597018  0.87432770  1
  V  V8  1  0.37518338  0.12422961  0.75073536  1
  V  V9  1  0.25087793  0.87378215  0.62439685  1
  V  V10  1  0.25541934  0.12550806  0.37329060  1
  V  V11  1  0.75017974  0.74993350  0.00026015  1
  V  V12  1  0.50586257  0.87562448  0.36868656  1
  V  V13  1  0.63241841  0.12486311  0.49700559  1
  V  V14  1  0.87670875  0.87677888  0.50212112  1
  V  V15  1  0.00173024  0.37603114  0.37400171  1
  V  V16  1  0.12466398  0.87646584  0.25032857  1
  V  V17  1  0.49883620  0.24745772  0.24990861  1
  V  V18  1  0.75143722  0.62716278  0.37441093  1
  V  V19  1  0.25054630  0.62664911  0.37440290  1
  V  V20  1  0.62485689  -0.00645573  0.13007309  1
  V  V21  1  0.62624275  0.37463456  0.24925736  1
  V  V22  1  0.50153541  -0.00000519  0.49895628  1
  V  V23  1  0.62428810  0.37348625  0.75104175  1
  V  V24  1  0.86837444  0.12540229  0.25508980  1
  V  V25  1  0.37539773  0.37423462  0.49897067  1
  V  V26  1  0.12532824  0.87083776  0.75559028  1
  V  V27  1  0.37610699  0.00227556  0.37191537  1
  V  V28  1  0.87720165  0.88089869  0.00258501  1
  V  V29  1  0.00204346  0.50199105  0.50034294  1
  V  V30  1  0.12521558  0.37478920  0.75016796  1
  V  V31  1  -0.00256825  0.12311269  0.12459617  1
  V  V32  1  0.74995605  0.49935483  0.24867196  1
  V  V33  1  0.25370935  0.00310553  0.24973248  1
  V  V34  1  0.50162696  0.50046131  0.49736978  1
  V  V35  1  0.62444184  0.87465012  0.75106671  1
  V  V36  1  0.12569848  0.50105843  0.62429124  1
  V  V37  1  0.62755394  0.49877297  0.62393703  1
  V  V38  1  0.37345032  0.87453723  -0.00041593  1
  V  V39  1  -0.00019549  0.87628159  0.37699188  1
  V  V40  1  0.00055405  0.87681276  0.87810554  1
  V  V41  1  0.87335444  0.37393073  0.00170939  1
  V  V42  1  0.49874902  -0.00176808  0.00141740  1
  V  V43  1  0.75037955  0.75103471  0.50036291  1
  V  V44  1  0.12748955  0.75075977  0.37552312  1
  V  V45  1  0.87577981  0.62625582  0.24991186  1
  V  V46  1  0.37554521  0.49951674  0.37295380  1
  V  V47  1  0.37500843  0.87483655  0.49926742  1
  V  V48  1  -0.00044599  0.12390459  0.62574105  1
  V  V49  1  0.37454747  0.74935596  0.12335369  1
  V  V50  1  0.00148174  0.62610015  0.62573149  1
  V  V51  1  0.49878859  0.87480763  0.87538672  1
  V  V52  1  0.00166197  0.75168853  0.75339782  1
  V  V53  1  0.49983025  0.49938281  -0.00142571  1
  V  V54  1  0.37624884  0.24887765  0.62460312  1
  V  V55  1  -0.00298662  0.24941640  0.75015109  1
  V  V56  1  0.50337058  0.75141964  0.24890278  1
  V  V57  1  0.62478227  0.62356627  -0.00132663  1
  V  V58  1  0.50055101  0.62364251  0.12317192  1
  V  V59  1  0.62586446  0.75295468  0.37084667  1
  V  V60  1  0.49928517  0.74899601  0.74850016  1
  V  V61  1  0.87523765  0.62539997  0.75125550  1
  V  V62  1  0.87458227  0.75208846  0.12533223  1
  V  V63  1  0.37609271  0.62463778  0.24861503  1
  V  V64  1  0.24898433  0.00067840  0.75132858  1
  V  V65  1  0.12607957  0.49917238  0.12457623  1
  V  V66  1  0.37382894  0.24580551  0.12857045  1
  V  V67  1  0.75052352  0.87529959  0.62758337  1
  V  V68  1  0.62494449  0.00052725  0.62470522  1
  V  V69  1  0.37504930  0.49751702  0.87411351  1
  V  V70  1  0.12455814  0.62721690  -0.00400931  1
  V  V71  1  0.50042578  0.37353031  0.37353745  1
  V  V72  1  0.74878531  0.00807626  0.75648407  1
  V  V73  1  0.12583483  0.24876900  0.37585886  1
  V  V74  1  0.24974166  0.49923136  0.24739472  1
  V  V75  1  0.37568589  0.62415318  0.74857624  1
  V  V76  1  0.87283266  0.37433125  0.50200150  1
  V  V77  1  0.12114775  0.00008126  0.12283171  1
  V  V78  1  0.25086280  0.37516312  0.62351417  1
  V  V79  1  0.87730511  0.50182910  0.37468291  1
  V  V80  1  0.12062763  0.12255472  -0.00027473  1
  V  V81  1  0.87145702  0.00397928  0.37785576  1
  V  V82  1  0.63230492  0.24514081  0.37514226  1
  V  V83  1  0.87544448  0.50160795  0.87566419  1
  V  V84  1  0.24469380  0.75001519  -0.00527979  1
  V  V85  1  0.37462252  0.37192246  0.00008055  1
  V  V86  1  0.62831201  0.12371033  -0.00526424  1
  V  V87  1  -0.00012517  0.50042597  -0.00038582  1
  V  V88  1  0.74892733  0.24534909  -0.00477522  1
  V  V89  1  -0.00127890  0.24973381  0.25100172  1
  V  V90  1  0.00061955  0.75097455  0.25047263  1
  V  V91  1  0.87580518  0.75070447  0.62638292  1
  V  V92  1  0.00045007  0.62592694  0.12400253  1
  Zn  Zn93  1  0.50189878  0.24701216  0.75258959  1
  Zn  Zn94  1  0.12286079  0.00040831  0.62346825  1
  Zn  Zn95  1  -0.00013571  0.37581562  0.87531854  1
  Zn  Zn96  1  0.12791829  0.62781649  0.50059609  1
  Zn  Zn97  1  0.12561439  0.12263547  0.50153918  1
  Zn  Zn98  1  0.75145612  0.37159724  0.62661931  1
  Zn  Zn99  1  0.74763278  0.37338805  0.12499656  1
  Zn  Zn100  1  0.62555541  0.24557201  0.87156986  1
  Zn  Zn101  1  0.37555307  0.74721986  0.62182283  1
  Zn  Zn102  1  0.24776046  0.37190772  0.12542986  1
  Zn  Zn103  1  0.00174654  0.00225036  0.50145040  1
  Zn  Zn104  1  0.24898838  0.24856026  0.00246360  1
  Zn  Zn105  1  0.50080607  0.37034520  0.87377533  1
  Zn  Zn106  1  0.75285657  0.24720122  0.50002894  1
  Zn  Zn107  1  0.50014337  0.12422834  0.62378085  1
  Zn  Zn108  1  0.87225834  0.24940158  0.62634946  1
  Zn  Zn109  1  0.49982753  0.62570661  0.62283477  1
  Zn  Zn110  1  0.25008923  0.24841696  0.49904400  1
  Zn  Zn111  1  0.12565468  0.37466547  0.24733135  1
  Zn  Zn112  1  0.87058300  0.12800346  0.75539705  1
  Zn  Zn113  1  0.75133994  0.49914800  0.74961038  1
  Zn  Zn114  1  0.74501227  0.87214346  0.12809360  1
  Zn  Zn115  1  0.24829431  0.87438282  0.12419350  1
  Zn  Zn116  1  0.25133278  0.74889643  0.49961397  1
  Zn  Zn117  1  0.25030421  0.12356154  0.87811352  1
  Zn  Zn118  1  0.37401725  0.00163238  0.87761809  1
  Zn  Zn119  1  0.87176475  0.24895854  0.12622313  1
  Zn  Zn120  1  0.62545424  0.74935485  0.87521454  1
  Zn  Zn121  1  0.62591935  0.49733748  0.12371361  1
  Zn  Zn122  1  0.18729578  0.18670857  0.18952103  1
  Zn  Zn123  1  0.18707367  0.18785116  0.68728879  1
  Zn  Zn124  1  0.18815625  0.68707850  0.18528203  1
  Zn  Zn125  1  0.18716726  0.68891392  0.68884776  1
  Zn  Zn126  1  0.68654307  0.18633910  0.18241106  1
  Zn  Zn127  1  0.68772335  0.18971104  0.68199733  1
  Zn  Zn128  1  0.68618716  0.68648274  0.18596099  1
  Zn  Zn129  1  0.68705671  0.68636020  0.68802725  1
  Zn  Zn130  1  0.31185872  0.31306072  0.30899866  1
  Zn  Zn131  1  0.31121093  0.31114066  0.81200206  1
  Zn  Zn132  1  0.31409253  0.81472440  0.31106271  1
  Zn  Zn133  1  0.31466712  0.81169756  0.81343327  1
  Zn  Zn134  1  0.81314256  0.31404636  0.31389014  1
  Zn  Zn135  1  0.80854478  0.31469721  0.81566789  1
  Zn  Zn136  1  0.81365493  0.81538878  0.31372019  1
  Zn  Zn137  1  0.81302871  0.81448225  0.81517150  1
  Zn  Zn138  1  0.18845898  0.43769855  0.43659537  1
  Zn  Zn139  1  0.18852403  0.43726613  0.93807245  1
  Zn  Zn140  1  0.18568813  0.93992901  0.43942240  1
  Zn  Zn141  1  0.18700761  0.93796640  0.93752748  1
  Zn  Zn142  1  0.68883757  0.43687099  0.43406923  1
  Zn  Zn143  1  0.68902319  0.43687748  0.93595273  1
  Zn  Zn144  1  0.68925386  0.93807671  0.43815877  1
  Zn  Zn145  1  0.68712724  0.93591142  0.93959827  1
  Zn  Zn146  1  0.30880772  0.06303824  0.06208072  1
  Zn  Zn147  1  0.31158150  0.06152176  0.56004146  1
  Zn  Zn148  1  0.31229285  0.56206420  0.06128279  1
  Zn  Zn149  1  0.31399671  0.56322307  0.56103281  1
  Zn  Zn150  1  0.80926125  0.06167903  0.06581293  1
  Zn  Zn151  1  0.81400719  0.06345158  0.56803451  1
  Zn  Zn152  1  0.81135591  0.56227617  0.06351667  1
  Zn  Zn153  1  0.81342170  0.56259176  0.56252737  1
  Zn  Zn154  1  0.43885777  0.43494588  0.18528654  1
  Zn  Zn155  1  0.44108037  0.43711004  0.68569568  1
  Zn  Zn156  1  0.43515234  0.93543079  0.18617585  1
  Zn  Zn157  1  0.43693051  0.93757654  0.68635798  1
  Zn  Zn158  1  0.93819496  0.43739959  0.18631845  1
  Zn  Zn159  1  0.93914666  0.43824150  0.68773407  1
  Zn  Zn160  1  0.93638839  0.93892745  0.19000119  1
  Zn  Zn161  1  0.93631467  0.93988655  0.69177427  1
  Zn  Zn162  1  0.06161026  0.06341310  0.31235912  1
  Zn  Zn163  1  0.05889887  0.05959095  0.81296702  1
  Zn  Zn164  1  0.06531808  0.56407521  0.31175770  1
  Zn  Zn165  1  0.06228964  0.56273886  0.81323264  1
  Zn  Zn166  1  0.56390380  0.06360126  0.31254434  1
  Zn  Zn167  1  0.55937537  0.06001156  0.81290760  1
  Zn  Zn168  1  0.56416725  0.56376990  0.31096507  1
  Zn  Zn169  1  0.56254773  0.56084597  0.81275599  1
  Zn  Zn170  1  0.44060943  0.18627963  0.43808790  1
  Zn  Zn171  1  0.44160425  0.18719358  0.93712670  1
  Zn  Zn172  1  0.43720259  0.68887163  0.43678160  1
  Zn  Zn173  1  0.43481510  0.68660480  0.93507545  1
  Zn  Zn174  1  0.93914582  0.18811267  0.43888143  1
  Zn  Zn175  1  0.93840308  0.18849835  0.93907146  1
  Zn  Zn176  1  0.93988651  0.68925941  0.43922710  1
  Zn  Zn177  1  0.93741474  0.69162625  0.93758937  1
  Zn  Zn178  1  0.05973358  0.31197371  0.06354034  1
  Zn  Zn179  1  0.06125543  0.31225271  0.56201401  1
  Zn  Zn180  1  0.06152489  0.81339223  0.06189188  1
  Zn  Zn181  1  0.06530960  0.81368821  0.56355704  1
  Zn  Zn182  1  0.56254404  0.31106023  0.06265870  1
  Zn  Zn183  1  0.56193616  0.31187185  0.56251552  1
  Zn  Zn184  1  0.56183713  0.81035991  0.06096066  1
  Zn  Zn185  1  0.56274183  0.81405381  0.56091911  1
  O  O186  1  0.11703615  0.11961588  0.12064031  1
  O  O187  1  0.11427685  0.12515654  0.62494585  1
  O  O188  1  0.11859174  0.61977537  0.11777154  1
  O  O189  1  0.11936425  0.61931289  0.62528187  1
  O  O190  1  0.61502541  0.11492195  0.11709231  1
  O  O191  1  0.62110535  0.11831429  0.61573570  1
  O  O192  1  0.61761902  0.62218936  0.11683267  1
  O  O193  1  0.62442540  0.61599217  0.61761875  1
  O  O194  1  0.38071087  0.37934414  0.37863506  1
  O  O195  1  0.37409158  0.37841612  0.88355240  1
  O  O196  1  0.38413335  0.88144953  0.37981836  1
  O  O197  1  0.38117968  0.87728283  0.88203058  1
  O  O198  1  0.88193268  0.38255548  0.38180714  1
  O  O199  1  0.87582480  0.38166944  0.88671181  1
  O  O200  1  0.88051690  0.88319901  0.38209554  1
  O  O201  1  0.87996480  0.88299959  0.88405380  1
  O  O202  1  0.25431557  0.00641509  0.36800741  1
  O  O203  1  0.25186884  0.00154711  0.86335825  1
  O  O204  1  0.25650077  0.50547098  0.36798628  1
  O  O205  1  0.25541814  0.50445518  0.86773263  1
  O  O206  1  0.76243491  -0.00505571  0.36796253  1
  O  O207  1  0.75756454  -0.00730047  0.86625433  1
  O  O208  1  0.75731869  0.50798054  0.36912680  1
  O  O209  1  0.75855070  0.50841535  0.87418511  1
  O  O210  1  0.24392760  0.50013156  0.13009534  1
  O  O211  1  0.24581809  0.49473695  0.62980577  1
  O  O212  1  0.23918831  1.00130369  0.13393292  1
  O  O213  1  0.25043121  0.99045150  0.63519268  1
  O  O214  1  0.74792453  0.49772678  0.13399040  1
  O  O215  1  0.73819104  0.49875447  0.62464132  1
  O  O216  1  0.74075374  0.99715390  0.13380844  1
  O  O217  1  0.74530800  0.99361080  0.63514091  1
  O  O218  1  -0.00032381  0.36828131  0.25672045  1
  O  O219  1  0.00624589  0.36580789  0.75174151  1
  O  O220  1  0.00439119  0.87010442  0.25646555  1
  O  O221  1  0.00750977  0.87129042  0.75558073  1
  O  O222  1  0.50599772  0.36816843  0.25503373  1
  O  O223  1  0.51145362  0.37298457  0.74965043  1
  O  O224  1  0.49388299  0.86899968  0.26167636  1
  O  O225  1  0.50376016  0.86844762  0.75441385  1
  O  O226  1  0.50494551  0.12964772  0.23664176  1
  O  O227  1  0.48723299  0.12256508  0.74537758  1
  O  O228  1  0.49444538  0.63016401  0.24405646  1
  O  O229  1  0.49518526  0.63359682  0.74955186  1
  O  O230  1  0.99071527  0.12957415  0.24360661  1
  O  O231  1  0.99969057  0.13488665  0.74436819  1
  O  O232  1  0.99486895  0.63136076  0.24440495  1
  O  O233  1  0.99551492  0.63163584  0.74596898  1
  O  O234  1  0.37455839  0.25595282  0.00842492  1
  O  O235  1  0.37485668  0.25518835  0.50823330  1
  O  O236  1  0.36631604  0.75379388  0.00453645  1
  O  O237  1  0.37300300  0.75891230  0.50172232  1
  O  O238  1  0.86821974  0.25694019  0.00013688  1
  O  O239  1  0.87475251  0.26291689  0.49746386  1
  O  O240  1  0.86961516  0.75857725  0.00671213  1
  O  O241  1  0.86982905  0.75602039  0.50641533  1
  O  O242  1  0.12704227  0.25006970  0.48680072  1
  O  O243  1  0.12405763  0.24270124  0.99231434  1
  O  O244  1  0.12926511  0.74948126  0.49150216  1
  O  O245  1  0.13644465  0.74402748  1.00668705  1
  O  O246  1  0.62358109  0.24206390  0.49205119  1
  O  O247  1  0.63156368  0.24048799  1.00158765  1
  O  O248  1  0.63150941  0.74532989  0.49369724  1
  O  O249  1  0.63152375  0.74280743  0.99808337  1
  O  O250  1  0.49367342  0.24079659  0.12906416  1
  O  O251  1  0.48608216  0.24875798  0.62738936  1
  O  O252  1  0.49448961  0.74387667  0.12893577  1
  O  O253  1  0.49990641  0.75008113  0.63663369  1
  O  O254  1  0.99765542  0.23881114  0.13228001  1
  O  O255  1  0.99901824  0.24447624  0.63585656  1
  O  O256  1  0.99489051  0.74529243  0.13097434  1
  O  O257  1  0.99501737  0.74613988  0.63194953  1
  O  O258  1  0.00842758  0.25445969  0.37031726  1
  O  O259  1  0.00991147  0.25041535  0.86760229  1
  O  O260  1  0.00555627  0.75604293  0.36933676  1
  O  O261  1  -0.00896744  0.76589012  0.86692448  1
  O  O262  1  0.50680725  0.25451679  0.36885099  1
  O  O263  1  0.50639480  0.25266368  0.87065014  1
  O  O264  1  0.50522778  0.75786001  0.36945567  1
  O  O265  1  0.49968474  0.75510589  0.86383040  1
  O  O266  1  0.24703951  0.12671737  0.48727356  1
  O  O267  1  0.23538233  0.12799226  0.99865147  1
  O  O268  1  0.24931739  0.62716624  0.49067979  1
  O  O269  1  0.24540069  0.63171049  0.99449860  1
  O  O270  1  0.73614092  0.12369504  0.50415579  1
  O  O271  1  0.73928338  0.13248180  1.00878794  1
  O  O272  1  0.74690597  0.63184401  0.49373581  1
  O  O273  1  0.74574860  0.63031503  0.99517782  1
  O  O274  1  0.26229176  0.37201546  0.00253074  1
  O  O275  1  0.25820603  0.37371187  0.50530003  1
  O  O276  1  0.25323155  0.86629804  0.00044475  1
  O  O277  1  0.25576128  0.87726945  0.50973932  1
  O  O278  1  0.75816413  0.36762721  0.00164868  1
  O  O279  1  0.76383546  0.37744923  0.49859798  1
  O  O280  1  0.75955841  0.86801747  0.00293763  1
  O  O281  1  0.75625275  0.87035912  0.50734637  1
  O  O282  1  0.13117081  0.50027027  0.24215542  1
  O  O283  1  0.13040737  0.49442168  0.74428885  1
  O  O284  1  0.13235240  0.99635840  0.24328470  1
  O  O285  1  0.13413921  0.99134712  0.74885993  1
  O  O286  1  0.63210592  0.49301391  0.25095830  1
  O  O287  1  0.62524291  0.49358312  0.73918687  1
  O  O288  1  0.63641745  1.00913306  0.24209652  1
  O  O289  1  0.63058870  0.99475142  0.74605897  1
  O  O290  1  0.36143639  -0.00611448  0.25459253  1
  O  O291  1  0.36618988  0.00767699  0.74974340  1
  O  O292  1  0.37148145  0.50477881  0.25387516  1
  O  O293  1  0.36983520  0.50323870  0.75323628  1
  O  O294  1  0.86842636  0.00682539  0.25815654  1
  O  O295  1  0.86401398  -0.00023083  0.76029381  1
  O  O296  1  0.87183680  0.50683229  0.25545019  1
  O  O297  1  0.87603810  0.50728830  0.75671955  1
  O  O298  1  0.12023329  0.36626343  0.37264925  1
  O  O299  1  0.12408983  0.36601834  0.86989594  1
  O  O300  1  0.11958940  0.87139851  0.36914170  1
  O  O301  1  0.11458986  0.88281881  0.86593763  1
  O  O302  1  0.61894391  0.36621003  0.37012828  1
  O  O303  1  0.62394670  0.37613186  0.86198738  1
  O  O304  1  0.61346887  0.86997074  0.38137315  1
  O  O305  1  0.61694132  0.87282416  0.86933357  1
  O  O306  1  0.38518138  0.13340559  0.11699230  1
  O  O307  1  0.37345518  0.13231040  0.63157389  1
  O  O308  1  0.38102967  0.62981560  0.12894310  1
  O  O309  1  0.37907524  0.62623022  0.63228830  1
  O  O310  1  0.88427990  0.12223390  0.13361267  1
  O  O311  1  0.88543934  0.12864665  0.63180875  1
  O  O312  1  0.88108777  0.63175544  0.13025031  1
  O  O313  1  0.88111130  0.63086390  0.63065838  1
  O  O314  1  0.26028524  0.24871553  0.12544597  1
  O  O315  1  0.25955356  0.25599019  0.62350766  1
  O  O316  1  0.25647712  0.75016304  0.11426006  1
  O  O317  1  0.25196260  0.76350706  0.62565318  1
  O  O318  1  0.75308503  0.25262412  0.11365790  1
  O  O319  1  0.75584927  0.25445201  0.61803962  1
  O  O320  1  0.75650426  0.75196276  0.12033328  1
  O  O321  1  0.75567140  0.75508688  0.62026576  1
  O  O322  1  0.24383211  0.24195004  0.37184972  1
  O  O323  1  0.23538567  0.24577580  0.87411383  1
  O  O324  1  0.24523083  0.74489838  0.37293869  1
  O  O325  1  0.25622305  0.74273740  0.88710809  1
  O  O326  1  0.73568834  0.25430972  0.37762437  1
  O  O327  1  0.74574780  0.25134503  0.89026117  1
  O  O328  1  0.74658070  0.74715786  0.38021819  1
  O  O329  1  0.74994661  0.74339948  0.88207370  1
  O  O330  1  0.00967368  0.13006936  0.01261874  1
  O  O331  1  0.00066637  0.12581582  0.51309823  1
  O  O332  1  0.00405031  0.62179494  0.00449892  1
  O  O333  1  0.00188388  0.61978850  0.50784761  1
  O  O334  1  0.50693044  0.11796300  0.01064617  1
  O  O335  1  0.50958214  0.11667049  0.50136817  1
  O  O336  1  0.50370055  0.61981216  0.00304093  1
  O  O337  1  0.50758326  0.61875602  0.49810592  1
  O  O338  1  0.49502774  0.38053875  0.49298143  1
  O  O339  1  0.48919454  0.37929509  0.99943859  1
  O  O340  1  0.49534529  0.88031047  0.48999265  1
  O  O341  1  0.49338380  0.87846089  0.99535465  1
  O  O342  1  0.99281093  0.38176265  0.49440942  1
  O  O343  1  0.99016033  0.38033127  0.99834262  1
  O  O344  1  0.99292548  0.87636310  0.49547894  1
  O  O345  1  0.98848126  0.86937271  0.99156844  1
  O  O346  1  0.49530442  0.49393455  0.37765550  1
  O  O347  1  0.49151686  0.49715099  0.88091111  1
  O  O348  1  0.49679054  0.99317257  0.37707522  1
  O  O349  1  0.49663606  0.99242588  0.88363963  1
  O  O350  1  0.99655040  0.49684745  0.37959192  1
  O  O351  1  0.99362365  0.49881977  0.88230142  1
  O  O352  1  0.98840882  0.99437937  0.37418827  1
  O  O353  1  0.98742187  0.98550068  0.86800203  1
  O  O354  1  0.01100876  0.01108317  0.13485125  1
  O  O355  1  -0.00026396  0.01152365  0.62810433  1
  O  O356  1  0.00472812  0.50732795  0.11909437  1
  O  O357  1  0.00661860  0.50672960  0.62082960  1
  O  O358  1  0.50483029  0.00519488  0.12328863  1
  O  O359  1  0.50756165  -0.00220837  0.61690105  1
  O  O360  1  0.49991260  0.50690627  0.11706169  1
  O  O361  1  0.51141587  0.50100155  0.61586004  1
  O  O362  1  0.24763338  0.38437500  0.24622907  1
  O  O363  1  0.24504194  0.38076585  0.74342748  1
  O  O364  1  0.24257477  0.88519021  0.24828780  1
  O  O365  1  0.24489969  0.88070284  0.74607867  1
  O  O366  1  0.74509602  0.38168761  0.25008020  1
  O  O367  1  0.73989476  0.37904986  0.74741148  1
  O  O368  1  0.75654523  0.88923572  0.24673249  1
  O  O369  1  0.74373192  0.88121334  0.74584936  1
  O  O370  1  0.24366086  0.11341308  0.26099545  1
  O  O371  1  0.25669326  0.11578544  0.74930695  1
  O  O372  1  0.25711538  0.61970899  0.25391564  1
  O  O373  1  0.25469914  0.61967540  0.75409916  1
  O  O374  1  0.76274737  0.11596748  0.24281680  1
  O  O375  1  0.74897922  0.11116120  0.74615018  1
  O  O376  1  0.75693094  0.62113061  0.25560814  1
  O  O377  1  0.75785543  0.62430860  0.75622827  1
  O  O378  1  0.36465718  0.11901585  0.37874749  1
  O  O379  1  0.37178660  0.12427809  0.86400041  1
  O  O380  1  0.37163289  0.61894529  0.36789030  1
  O  O381  1  0.36709161  0.61718305  0.86848628  1
  O  O382  1  0.88179462  0.11570834  0.36622857  1
  O  O383  1  0.88345101  0.10903392  0.87694401  1
  O  O384  1  0.87148051  0.62212987  0.36984959  1
  O  O385  1  0.87131490  0.62129347  0.87066756  1
  O  O386  1  0.12633088  0.38247327  0.12580807  1
  O  O387  1  0.13054230  0.38002461  0.62995669  1
  O  O388  1  0.12338029  0.88542782  0.12999576  1
  O  O389  1  0.13399784  0.87780026  0.63607059  1
  O  O390  1  0.62508218  0.37659979  0.13431091  1
  O  O391  1  0.62565961  0.38378832  0.62976266  1
  O  O392  1  0.62275884  0.88943610  0.12091534  1
  O  O393  1  0.63119263  0.88068070  0.63005388  1
  O  O394  1  0.11832530  0.25009587  0.26010947  1
  O  O395  1  0.11749118  0.25428389  0.75752435  1
  O  O396  1  0.11970935  0.75608635  0.25346521  1
  O  O397  1  0.11948724  0.76338414  0.74771576  1
  O  O398  1  0.62009181  0.25246519  0.25681348  1
  O  O399  1  0.62445886  0.25916521  0.74904062  1
  O  O400  1  0.61686890  0.74364136  0.25794055  1
  O  O401  1  0.61598775  0.75531220  0.75113965  1
  O  O402  1  0.38299779  0.25573758  0.23676536  1
  O  O403  1  0.37252450  0.24093462  0.74111318  1
  O  O404  1  0.38159060  0.74425391  0.24372473  1
  O  O405  1  0.38414987  0.74400213  0.74823362  1
  O  O406  1  0.87894447  0.24058014  0.25152245  1
  O  O407  1  0.88610594  0.24987502  0.75524608  1
  O  O408  1  0.88076309  0.74613948  0.24600974  1
  O  O409  1  0.88036814  0.74613614  0.74437451  1
  O  O410  1  0.38159717  0.49407912  0.49283951  1
  O  O411  1  0.37888088  0.49118771  0.99474819  1
  O  O412  1  0.38176236  0.99452080  0.49261517  1
  O  O413  1  0.37971607  0.99366549  1.00134134  1
  O  O414  1  0.88199645  0.49512822  0.49425743  1
  O  O415  1  0.87990511  0.49349000  0.99628367  1
  O  O416  1  0.87476472  0.99593081  0.49259459  1
  O  O417  1  0.86558946  0.98879249  0.99405610  1
  O  O418  1  0.12954258  0.00894034  0.01206767  1
  O  O419  1  0.11934435  0.00401429  0.50496482  1
  O  O420  1  0.11946672  0.50570073  0.00481768  1
  O  O421  1  0.11926603  0.50113350  0.50667101  1
  O  O422  1  0.62032184  0.00529699  0.00950085  1
  O  O423  1  0.62188172  0.00632541  0.50356827  1
  O  O424  1  0.61806946  0.50516726  0.00008712  1
  O  O425  1  0.62175620  0.50444378  0.50383395  1
  O  O426  1  0.37564322  0.36430640  0.11554074  1
  O  O427  1  0.37073948  0.36809470  0.62010068  1
  O  O428  1  0.37205256  0.86730524  0.11731115  1
  O  O429  1  0.36583673  0.87468605  0.61930330  1
  O  O430  1  0.87488063  0.37311131  0.11241543  1
  O  O431  1  0.87655296  0.37576798  0.61340943  1
  O  O432  1  0.87683919  0.87123287  0.11707858  1
  O  O433  1  0.87049504  0.87020235  0.62238658  1
  O  O434  1  0.13210532  0.13389361  0.37522752  1
  O  O435  1  0.12071776  0.13049069  0.88415690  1
  O  O436  1  0.13251678  0.63276898  0.37511322  1
  O  O437  1  0.13364664  0.61875187  0.88275034  1
  O  O438  1  0.61856129  0.13481089  0.38430827  1
  O  O439  1  0.61840189  0.12149778  0.89139754  1
  O  O440  1  0.63236851  0.63127807  0.38011693  1
  O  O441  1  0.63217726  0.62559368  0.88087310  1
