# generated using pymatgen
data_V93Zn93O256
_symmetry_space_group_name_H-M   'P 1'
_cell_length_a   17.06712833
_cell_length_b   17.06246200
_cell_length_c   17.05133118
_cell_angle_alpha   90.01511254
_cell_angle_beta   90.04738041
_cell_angle_gamma   89.98396102
_symmetry_Int_Tables_number   1
_chemical_formula_structural   V93Zn93O256
_chemical_formula_sum   'V93 Zn93 O256'
_cell_volume   4965.46883129
_cell_formula_units_Z   1
loop_
 _symmetry_equiv_pos_site_id
 _symmetry_equiv_pos_as_xyz
  1  'x, y, z'
loop_
 _atom_site_type_symbol
 _atom_site_label
 _atom_site_symmetry_multiplicity
 _atom_site_fract_x
 _atom_site_fract_y
 _atom_site_fract_z
 _atom_site_occupancy
  V  V0  1  0.87201843  0.62773132  0.25100505  1
  V  V1  1  0.50105270  0.37486341  0.87470266  1
  V  V2  1  0.00210160  0.00202754  0.00413487  1
  V  V3  1  0.12474419  0.87460862  0.25077294  1
  V  V4  1  0.00074300  0.37536793  0.87554339  1
  V  V5  1  0.24724846  0.25194818  0.49596735  1
  V  V6  1  0.75153719  -0.00482550  0.74268264  1
  V  V7  1  0.86977729  0.75691564  0.62491312  1
  V  V8  1  0.37548031  0.37644472  -0.00004535  1
  V  V9  1  0.12567044  0.62514728  0.49975183  1
  V  V10  1  0.50121897  0.00198166  0.50136586  1
  V  V11  1  0.87637560  0.87584270  0.00057173  1
  V  V12  1  0.24915953  0.62588747  0.87511994  1
  V  V13  1  -0.00151059  0.87560331  0.37626511  1
  V  V14  1  0.74835772  0.87523424  0.12486701  1
  V  V15  1  0.62482236  -0.00026325  0.12478895  1
  V  V16  1  0.62436686  0.25203664  0.37430350  1
  V  V17  1  0.74952411  0.50027614  0.74884344  1
  V  V18  1  0.87528811  0.50000591  0.87287677  1
  V  V19  1  0.74971931  0.12518213  0.37416570  1
  V  V20  1  0.37685538  0.37970778  0.49979635  1
  V  V21  1  0.74812502  0.62635252  0.37472685  1
  V  V22  1  0.25000197  0.49947604  0.74957069  1
  V  V23  1  0.12475570  0.62169210  0.00447481  1
  V  V24  1  -0.00053950  0.50070849  -0.00164042  1
  V  V25  1  -0.00097539  0.62301757  0.62288604  1
  V  V26  1  0.50130372  0.74910609  0.75058280  1
  V  V27  1  0.25041023  0.12565608  0.37484087  1
  V  V28  1  0.62445341  0.38107219  0.24596205  1
  V  V29  1  0.87643119  0.12462603  0.75149674  1
  V  V30  1  0.37531813  0.00179680  0.37590705  1
  V  V31  1  0.37521318  0.87514414  0.50193635  1
  V  V32  1  0.37839827  0.12527780  0.74788390  1
  V  V33  1  0.49350816  0.62767545  0.12402885  1
  V  V34  1  0.00151488  0.25026216  0.75149457  1
  V  V35  1  0.49970766  0.87529201  0.37546724  1
  V  V36  1  0.87661976  -0.00004530  0.87652409  1
  V  V37  1  0.25067705  0.37501763  0.62493426  1
  V  V38  1  0.50602749  0.49860222  0.00679075  1
  V  V39  1  0.61998107  0.62053955  0.49965579  1
  V  V40  1  0.50114669  0.87324079  0.87442599  1
  V  V41  1  -0.00039993  0.62643106  0.12420884  1
  V  V42  1  0.74989867  0.25075428  0.49946813  1
  V  V43  1  0.50014699  0.37959369  0.37749490  1
  V  V44  1  0.62340628  0.75005359  0.37533870  1
  V  V45  1  0.74435972  0.38110973  0.12289845  1
  V  V46  1  0.12590055  0.37515667  0.75004345  1
  V  V47  1  0.25110407  0.12335156  0.87487475  1
  V  V48  1  -0.00116652  0.75224210  0.25128795  1
  V  V49  1  0.00118134  0.12537399  0.62513748  1
  V  V50  1  0.24386509  0.38001220  0.12746058  1
  V  V51  1  0.00055898  0.75024328  0.75058202  1
  V  V52  1  0.87384788  0.37487856  -0.00231719  1
  V  V53  1  0.87563167  0.25081301  0.62478215  1
  V  V54  1  0.37528115  0.50361190  0.37398608  1
  V  V55  1  0.75072920  0.25038394  -0.00023161  1
  V  V56  1  0.50075939  -0.00177151  -0.00016671  1
  V  V57  1  0.37703341  0.25029811  0.12623420  1
  V  V58  1  0.25051792  0.75056989  0.50085027  1
  V  V59  1  0.12576341  -0.00095905  0.62573182  1
  V  V60  1  0.49985937  0.12556817  0.12433347  1
  V  V61  1  0.25574123  0.86553213  0.12590015  1
  V  V62  1  0.87388488  0.75164420  0.12549680  1
  V  V63  1  -0.00053926  0.00010037  0.50017732  1
  V  V64  1  0.37603893  0.86573638  0.00393600  1
  V  V65  1  0.25189835  -0.00106991  0.25117048  1
  V  V66  1  0.87239991  0.49967792  0.37524103  1
  V  V67  1  0.87985450  0.37629669  0.49720010  1
  V  V68  1  0.74947660  0.37597666  0.62379331  1
  V  V69  1  0.74830702  0.75718841  0.50419730  1
  V  V70  1  0.49233490  0.74974467  0.24554734  1
  V  V71  1  0.87791930  0.13030221  0.24490594  1
  V  V72  1  0.62423255  0.37445614  0.74904179  1
  V  V73  1  0.87400795  0.00057485  0.37480727  1
  V  V74  1  0.12556263  0.12681716  0.49882655  1
  V  V75  1  0.87431881  0.62523234  0.74886886  1
  V  V76  1  0.75139946  0.12460158  0.87482415  1
  V  V77  1  0.75013081  0.74963715  -0.00076913  1
  V  V78  1  0.37532363  0.62469660  0.74993321  1
  V  V79  1  0.62336865  0.50023801  0.62290982  1
  V  V80  1  0.74913688  0.62474707  0.87520227  1
  V  V81  1  0.49919878  0.62096595  0.62349506  1
  V  V82  1  0.62588903  0.62216550  0.00538223  1
  V  V83  1  0.62409281  0.12534504  0.49993877  1
  V  V84  1  0.12820757  0.12572597  -0.00263998  1
  V  V85  1  0.62559902  0.12411826  -0.00090528  1
  V  V86  1  0.62401706  0.87519061  0.24921203  1
  V  V87  1  0.37652964  -0.00165135  0.87483821  1
  V  V88  1  0.62479333  0.24946549  0.87299144  1
  V  V89  1  0.12749017  -0.00335287  0.12338589  1
  V  V90  1  0.12682128  0.87369997  0.75077074  1
  V  V91  1  0.62926472  0.87427975  0.74387515  1
  V  V92  1  0.24591213  0.49898026  0.24838058  1
  Zn  Zn93  1  0.24935355  0.25338220  -0.00071260  1
  Zn  Zn94  1  0.12408517  0.75151292  0.37622202  1
  Zn  Zn95  1  0.11378546  0.25272931  0.34871774  1
  Zn  Zn96  1  0.49997619  0.25083781  0.74675010  1
  Zn  Zn97  1  0.37664001  0.49985817  0.87486476  1
  Zn  Zn98  1  0.00838293  0.37404521  0.34904440  1
  Zn  Zn99  1  0.37565408  0.75103330  0.62568087  1
  Zn  Zn100  1  0.62816925  -0.00148519  0.62192120  1
  Zn  Zn101  1  0.50093397  0.25029481  0.24992063  1
  Zn  Zn102  1  0.08401302  0.46298381  0.17164023  1
  Zn  Zn103  1  0.12656419  0.25032048  0.87506504  1
  Zn  Zn104  1  0.12404476  0.75051040  0.87778051  1
  Zn  Zn105  1  0.24887560  0.62534425  0.37163556  1
  Zn  Zn106  1  0.37751090  0.24938445  0.62410411  1
  Zn  Zn107  1  0.12502573  0.49870120  0.62296369  1
  Zn  Zn108  1  0.25215364  0.74464639  0.00472540  1
  Zn  Zn109  1  0.87918009  0.25092147  0.12566450  1
  Zn  Zn110  1  0.37096614  0.62913553  0.24372491  1
  Zn  Zn111  1  0.74260429  0.50646619  0.24266613  1
  Zn  Zn112  1  0.00245586  0.87312998  0.87708466  1
  Zn  Zn113  1  0.00350275  0.49880405  0.49516562  1
  Zn  Zn114  1  0.74869659  0.00029559  0.24981977  1
  Zn  Zn115  1  0.50362699  0.12616672  0.62596602  1
  Zn  Zn116  1  0.62638515  0.74975047  0.87492586  1
  Zn  Zn117  1  0.37826785  0.12477942  0.25097942  1
  Zn  Zn118  1  0.25221353  -0.00257684  0.74774569  1
  Zn  Zn119  1  0.87070782  0.87902563  0.50338002  1
  Zn  Zn120  1  0.25309435  0.87562163  0.62638604  1
  Zn  Zn121  1  0.03460195  0.15249236  0.15922226  1
  Zn  Zn122  1  0.20111396  0.18602384  0.18390853  1
  Zn  Zn123  1  0.19026099  0.18888990  0.68619036  1
  Zn  Zn124  1  0.18472414  0.68450487  0.19007502  1
  Zn  Zn125  1  0.18754696  0.68860562  0.68611001  1
  Zn  Zn126  1  0.68988463  0.19132864  0.18806675  1
  Zn  Zn127  1  0.68825074  0.18628177  0.68653741  1
  Zn  Zn128  1  0.68311712  0.68986474  0.18625521  1
  Zn  Zn129  1  0.68625771  0.68813356  0.68733048  1
  Zn  Zn130  1  0.30963635  0.31462808  0.31183151  1
  Zn  Zn131  1  0.31261207  0.30932352  0.81295508  1
  Zn  Zn132  1  0.31135619  0.81373829  0.31728127  1
  Zn  Zn133  1  0.31359346  0.80999467  0.81333614  1
  Zn  Zn134  1  0.81063332  0.31290682  0.31117033  1
  Zn  Zn135  1  0.81197997  0.31193657  0.81214862  1
  Zn  Zn136  1  0.81103909  0.81443846  0.31468411  1
  Zn  Zn137  1  0.81363655  0.81287924  0.81427590  1
  Zn  Zn138  1  0.18456644  0.43539037  0.43127961  1
  Zn  Zn139  1  0.18618942  0.43964698  0.93808990  1
  Zn  Zn140  1  0.18688699  0.93749772  0.43831431  1
  Zn  Zn141  1  0.19132060  0.93590626  0.93657039  1
  Zn  Zn142  1  0.68878347  0.43813808  0.43583480  1
  Zn  Zn143  1  0.68679620  0.43817998  0.93592936  1
  Zn  Zn144  1  0.68619628  0.93932861  0.43554080  1
  Zn  Zn145  1  0.68823401  0.93674004  0.93372080  1
  Zn  Zn146  1  0.31395404  0.05689264  0.06260994  1
  Zn  Zn147  1  0.31197279  0.06147767  0.56355829  1
  Zn  Zn148  1  0.31327297  0.55964546  0.06191410  1
  Zn  Zn149  1  0.31155126  0.56154212  0.56253998  1
  Zn  Zn150  1  0.81093005  0.06083377  0.06269963  1
  Zn  Zn151  1  0.81358392  0.06524015  0.56148108  1
  Zn  Zn152  1  0.81366824  0.56260159  0.06168859  1
  Zn  Zn153  1  0.80958574  0.56530511  0.56033028  1
  Zn  Zn154  1  0.43638703  0.43918795  0.18957769  1
  Zn  Zn155  1  0.43671704  0.43933244  0.68731314  1
  Zn  Zn156  1  0.43737740  0.93756184  0.18745280  1
  Zn  Zn157  1  0.44056055  0.93883447  0.68593241  1
  Zn  Zn158  1  0.91931814  0.44190158  0.18319348  1
  Zn  Zn159  1  0.93822625  0.43712948  0.68666009  1
  Zn  Zn160  1  0.93687749  0.94215068  0.18869678  1
  Zn  Zn161  1  0.94086927  0.93746244  0.68914276  1
  Zn  Zn162  1  0.06488086  0.06118695  0.31629323  1
  Zn  Zn163  1  0.06234199  0.05843033  0.81383279  1
  Zn  Zn164  1  0.05808801  0.56689426  0.31786085  1
  Zn  Zn165  1  0.06502130  0.56276010  0.81201227  1
  Zn  Zn166  1  0.56139751  0.06367221  0.31158522  1
  Zn  Zn167  1  0.56379610  0.05958368  0.81191892  1
  Zn  Zn168  1  0.55939454  0.56302572  0.31136886  1
  Zn  Zn169  1  0.56248146  0.56086485  0.81529139  1
  Zn  Zn170  1  0.43779630  0.19050425  0.43729538  1
  Zn  Zn171  1  0.43830427  0.18842319  0.93665108  1
  Zn  Zn172  1  0.43697268  0.68882836  0.43738844  1
  Zn  Zn173  1  0.43920049  0.68593019  0.93446819  1
  Zn  Zn174  1  0.94021357  0.19067491  0.43145839  1
  Zn  Zn175  1  0.94284336  0.19021568  0.94382295  1
  Zn  Zn176  1  0.93540083  0.68985966  0.43859408  1
  Zn  Zn177  1  0.93767515  0.68849984  0.93610206  1
  Zn  Zn178  1  0.05306275  0.30586371  0.17240422  1
  Zn  Zn179  1  0.06416977  0.31224979  0.56159944  1
  Zn  Zn180  1  0.06485274  0.81068858  0.06278087  1
  Zn  Zn181  1  0.06127337  0.81273790  0.56382781  1
  Zn  Zn182  1  0.56401585  0.31060411  0.06182151  1
  Zn  Zn183  1  0.55969802  0.31025259  0.56285691  1
  Zn  Zn184  1  0.56329978  0.80976330  0.06238373  1
  Zn  Zn185  1  0.56096919  0.81056527  0.56371067  1
  O  O186  1  0.13424525  0.11252162  0.11279137  1
  O  O187  1  0.11995271  0.11971912  0.62035518  1
  O  O188  1  0.11593624  0.62848134  0.11494971  1
  O  O189  1  0.11508453  0.62533860  0.61698259  1
  O  O190  1  0.62079997  0.12093727  0.11844002  1
  O  O191  1  0.62590723  0.12238053  0.61500080  1
  O  O192  1  0.61560369  0.62819081  0.11201674  1
  O  O193  1  0.61872861  0.62051210  0.61848379  1
  O  O194  1  0.38118756  0.38209516  0.37979229  1
  O  O195  1  0.38033338  0.37406837  0.88595587  1
  O  O196  1  0.38109137  0.88205947  0.38222985  1
  O  O197  1  0.38051896  0.87902755  0.88258865  1
  O  O198  1  0.87107032  0.38454442  0.38236694  1
  O  O199  1  0.87871369  0.38183223  0.87677394  1
  O  O200  1  0.88041266  0.88265121  0.37731357  1
  O  O201  1  0.87664419  0.88197162  0.88359283  1
  O  O202  1  0.25554766  0.00513476  0.37119416  1
  O  O203  1  0.25840730  0.00768837  0.87222459  1
  O  O204  1  0.25960698  0.50047975  0.36561942  1
  O  O205  1  0.25182289  0.51102573  0.86949609  1
  O  O206  1  0.75584943  0.00699806  0.37431514  1
  O  O207  1  0.75713834  0.00610454  0.86758839  1
  O  O208  1  0.75848546  0.50839964  0.37455074  1
  O  O209  1  0.75563531  0.50505602  0.86826012  1
  O  O210  1  0.25744943  0.49204665  0.13539129  1
  O  O211  1  0.24863932  0.49315435  0.63200485  1
  O  O212  1  0.24706366  0.98804716  0.13111527  1
  O  O213  1  0.24068174  0.99684366  0.62718740  1
  O  O214  1  0.75233968  0.48674050  0.12344765  1
  O  O215  1  0.74430150  0.49614497  0.62964841  1
  O  O216  1  0.74130744  0.99184876  0.12467203  1
  O  O217  1  0.75245140  1.00345255  0.63920766  1
  O  O218  1  0.00800010  0.39188569  0.23241308  1
  O  O219  1  0.00477046  0.37042173  0.75485120  1
  O  O220  1  0.00490391  0.87173455  0.25472039  1
  O  O221  1  0.01009694  0.86875073  0.75168837  1
  O  O222  1  0.50740548  0.37350042  0.25703019  1
  O  O223  1  0.50672031  0.37614500  0.75652837  1
  O  O224  1  0.50426734  0.86785393  0.25432901  1
  O  O225  1  0.50796011  0.86998576  0.75549842  1
  O  O226  1  0.49750501  0.12932475  0.24095856  1
  O  O227  1  0.48994296  0.12521585  0.75204315  1
  O  O228  1  0.49987328  0.63213323  0.24051782  1
  O  O229  1  0.49658997  0.62853485  0.74408616  1
  O  O230  1  0.98183821  0.11207176  0.25217107  1
  O  O231  1  0.99560246  0.12934606  0.74573327  1
  O  O232  1  0.99196531  0.63169749  0.24496938  1
  O  O233  1  0.99494278  0.62946555  0.74140869  1
  O  O234  1  0.37631008  0.26066785  0.00802763  1
  O  O235  1  0.36423338  0.26151607  0.49776648  1
  O  O236  1  0.37535197  0.76249581  -0.00460396  1
  O  O237  1  0.36707334  0.75576354  0.50036322  1
  O  O238  1  0.86507496  0.25776651  -0.00527306  1
  O  O239  1  0.86925913  0.25801002  0.50506947  1
  O  O240  1  0.87013155  0.75505067  0.00615235  1
  O  O241  1  0.86472597  0.75070323  0.50799589  1
  O  O242  1  0.13829732  0.24367748  0.50530214  1
  O  O243  1  0.13067856  0.22853455  0.99558538  1
  O  O244  1  0.13250533  0.74281582  0.50099184  1
  O  O245  1  0.12750717  0.73675287  0.99798805  1
  O  O246  1  0.63100532  0.24669508  0.49357982  1
  O  O247  1  0.63077380  0.24349935  0.99290784  1
  O  O248  1  0.63055453  0.74216338  0.49624494  1
  O  O249  1  0.63178375  0.74047593  0.99748904  1
  O  O250  1  0.49159516  0.24465660  0.12367501  1
  O  O251  1  0.49486214  0.24473786  0.62824464  1
  O  O252  1  0.50513267  0.74201877  0.13575317  1
  O  O253  1  0.50038754  0.73675012  0.63191590  1
  O  O254  1  0.98950907  0.24000687  0.10703385  1
  O  O255  1  0.99465507  0.24469836  0.63090422  1
  O  O256  1  0.99243732  0.74654117  0.13113546  1
  O  O257  1  0.99086757  0.73995615  0.62921942  1
  O  O258  1  0.00065958  0.26051500  0.37323122  1
  O  O259  1  0.00259348  0.25679099  0.86843794  1
  O  O260  1  -0.00157786  0.75739131  0.36868588  1
  O  O261  1  0.00145345  0.75191264  0.86558919  1
  O  O262  1  0.50462951  0.26247894  0.37227973  1
  O  O263  1  0.50819194  0.25735790  0.87447948  1
  O  O264  1  0.50553769  0.75521672  0.36823967  1
  O  O265  1  0.50313671  0.75524197  0.86769450  1
  O  O266  1  0.24666479  0.13351217  0.49532146  1
  O  O267  1  0.24598842  0.11863021  0.98934311  1
  O  O268  1  0.24137314  0.63228227  0.50037686  1
  O  O269  1  0.24337805  0.62277912  0.99443416  1
  O  O270  1  0.74544218  0.13192593  0.49394117  1
  O  O271  1  0.74498922  0.12880966  0.99396105  1
  O  O272  1  0.73963959  0.63546452  0.49491451  1
  O  O273  1  0.74324653  0.62855527  0.99648250  1
  O  O274  1  0.26077531  0.37882138  0.00656406  1
  O  O275  1  0.25678604  0.36847019  0.50367815  1
  O  O276  1  0.25882706  0.87227910  0.00828768  1
  O  O277  1  0.25531551  0.86632138  0.50052674  1
  O  O278  1  0.75221642  0.37117052  0.00405202  1
  O  O279  1  0.75854100  0.37076335  0.50449140  1
  O  O280  1  0.75533406  0.86993840  0.00462403  1
  O  O281  1  0.74812869  0.86080109  0.49626430  1
  O  O282  1  0.14014415  0.51315501  0.25549290  1
  O  O283  1  0.13195939  0.49326019  0.74727881  1
  O  O284  1  0.13181179  0.99412212  0.24439458  1
  O  O285  1  0.12508144  0.98947485  0.74451238  1
  O  O286  1  0.62636568  0.48620818  0.25637704  1
  O  O287  1  0.63098172  0.49462986  0.74412665  1
  O  O288  1  0.62485215  0.99280878  0.24307977  1
  O  O289  1  0.63519810  0.99232690  0.74942407  1
  O  O290  1  0.36976791  -0.00085894  0.25830189  1
  O  O291  1  0.37529208  0.00736751  0.75698684  1
  O  O292  1  0.36747080  0.50358020  0.25864408  1
  O  O293  1  0.36802224  0.50662260  0.75294212  1
  O  O294  1  0.86888049  0.00735971  0.25707188  1
  O  O295  1  0.87038878  0.00414473  0.75537022  1
  O  O296  1  0.86590605  0.50982598  0.25934514  1
  O  O297  1  0.86898432  0.50561243  0.75297185  1
  O  O298  1  0.12126263  0.36707181  0.37332522  1
  O  O299  1  0.11944744  0.37370501  0.86885569  1
  O  O300  1  0.11725596  0.87515543  0.36830387  1
  O  O301  1  0.12555715  0.87207668  0.86457596  1
  O  O302  1  0.61799363  0.37222193  0.37037761  1
  O  O303  1  0.62117077  0.36978603  0.86865993  1
  O  O304  1  0.61836378  0.86954097  0.36943035  1
  O  O305  1  0.61878686  0.87334514  0.86521869  1
  O  O306  1  0.37981193  0.13424984  0.12190001  1
  O  O307  1  0.37494847  0.12432893  0.63759199  1
  O  O308  1  0.38961098  0.62450704  0.12187464  1
  O  O309  1  0.38487644  0.62417766  0.62916216  1
  O  O310  1  0.86643712  0.12234177  0.14192139  1
  O  O311  1  0.88129129  0.13146567  0.63118492  1
  O  O312  1  0.87845526  0.63239796  0.13038439  1
  O  O313  1  0.88109853  0.63272285  0.62868783  1
  O  O314  1  0.26193324  0.26042689  0.11949188  1
  O  O315  1  0.25514441  0.25649877  0.61459652  1
  O  O316  1  0.24770926  0.76242158  0.12687372  1
  O  O317  1  0.25322639  0.75090806  0.61253856  1
  O  O318  1  0.75263460  0.25991954  0.11617182  1
  O  O319  1  0.75634877  0.25621707  0.61966313  1
  O  O320  1  0.75444104  0.75552355  0.11885547  1
  O  O321  1  0.75926802  0.74189227  0.61624721  1
  O  O322  1  0.24983388  0.24446306  0.38265635  1
  O  O323  1  0.24905322  0.23688131  0.87974385  1
  O  O324  1  0.24780971  0.74686990  0.38776858  1
  O  O325  1  0.24921480  0.73527609  0.87752923  1
  O  O326  1  0.74399735  0.24621971  0.38131508  1
  O  O327  1  0.74401308  0.24395118  0.87877467  1
  O  O328  1  0.74342281  0.74509079  0.38318499  1
  O  O329  1  0.75113019  0.74166934  0.88202492  1
  O  O330  1  0.01210007  0.11058207  -0.00699087  1
  O  O331  1  0.00504233  0.12052317  0.50590354  1
  O  O332  1  0.00502940  0.62105903  0.00352806  1
  O  O333  1  0.00677690  0.62691694  0.50762095  1
  O  O334  1  0.50608977  0.11842416  0.00367129  1
  O  O335  1  0.50676759  0.11949573  0.49761842  1
  O  O336  1  0.50643586  0.61909102  0.00470142  1
  O  O337  1  0.51131378  0.63262875  0.50921088  1
  O  O338  1  0.48924428  0.37045398  0.48895483  1
  O  O339  1  0.49590885  0.38174754  0.99706485  1
  O  O340  1  0.49618246  0.87952820  0.49419593  1
  O  O341  1  0.49463697  0.87816262  0.99616334  1
  O  O342  1  0.98419590  0.37899139  0.50835337  1
  O  O343  1  0.98878145  0.38676938  0.98971407  1
  O  O344  1  0.99810756  0.88210687  0.49462348  1
  O  O345  1  0.99568836  0.88377198  1.00032057  1
  O  O346  1  0.48997483  0.48847564  0.36908328  1
  O  O347  1  0.49834122  0.49352862  0.88699622  1
  O  O348  1  0.49539027  0.99423610  0.38055494  1
  O  O349  1  0.49614590  0.99290590  0.88145726  1
  O  O350  1  0.98363403  0.49830631  0.37574750  1
  O  O351  1  0.99313720  0.49645741  0.87666064  1
  O  O352  1  0.99405587  0.99497303  0.38196249  1
  O  O353  1  0.99414464  0.99595921  0.88508119  1
  O  O354  1  0.00898649  -0.00288962  0.11416122  1
  O  O355  1  0.00491361  0.00669037  0.62025628  1
  O  O356  1  -0.00593088  0.51009359  0.11605185  1
  O  O357  1  -0.00116328  0.51361119  0.62232635  1
  O  O358  1  0.50548802  0.00499494  0.11895578  1
  O  O359  1  0.50451539  0.00441721  0.61539260  1
  O  O360  1  0.49705194  0.50779273  0.11349495  1
  O  O361  1  0.50719912  0.51328990  0.62962815  1
  O  O362  1  0.25661126  0.38626662  0.23925156  1
  O  O363  1  0.24652253  0.37873950  0.74575933  1
  O  O364  1  0.24606577  0.87845782  0.24492607  1
  O  O365  1  0.24044127  0.87398175  0.74825810  1
  O  O366  1  0.74215722  0.37650219  0.24046064  1
  O  O367  1  0.74483769  0.38076414  0.74330018  1
  O  O368  1  0.74122270  0.87400349  0.24306784  1
  O  O369  1  0.74187257  0.88441264  0.75792684  1
  O  O370  1  0.25664525  0.11586696  0.25631890  1
  O  O371  1  0.25863982  0.12341700  0.75929269  1
  O  O372  1  0.25547412  0.61837517  0.25123980  1
  O  O373  1  0.25396344  0.62087333  0.75612398  1
  O  O374  1  0.75680645  0.12283154  0.25723505  1
  O  O375  1  0.75687158  0.11698782  0.75560582  1
  O  O376  1  0.75245446  0.62759078  0.25581967  1
  O  O377  1  0.75425645  0.61945114  0.75448797  1
  O  O378  1  0.36910427  0.11915655  0.37480516  1
  O  O379  1  0.36953564  0.11941376  0.86997989  1
  O  O380  1  0.37610291  0.61209177  0.37679694  1
  O  O381  1  0.36633713  0.62249113  0.86990074  1
  O  O382  1  0.86885788  0.11964297  0.36687580  1
  O  O383  1  0.87135419  0.11993649  0.87063265  1
  O  O384  1  0.86861938  0.61967887  0.37151927  1
  O  O385  1  0.86931995  0.61940723  0.86848351  1
  O  O386  1  0.14122639  0.37566488  0.12039621  1
  O  O387  1  0.13182474  0.37714360  0.63114016  1
  O  O388  1  0.13502364  0.87826979  0.13033718  1
  O  O389  1  0.12476269  0.88037276  0.63466434  1
  O  O390  1  0.63254798  0.36882792  0.13370414  1
  O  O391  1  0.62990621  0.38047265  0.62760062  1
  O  O392  1  0.62879359  0.87983437  0.12900951  1
  O  O393  1  0.62066885  0.87581683  0.63975806  1
  O  O394  1  0.11166402  0.22837046  0.23477767  1
  O  O395  1  0.11914384  0.25620305  0.75094369  1
  O  O396  1  0.11659297  0.75638877  0.25259555  1
  O  O397  1  0.11897713  0.75800941  0.74898090  1
  O  O398  1  0.62471793  0.26216177  0.25705100  1
  O  O399  1  0.62589018  0.25678584  0.75555468  1
  O  O400  1  0.61470571  0.75530176  0.25610829  1
  O  O401  1  0.62145694  0.75733421  0.75256442  1
  O  O402  1  0.37591988  0.25079797  0.23595372  1
  O  O403  1  0.37743657  0.23818931  0.74974866  1
  O  O404  1  0.38922588  0.74886691  0.25945108  1
  O  O405  1  0.38269867  0.74239456  0.74777078  1
  O  O406  1  0.87030416  0.23368154  0.25078062  1
  O  O407  1  0.88049245  0.24475990  0.74463445  1
  O  O408  1  0.87855149  0.74670715  0.24504843  1
  O  O409  1  0.87832342  0.74452467  0.74285188  1
  O  O410  1  0.36608708  0.48748634  0.48911032  1
  O  O411  1  0.38538622  0.48946756  0.99875830  1
  O  O412  1  0.38069230  0.99514521  0.49463902  1
  O  O413  1  0.38254830  0.98920342  0.99461461  1
  O  O414  1  0.87239221  0.49373647  0.49173342  1
  O  O415  1  0.87885812  0.49686191  0.99122148  1
  O  O416  1  0.88073783  0.99965058  0.49450538  1
  O  O417  1  0.88363405  0.99664942  0.99770422  1
  O  O418  1  0.12003504  0.00249669  0.00291806  1
  O  O419  1  0.11921902  0.00661026  0.50548250  1
  O  O420  1  0.11635469  0.51306696  -0.00417829  1
  O  O421  1  0.12351813  0.51190123  0.50154969  1
  O  O422  1  0.62013665  0.00447191  0.00407269  1
  O  O423  1  0.61959445  0.00655566  0.49981297  1
  O  O424  1  0.61611315  0.50909286  -0.00464753  1
  O  O425  1  0.63244241  0.51362514  0.50504029  1
  O  O426  1  0.37210782  0.36885132  0.11655835  1
  O  O427  1  0.37071942  0.37669175  0.61454922  1
  O  O428  1  0.36725742  0.88027881  0.11535894  1
  O  O429  1  0.37479012  0.87225349  0.61730251  1
  O  O430  1  0.86095964  0.37193841  0.11546990  1
  O  O431  1  0.86836727  0.37110781  0.61827126  1
  O  O432  1  0.86894726  0.87098990  0.12021654  1
  O  O433  1  0.88117729  0.86030622  0.62469155  1
  O  O434  1  0.13326506  0.12675489  0.38246119  1
  O  O435  1  0.13649463  0.12024421  0.87934651  1
  O  O436  1  0.12463606  0.62979269  0.38847637  1
  O  O437  1  0.13361708  0.62610821  0.88265451  1
  O  O438  1  0.62958505  0.13192624  0.37928522  1
  O  O439  1  0.63127643  0.12865388  0.87993407  1
  O  O440  1  0.62621546  0.62956414  0.38224496  1
  O  O441  1  0.63112521  0.62567825  0.88591071  1
