# generated using pymatgen
data_V93Zn93O256
_symmetry_space_group_name_H-M   'P 1'
_cell_length_a   17.04733732
_cell_length_b   17.04611933
_cell_length_c   17.04820613
_cell_angle_alpha   90.02053585
_cell_angle_beta   89.94145601
_cell_angle_gamma   89.92456142
_symmetry_Int_Tables_number   1
_chemical_formula_structural   V93Zn93O256
_chemical_formula_sum   'V93 Zn93 O256'
_cell_volume   4954.04715095
_cell_formula_units_Z   1
loop_
 _symmetry_equiv_pos_site_id
 _symmetry_equiv_pos_as_xyz
  1  'x, y, z'
loop_
 _atom_site_type_symbol
 _atom_site_label
 _atom_site_symmetry_multiplicity
 _atom_site_fract_x
 _atom_site_fract_y
 _atom_site_fract_z
 _atom_site_occupancy
  V  V0  1  0.00028144  -0.00107912  0.49879623  1
  V  V1  1  0.87570684  -0.00168955  0.37512939  1
  V  V2  1  0.00224592  0.74948278  0.75509076  1
  V  V3  1  0.00022094  0.24954747  0.24954001  1
  V  V4  1  0.63053875  0.37380465  0.74508243  1
  V  V5  1  0.00079613  0.12450298  0.62544967  1
  V  V6  1  0.87069492  0.75667704  0.62685880  1
  V  V7  1  0.63016843  -0.00485559  0.62304421  1
  V  V8  1  0.75066579  0.12476603  0.87445057  1
  V  V9  1  0.12573109  0.62677577  -0.00642365  1
  V  V10  1  0.24969923  0.74892013  0.49966973  1
  V  V11  1  -0.00051650  0.37622235  0.37605002  1
  V  V12  1  0.87620515  0.24991692  0.12629047  1
  V  V13  1  0.87586173  0.87592247  -0.00120532  1
  V  V14  1  0.50064882  0.25092851  0.24964138  1
  V  V15  1  0.87338451  0.74998452  0.12726800  1
  V  V16  1  0.87455618  0.49928342  0.87506714  1
  V  V17  1  0.37875457  -0.00484352  0.37403975  1
  V  V18  1  0.49814370  0.75252798  0.25370584  1
  V  V19  1  0.49937575  0.62507490  0.62559610  1
  V  V20  1  0.50063554  0.12604281  0.12351536  1
  V  V21  1  0.87528804  0.12365487  0.74957479  1
  V  V22  1  0.50022578  0.37435001  0.87430298  1
  V  V23  1  0.24975677  0.24934268  -0.00142572  1
  V  V24  1  0.24398038  0.75756396  -0.00269744  1
  V  V25  1  0.25147974  -0.00065392  0.74827549  1
  V  V26  1  0.74822056  0.62484143  0.87637285  1
  V  V27  1  0.62068765  0.75210990  0.37591914  1
  V  V28  1  0.49645496  0.12618725  0.62331204  1
  V  V29  1  -0.00065292  0.37381791  0.87509850  1
  V  V30  1  0.25112960  0.87425147  0.62409237  1
  V  V31  1  0.37501355  0.74901354  0.62575777  1
  V  V32  1  0.25017121  0.49917504  0.75047463  1
  V  V33  1  0.37667104  0.00004049  0.87151476  1
  V  V34  1  0.49899220  0.37636554  0.37486924  1
  V  V35  1  0.74999886  0.37650655  0.12577125  1
  V  V36  1  0.12496227  0.37423734  0.25058263  1
  V  V37  1  0.62609622  0.24911479  0.87378097  1
  V  V38  1  0.87513699  0.62521185  0.74989419  1
  V  V39  1  0.25848946  0.24919846  0.50374305  1
  V  V40  1  0.74957751  0.00161621  0.25019242  1
  V  V41  1  0.61790574  0.87605939  0.25507150  1
  V  V42  1  0.75062924  -0.00173951  0.74615962  1
  V  V43  1  0.12427432  0.50096609  0.12542554  1
  V  V44  1  0.37497235  0.12482965  0.25046403  1
  V  V45  1  0.12516767  0.86944114  0.75509749  1
  V  V46  1  0.62556821  0.37629073  0.24952909  1
  V  V47  1  0.74965895  0.62607524  0.37516594  1
  V  V48  1  0.87557897  0.12550512  0.24937783  1
  V  V49  1  0.50266461  -0.00499006  0.49531208  1
  V  V50  1  0.74952447  0.75737283  0.50531529  1
  V  V51  1  0.62921671  0.49853005  0.62486241  1
  V  V52  1  0.49484991  0.24906939  0.74436216  1
  V  V53  1  0.37489701  0.37571884  -0.00008869  1
  V  V54  1  0.36874031  0.75745612  0.12408626  1
  V  V55  1  0.24879285  0.62478807  0.37584165  1
  V  V56  1  0.62630776  0.25019131  0.37575852  1
  V  V57  1  0.37531572  0.25114253  0.12487606  1
  V  V58  1  0.12360927  0.75219142  0.37396448  1
  V  V59  1  0.62435950  0.62512321  0.50093036  1
  V  V60  1  0.87611918  -0.00253870  0.87440819  1
  V  V61  1  0.74938578  0.50075686  0.25098819  1
  V  V62  1  0.87245983  0.37609403  0.50553912  1
  V  V63  1  0.74940602  0.25206476  0.50390333  1
  V  V64  1  0.12598681  0.25013045  0.37651677  1
  V  V65  1  0.37469983  0.62472733  0.75042059  1
  V  V66  1  0.24972809  0.37509383  0.12514116  1
  V  V67  1  -0.00122924  0.62619977  0.12621278  1
  V  V68  1  0.12511382  0.24928408  0.87497759  1
  V  V69  1  0.49882857  0.50100588  0.00052409  1
  V  V70  1  0.37810233  0.87413376  0.49829148  1
  V  V71  1  0.24933753  0.49996720  0.25107462  1
  V  V72  1  0.12605369  0.12589307  0.50030479  1
  V  V73  1  0.24969726  0.12550753  0.87356468  1
  V  V74  1  0.87431351  0.50069990  0.37658664  1
  V  V75  1  0.87312697  0.25127121  0.62521246  1
  V  V76  1  0.62890245  0.87404364  0.74796716  1
  V  V77  1  0.12601659  -0.00133107  0.62356142  1
  V  V78  1  0.62420351  0.00033206  0.12424788  1
  V  V79  1  0.62269638  0.74980529  0.87649824  1
  V  V80  1  0.75011607  0.25006898  -0.00047076  1
  V  V81  1  0.50011330  0.62578112  0.12396994  1
  V  V82  1  0.50002104  -0.00092843  -0.00222698  1
  V  V83  1  0.74902188  0.87506061  0.12524798  1
  V  V84  1  0.12434794  0.50051525  0.62383081  1
  V  V85  1  0.74970455  0.49843567  0.74930157  1
  V  V86  1  0.25787935  0.37105556  0.62568908  1
  V  V87  1  0.37310249  0.50111842  0.87486572  1
  V  V88  1  0.00033102  0.24900872  0.75082456  1
  V  V89  1  0.37356991  0.62611214  0.25045694  1
  V  V90  1  0.24789656  -0.00671652  0.24293390  1
  V  V91  1  0.37531043  0.49900451  0.37665089  1
  V  V92  1  0.87494735  0.37564990  -0.00024599  1
  Zn  Zn93  1  0.00076875  0.87297948  0.37603463  1
  Zn  Zn94  1  -0.00113867  0.75308521  0.25332110  1
  Zn  Zn95  1  0.37905229  0.37190343  0.50280596  1
  Zn  Zn96  1  0.00029064  0.50126553  0.50134039  1
  Zn  Zn97  1  0.00503119  0.87267173  0.87807721  1
  Zn  Zn98  1  0.74899029  0.12628609  0.37491808  1
  Zn  Zn99  1  0.12332521  -0.00686186  0.11751926  1
  Zn  Zn100  1  0.49903118  0.87391962  0.87446927  1
  Zn  Zn101  1  0.62436526  0.62478759  -0.00016691  1
  Zn  Zn102  1  0.87353703  0.87789468  0.50498642  1
  Zn  Zn103  1  0.62562511  0.50156515  0.12370211  1
  Zn  Zn104  1  0.12339384  0.87188259  0.24281334  1
  Zn  Zn105  1  0.00054339  0.50008762  -0.00096926  1
  Zn  Zn106  1  0.00457122  0.12118219  0.12388016  1
  Zn  Zn107  1  0.00264220  0.00225724  0.00055009  1
  Zn  Zn108  1  0.12363775  0.12216610  0.00262308  1
  Zn  Zn109  1  0.62679818  0.12466240  -0.00115129  1
  Zn  Zn110  1  0.49818225  0.75192330  0.75101713  1
  Zn  Zn111  1  0.49915400  0.49822540  0.50052915  1
  Zn  Zn112  1  0.74709967  0.74840804  0.00125071  1
  Zn  Zn113  1  0.62706802  0.12415273  0.49886769  1
  Zn  Zn114  1  0.25089230  0.12482960  0.37533929  1
  Zn  Zn115  1  0.87446990  0.62587657  0.25207581  1
  Zn  Zn116  1  0.36945081  0.87803071  0.00224035  1
  Zn  Zn117  1  0.24584387  0.62797933  0.87315313  1
  Zn  Zn118  1  0.37283609  0.12890728  0.74362683  1
  Zn  Zn119  1  0.12149121  0.62474476  0.49994095  1
  Zn  Zn120  1  0.12472141  0.37469480  0.74969967  1
  Zn  Zn121  1  -0.00029312  0.62527752  0.62397354  1
  Zn  Zn122  1  0.18766449  0.18158578  0.18688099  1
  Zn  Zn123  1  0.18745987  0.18782952  0.68775846  1
  Zn  Zn124  1  0.18676297  0.68919234  0.18539880  1
  Zn  Zn125  1  0.18802273  0.68561369  0.68740140  1
  Zn  Zn126  1  0.68828477  0.18744382  0.18696764  1
  Zn  Zn127  1  0.68560131  0.18394805  0.68465262  1
  Zn  Zn128  1  0.68663884  0.68881418  0.18968351  1
  Zn  Zn129  1  0.68775252  0.68614821  0.68889699  1
  Zn  Zn130  1  0.31224958  0.31175639  0.31486304  1
  Zn  Zn131  1  0.31214283  0.31426888  0.81204205  1
  Zn  Zn132  1  0.31241797  0.81320699  0.31439571  1
  Zn  Zn133  1  0.31139408  0.81208858  0.81481007  1
  Zn  Zn134  1  0.81238615  0.31367585  0.31513379  1
  Zn  Zn135  1  0.81305503  0.31175454  0.81235215  1
  Zn  Zn136  1  0.80790349  0.81431223  0.31353539  1
  Zn  Zn137  1  0.80985474  0.81123817  0.81299137  1
  Zn  Zn138  1  0.18911090  0.43531339  0.44052111  1
  Zn  Zn139  1  0.18540627  0.43797464  0.93761423  1
  Zn  Zn140  1  0.19125142  0.93729139  0.43379479  1
  Zn  Zn141  1  0.18803457  0.93927076  0.93654794  1
  Zn  Zn142  1  0.68812837  0.43647212  0.43815877  1
  Zn  Zn143  1  0.68531558  0.43807290  0.93758775  1
  Zn  Zn144  1  0.68876130  0.93739903  0.43492487  1
  Zn  Zn145  1  0.68927741  0.93621218  0.93597293  1
  Zn  Zn146  1  0.31284096  0.06508519  0.06086742  1
  Zn  Zn147  1  0.31385694  0.06199628  0.56029209  1
  Zn  Zn148  1  0.31073055  0.56629324  0.06221448  1
  Zn  Zn149  1  0.31131053  0.56065408  0.56187232  1
  Zn  Zn150  1  0.81484040  0.06285703  0.06301828  1
  Zn  Zn151  1  0.81242881  0.06633311  0.56041737  1
  Zn  Zn152  1  0.81130194  0.56258849  0.06101356  1
  Zn  Zn153  1  0.81179485  0.56718919  0.56294539  1
  Zn  Zn154  1  0.43708824  0.43892808  0.18879318  1
  Zn  Zn155  1  0.44034666  0.43896075  0.68813116  1
  Zn  Zn156  1  0.43657018  0.93883108  0.18617903  1
  Zn  Zn157  1  0.44211491  0.93676733  0.68565106  1
  Zn  Zn158  1  0.93678213  0.43870658  0.18868743  1
  Zn  Zn159  1  0.93840950  0.43656188  0.68841107  1
  Zn  Zn160  1  0.94378679  0.93643028  0.18948513  1
  Zn  Zn161  1  0.94007922  0.93591361  0.68786188  1
  Zn  Zn162  1  0.06272707  0.06452247  0.31271271  1
  Zn  Zn163  1  0.06332314  0.05968172  0.81512635  1
  Zn  Zn164  1  0.06098940  0.56453673  0.31327666  1
  Zn  Zn165  1  0.06039335  0.56051572  0.80973834  1
  Zn  Zn166  1  0.56285578  0.06564841  0.31286117  1
  Zn  Zn167  1  0.56400723  0.06393969  0.80986343  1
  Zn  Zn168  1  0.56224326  0.56387759  0.31246251  1
  Zn  Zn169  1  0.56015283  0.56289675  0.81196147  1
  Zn  Zn170  1  0.44055235  0.18324037  0.43566749  1
  Zn  Zn171  1  0.43739302  0.18628165  0.93456818  1
  Zn  Zn172  1  0.43818077  0.68567770  0.43823815  1
  Zn  Zn173  1  0.43429954  0.68843198  0.93761589  1
  Zn  Zn174  1  0.93774461  0.18675205  0.43653621  1
  Zn  Zn175  1  0.93808155  0.18603836  0.93913773  1
  Zn  Zn176  1  0.93787418  0.68526489  0.44223278  1
  Zn  Zn177  1  0.93668702  0.68790830  0.93896003  1
  Zn  Zn178  1  0.06234742  0.31057410  0.06134415  1
  Zn  Zn179  1  0.06429327  0.31406892  0.56328481  1
  Zn  Zn180  1  0.06278109  0.81678131  0.06785772  1
  Zn  Zn181  1  0.05980270  0.81179765  0.56376171  1
  Zn  Zn182  1  0.56430300  0.31369501  0.06179976  1
  Zn  Zn183  1  0.56252165  0.31331528  0.56165559  1
  Zn  Zn184  1  0.55976191  0.81349018  0.06395564  1
  Zn  Zn185  1  0.56200375  0.81221150  0.56415749  1
  O  O186  1  0.12434232  0.11633339  0.12195196  1
  O  O187  1  0.11974384  0.11821249  0.62044681  1
  O  O188  1  0.11635091  0.62101302  0.11808185  1
  O  O189  1  0.12622303  0.61206828  0.62381411  1
  O  O190  1  0.61840929  0.11868407  0.12306535  1
  O  O191  1  0.61503214  0.11276442  0.62291499  1
  O  O192  1  0.61056060  0.62675610  0.12488692  1
  O  O193  1  0.61922366  0.61803197  0.62174492  1
  O  O194  1  0.38192062  0.38198215  0.37377987  1
  O  O195  1  0.38105020  0.38045307  0.88056202  1
  O  O196  1  0.37340034  0.88645276  0.38211458  1
  O  O197  1  0.37693066  0.88854546  0.87666544  1
  O  O198  1  0.88015075  0.38043051  0.38451901  1
  O  O199  1  0.87898998  0.37948219  0.88005130  1
  O  O200  1  0.87309209  0.88901364  0.37658485  1
  O  O201  1  0.87130051  0.87931147  0.88411862  1
  O  O202  1  0.26347425  0.00420367  0.36890582  1
  O  O203  1  0.25947966  0.00487859  0.86799234  1
  O  O204  1  0.25418252  0.50396429  0.36935920  1
  O  O205  1  0.25622289  0.49956284  0.86851307  1
  O  O206  1  0.75814768  0.00286038  0.36913640  1
  O  O207  1  0.75577437  0.00552578  0.86723815  1
  O  O208  1  0.75439194  0.50564341  0.37091679  1
  O  O209  1  0.75443948  0.50463278  0.86904988  1
  O  O210  1  0.24540263  0.49514854  0.13140709  1
  O  O211  1  0.24347762  0.49190332  0.63042280  1
  O  O212  1  0.25779717  1.00409883  0.14176222  1
  O  O213  1  0.24630171  0.99383411  0.62859477  1
  O  O214  1  0.74879686  0.49450392  0.13185645  1
  O  O215  1  0.73627881  0.50841707  0.63282240  1
  O  O216  1  0.74406853  0.99535238  0.13058340  1
  O  O217  1  0.73784446  1.00835359  0.62899502  1
  O  O218  1  0.00585591  0.37008999  0.25579324  1
  O  O219  1  -0.00050936  0.36601919  0.75758577  1
  O  O220  1  0.00388849  0.86992875  0.25906841  1
  O  O221  1  0.00948452  0.86699509  0.74970542  1
  O  O222  1  0.50530179  0.36962100  0.25393523  1
  O  O223  1  0.50916987  0.36790793  0.75381285  1
  O  O224  1  0.51139494  0.86979809  0.24272234  1
  O  O225  1  0.51406073  0.87426735  0.75289064  1
  O  O226  1  0.49504588  0.13126707  0.24296333  1
  O  O227  1  0.50069421  0.13305166  0.74133591  1
  O  O228  1  0.49345344  0.63124021  0.24219793  1
  O  O229  1  0.49221995  0.62641601  0.74278375  1
  O  O230  1  0.99291370  0.13357672  0.25011950  1
  O  O231  1  0.99456194  0.12873992  0.74502392  1
  O  O232  1  0.99708090  0.62837018  0.23738863  1
  O  O233  1  0.99359357  0.63326477  0.74849856  1
  O  O234  1  0.37112595  0.25639355  0.00427116  1
  O  O235  1  0.36204284  0.24843280  0.49329498  1
  O  O236  1  0.36468159  0.75138566  0.00762151  1
  O  O237  1  0.37036245  0.75458953  0.50487145  1
  O  O238  1  0.86846419  0.25678352  0.00517946  1
  O  O239  1  0.86928516  0.25645729  0.50402821  1
  O  O240  1  0.87156352  0.75759386  0.00981904  1
  O  O241  1  0.86597064  0.75091151  0.50914043  1
  O  O242  1  0.13283764  0.24518960  0.49576370  1
  O  O243  1  0.13369897  0.25000585  0.99238897  1
  O  O244  1  0.13217290  0.74948652  0.49276222  1
  O  O245  1  0.13759234  0.74195191  1.00804689  1
  O  O246  1  0.63504509  0.25218987  0.49538326  1
  O  O247  1  0.63153023  0.24934536  0.99209074  1
  O  O248  1  0.63036081  0.74591077  0.49702329  1
  O  O249  1  0.62438613  0.75014717  0.98908234  1
  O  O250  1  0.49497686  0.24658356  0.12934414  1
  O  O251  1  0.50985956  0.23936542  0.63334537  1
  O  O252  1  0.49116210  0.74246729  0.13050609  1
  O  O253  1  0.49251477  0.74319269  0.62658363  1
  O  O254  1  0.99273979  0.25174567  0.13327174  1
  O  O255  1  0.99515740  0.24368298  0.63046228  1
  O  O256  1  0.98964285  0.74156159  0.12560719  1
  O  O257  1  0.98975942  0.74824455  0.63545555  1
  O  O258  1  0.00558717  0.25645460  0.36991284  1
  O  O259  1  0.00423319  0.25433040  0.86943955  1
  O  O260  1  0.01083741  0.74821519  0.37631830  1
  O  O261  1  -0.00796773  0.75265185  0.85948451  1
  O  O262  1  0.50539423  0.25548380  0.36860147  1
  O  O263  1  0.50657247  0.25407980  0.86643056  1
  O  O264  1  0.50699939  0.74350335  0.36637252  1
  O  O265  1  0.50893499  0.75184666  0.87304765  1
  O  O266  1  0.24428620  0.13284028  0.50124408  1
  O  O267  1  0.25212051  0.13362027  0.99063699  1
  O  O268  1  0.24924187  0.63204892  0.49307683  1
  O  O269  1  0.24048691  0.63168275  0.99823822  1
  O  O270  1  0.74844637  0.13795881  0.49557372  1
  O  O271  1  0.75029863  0.13205339  0.99292708  1
  O  O272  1  0.74303461  0.63482280  0.49432866  1
  O  O273  1  0.74503023  0.62702779  0.99212853  1
  O  O274  1  0.25587926  0.37020598  0.00573368  1
  O  O275  1  0.25303532  0.36534364  0.50816593  1
  O  O276  1  0.24878294  0.86055963  -0.00251797  1
  O  O277  1  0.25788059  0.86975086  0.50560184  1
  O  O278  1  0.75488143  0.37025741  0.00478960  1
  O  O279  1  0.76171981  0.36454715  0.49519747  1
  O  O280  1  0.75862470  0.87328493  0.00692017  1
  O  O281  1  0.75002398  0.86067612  0.49663414  1
  O  O282  1  0.12999636  0.49438988  0.24534855  1
  O  O283  1  0.13198154  0.49772835  0.74226193  1
  O  O284  1  0.14363536  1.00234402  0.25651800  1
  O  O285  1  0.13117665  0.99151728  0.74282589  1
  O  O286  1  0.63126059  0.49391922  0.24860595  1
  O  O287  1  0.62867802  0.49249669  0.74462279  1
  O  O288  1  0.62727237  0.99382292  0.24531704  1
  O  O289  1  0.62976594  0.99357744  0.74241215  1
  O  O290  1  0.37137094  0.00360834  0.25700111  1
  O  O291  1  0.37106638  -0.00063282  0.75682749  1
  O  O292  1  0.36842958  0.50611090  0.25566004  1
  O  O293  1  0.37016726  0.50462307  0.75517904  1
  O  O294  1  0.86920046  0.00486709  0.25749169  1
  O  O295  1  0.86998684  0.00395228  0.75281655  1
  O  O296  1  0.86695314  0.50088835  0.25834810  1
  O  O297  1  0.86901053  0.50392112  0.75460350  1
  O  O298  1  0.12011179  0.37050772  0.36972981  1
  O  O299  1  0.11778215  0.36823947  0.87364331  1
  O  O300  1  0.12762415  0.86216078  0.37295058  1
  O  O301  1  0.12627885  0.87801442  0.85814274  1
  O  O302  1  0.61936681  0.37025233  0.36893156  1
  O  O303  1  0.61888061  0.36997919  0.86547696  1
  O  O304  1  0.62909588  0.86974693  0.36161010  1
  O  O305  1  0.62403659  0.86657615  0.86738484  1
  O  O306  1  0.38173266  0.13272732  0.12968340  1
  O  O307  1  0.39159221  0.11633204  0.62592857  1
  O  O308  1  0.38274292  0.63275433  0.13062900  1
  O  O309  1  0.37907604  0.62902920  0.63030508  1
  O  O310  1  0.87423035  0.13392921  0.13299590  1
  O  O311  1  0.88202585  0.13013521  0.63081121  1
  O  O312  1  0.88159082  0.63319781  0.12382471  1
  O  O313  1  0.87501937  0.63470651  0.63357133  1
  O  O314  1  0.25645770  0.25601926  0.12003896  1
  O  O315  1  0.24398651  0.25926992  0.61628507  1
  O  O316  1  0.26054359  0.74106458  0.11275240  1
  O  O317  1  0.25595950  0.75484590  0.61939267  1
  O  O318  1  0.75559682  0.25691199  0.11993982  1
  O  O319  1  0.75708381  0.24321381  0.61406728  1
  O  O320  1  0.75683157  0.75519070  0.12426374  1
  O  O321  1  0.75733995  0.74317342  0.61605491  1
  O  O322  1  0.24347509  0.24899162  0.38467345  1
  O  O323  1  0.24619595  0.24597476  0.87844821  1
  O  O324  1  0.24439959  0.74431890  0.38027215  1
  O  O325  1  0.25630528  0.74531717  0.89246204  1
  O  O326  1  0.74454642  0.24989291  0.38426457  1
  O  O327  1  0.74586090  0.24464109  0.87956945  1
  O  O328  1  0.74248761  0.74525443  0.38318009  1
  O  O329  1  0.73905167  0.74301060  0.87576870  1
  O  O330  1  0.00297753  0.12282282  0.00355007  1
  O  O331  1  0.00576819  0.12005273  0.50655121  1
  O  O332  1  0.00685430  0.62581950  0.00994166  1
  O  O333  1  0.00329131  0.61861083  0.50680980  1
  O  O334  1  0.50104037  0.11520373  0.00439163  1
  O  O335  1  0.50368510  0.11454638  0.50671695  1
  O  O336  1  0.49761857  0.62041176  0.00979549  1
  O  O337  1  0.50733479  0.62233176  0.50734734  1
  O  O338  1  0.49763478  0.37671125  0.49186444  1
  O  O339  1  0.49396534  0.37971872  0.99463005  1
  O  O340  1  0.49457535  0.88769688  0.50644281  1
  O  O341  1  0.49741582  0.88954038  0.99856502  1
  O  O342  1  0.98971579  0.37521282  0.49397544  1
  O  O343  1  0.99249243  0.37580938  0.99353677  1
  O  O344  1  0.99638450  0.88394765  0.49746448  1
  O  O345  1  0.98557874  0.87210164  0.99699707  1
  O  O346  1  0.49359716  0.49451098  0.37451566  1
  O  O347  1  0.49363949  0.49365574  0.87971799  1
  O  O348  1  0.49293239  1.00529236  0.38512043  1
  O  O349  1  0.49347637  1.00276588  0.88150745  1
  O  O350  1  0.99291554  0.49366039  0.37576200  1
  O  O351  1  0.99186967  0.49249432  0.87548433  1
  O  O352  1  0.99080917  1.00117341  0.38108056  1
  O  O353  1  0.98931813  0.99382605  0.87468497  1
  O  O354  1  0.00038082  0.00335450  0.12047121  1
  O  O355  1  0.00580434  0.00530829  0.61965826  1
  O  O356  1  0.00424313  0.50977834  0.12410695  1
  O  O357  1  0.01241546  0.49907498  0.62645737  1
  O  O358  1  0.50314740  0.00610702  0.11624871  1
  O  O359  1  0.50979555  0.00607419  0.61603700  1
  O  O360  1  0.49805427  0.51083941  0.12074427  1
  O  O361  1  0.51210673  0.50608130  0.62481692  1
  O  O362  1  0.24460150  0.37975598  0.24461674  1
  O  O363  1  0.24877282  0.37971022  0.74165643  1
  O  O364  1  0.25284243  0.89136615  0.25509839  1
  O  O365  1  0.24374301  0.87801118  0.74368342  1
  O  O366  1  0.74502950  0.38039691  0.24559546  1
  O  O367  1  0.73722777  0.38010681  0.75580092  1
  O  O368  1  0.73913449  0.88144685  0.24404743  1
  O  O369  1  0.73711415  0.88212779  0.75431103  1
  O  O370  1  0.25967154  0.11644019  0.25403256  1
  O  O371  1  0.25353629  0.11818481  0.75343769  1
  O  O372  1  0.25466706  0.61904274  0.25469154  1
  O  O373  1  0.25631331  0.61821984  0.75284826  1
  O  O374  1  0.75645042  0.11899516  0.25148983  1
  O  O375  1  0.75614754  0.11928090  0.75442885  1
  O  O376  1  0.74987215  0.61928301  0.25720464  1
  O  O377  1  0.75513532  0.61835057  0.75737870  1
  O  O378  1  0.37654016  0.11350179  0.36818308  1
  O  O379  1  0.37014007  0.11460560  0.87036260  1
  O  O380  1  0.36875125  0.62001857  0.36874899  1
  O  O381  1  0.37457271  0.61699904  0.86817173  1
  O  O382  1  0.87411479  0.11462159  0.36895774  1
  O  O383  1  0.86961272  0.11859701  0.86790693  1
  O  O384  1  0.86747353  0.61929937  0.37483714  1
  O  O385  1  0.86903608  0.61941389  0.87011967  1
  O  O386  1  0.13035933  0.38018166  0.13039799  1
  O  O387  1  0.13546472  0.38337099  0.62687003  1
  O  O388  1  0.12785270  0.87963304  0.13038172  1
  O  O389  1  0.13186554  0.88005359  0.63172903  1
  O  O390  1  0.63195978  0.37641874  0.13178275  1
  O  O391  1  0.61961755  0.38527600  0.63555327  1
  O  O392  1  0.62902435  0.88032648  0.13321211  1
  O  O393  1  0.62022659  0.88582405  0.63388360  1
  O  O394  1  0.12158631  0.25557093  0.25580862  1
  O  O395  1  0.11758459  0.25107524  0.75654019  1
  O  O396  1  0.12625577  0.74888730  0.26220223  1
  O  O397  1  0.11544325  0.75828877  0.74103313  1
  O  O398  1  0.61991875  0.25632671  0.25468375  1
  O  O399  1  0.61951283  0.25707336  0.75310524  1
  O  O400  1  0.61929605  0.75866944  0.25485603  1
  O  O401  1  0.62492907  0.75764018  0.75741071  1
  O  O402  1  0.38079660  0.24590171  0.24473120  1
  O  O403  1  0.39112386  0.25032050  0.75427188  1
  O  O404  1  0.37740674  0.74582887  0.24387148  1
  O  O405  1  0.37448485  0.74407071  0.74365763  1
  O  O406  1  0.87997366  0.24664188  0.24664498  1
  O  O407  1  0.87948425  0.24353028  0.74517209  1
  O  O408  1  0.87252201  0.74956651  0.23801787  1
  O  O409  1  0.87900153  0.74586155  0.74409108  1
  O  O410  1  0.37699468  0.49736890  0.49056993  1
  O  O411  1  0.37863412  0.49474237  0.99581682  1
  O  O412  1  0.38326527  0.99527279  0.49264524  1
  O  O413  1  0.38207090  1.00002101  0.99082443  1
  O  O414  1  0.87197441  0.49084623  0.49666348  1
  O  O415  1  0.87622807  0.49328696  0.99283358  1
  O  O416  1  0.87958586  1.00058346  0.49243550  1
  O  O417  1  0.87228383  0.98927059  0.99312606  1
  O  O418  1  0.12224955  0.00316987  -0.00185553  1
  O  O419  1  0.12180060  0.00502277  0.50415205  1
  O  O420  1  0.12347880  0.50833418  0.00828191  1
  O  O421  1  0.12507701  0.49983533  0.51109965  1
  O  O422  1  0.61683572  0.00097010  0.00449803  1
  O  O423  1  0.61922531  -0.00218646  0.50537184  1
  O  O424  1  0.61457502  0.50246831  0.00274346  1
  O  O425  1  0.62650557  0.50521054  0.50961013  1
  O  O426  1  0.36970566  0.37070322  0.12025786  1
  O  O427  1  0.36227413  0.38177156  0.62378428  1
  O  O428  1  0.38005553  0.86119485  0.12272051  1
  O  O429  1  0.37052723  0.86969542  0.61960626  1
  O  O430  1  0.86930805  0.37037417  0.12021721  1
  O  O431  1  0.88107380  0.36794779  0.61367828  1
  O  O432  1  0.86919116  0.86750042  0.11860103  1
  O  O433  1  0.87570156  0.86136886  0.62635583  1
  O  O434  1  0.12630830  0.13278088  0.38350634  1
  O  O435  1  0.13354585  0.13187593  0.87351232  1
  O  O436  1  0.13179499  0.63302348  0.37616765  1
  O  O437  1  0.12239903  0.61871738  0.88983087  1
  O  O438  1  0.62671093  0.13491286  0.37771113  1
  O  O439  1  0.63304976  0.13117701  0.87461061  1
  O  O440  1  0.62978492  0.63150450  0.38099444  1
  O  O441  1  0.62849986  0.63413408  0.87359560  1
