# generated using pymatgen
data_V93Zn93O256
_symmetry_space_group_name_H-M   'P 1'
_cell_length_a   17.05506088
_cell_length_b   17.05540526
_cell_length_c   17.04921344
_cell_angle_alpha   90.03608758
_cell_angle_beta   90.02992200
_cell_angle_gamma   90.01456020
_symmetry_Int_Tables_number   1
_chemical_formula_structural   V93Zn93O256
_chemical_formula_sum   'V93 Zn93 O256'
_cell_volume   4959.29000799
_cell_formula_units_Z   1
loop_
 _symmetry_equiv_pos_site_id
 _symmetry_equiv_pos_as_xyz
  1  'x, y, z'
loop_
 _atom_site_type_symbol
 _atom_site_label
 _atom_site_symmetry_multiplicity
 _atom_site_fract_x
 _atom_site_fract_y
 _atom_site_fract_z
 _atom_site_occupancy
  V  V0  1  0.87573007  -0.00654436  0.88154373  1
  V  V1  1  0.24852762  0.87618879  0.12666968  1
  V  V2  1  0.25085563  0.37573408  0.12368194  1
  V  V3  1  0.75018419  0.74895296  0.50053326  1
  V  V4  1  -0.00074834  0.62646184  0.12557510  1
  V  V5  1  0.25220006  0.25136626  0.49966956  1
  V  V6  1  0.87469671  0.49942324  0.87595191  1
  V  V7  1  0.37622572  0.50004476  0.37415265  1
  V  V8  1  0.87656412  0.37497758  0.49915430  1
  V  V9  1  0.12832996  0.75045166  0.38389126  1
  V  V10  1  0.37317648  0.00026513  0.87391549  1
  V  V11  1  0.62362497  -0.00084819  0.62489371  1
  V  V12  1  0.87686630  0.50075584  0.37500907  1
  V  V13  1  0.37546054  0.75145197  0.12436758  1
  V  V14  1  0.37466518  0.37421774  -0.00072100  1
  V  V15  1  0.75161262  0.62548372  0.37455963  1
  V  V16  1  0.62580599  0.37492438  0.24925357  1
  V  V17  1  0.37623505  0.00127394  0.37867909  1
  V  V18  1  0.62201142  0.75008917  0.87229020  1
  V  V19  1  0.75087465  0.37436340  0.62485235  1
  V  V20  1  0.37555959  0.25063483  0.12467735  1
  V  V21  1  -0.00146802  0.75091674  0.75107092  1
  V  V22  1  0.37455629  0.49886037  0.87347327  1
  V  V23  1  0.62544462  0.00069782  0.12458607  1
  V  V24  1  0.12321192  0.24803347  0.87474411  1
  V  V25  1  0.00153977  0.37697715  0.37456237  1
  V  V26  1  0.25229608  0.85768169  0.62366392  1
  V  V27  1  0.75107946  0.24797406  0.49735457  1
  V  V28  1  0.87267025  0.74956473  0.62550667  1
  V  V29  1  0.50113948  0.12895148  0.62915965  1
  V  V30  1  0.12278858  0.87826038  0.74454335  1
  V  V31  1  0.74920611  0.49788049  0.75043507  1
  V  V32  1  0.75239370  0.87738495  0.12389474  1
  V  V33  1  0.37490919  0.62635846  0.24897159  1
  V  V34  1  0.49913036  -0.00008717  -0.00091438  1
  V  V35  1  0.37536359  0.63078034  0.74584162  1
  V  V36  1  0.87261752  0.12612732  0.25927939  1
  V  V37  1  0.87653528  0.24773839  0.62522137  1
  V  V38  1  0.62517119  0.50123482  0.12326362  1
  V  V39  1  0.87343657  0.62512903  0.75041936  1
  V  V40  1  0.75041723  0.00527416  0.25939362  1
  V  V41  1  0.12436259  0.49745311  0.62420916  1
  V  V42  1  -0.00064030  0.62349562  0.62470539  1
  V  V43  1  0.12213771  0.11884690  0.00153533  1
  V  V44  1  0.12531895  0.62562545  0.00044052  1
  V  V45  1  0.49874254  0.12578505  0.12447194  1
  V  V46  1  0.37459143  0.12537182  0.25182917  1
  V  V47  1  0.24860349  0.12326789  0.87536105  1
  V  V48  1  0.12527946  0.11900957  0.50678691  1
  V  V49  1  0.12675894  0.25203330  0.37532040  1
  V  V50  1  0.62560219  0.62402824  0.49961828  1
  V  V51  1  0.62445518  0.87656260  0.25039991  1
  V  V52  1  0.49837002  0.87421368  0.87333355  1
  V  V53  1  0.62390487  0.12526566  -0.00082181  1
  V  V54  1  0.74849912  0.62510088  0.87490644  1
  V  V55  1  0.50038029  0.62542919  0.12306255  1
  V  V56  1  0.75085528  0.50107804  0.24838426  1
  V  V57  1  0.87628203  0.75718869  0.12266056  1
  V  V58  1  -0.00062434  0.50019151  -0.00042535  1
  V  V59  1  0.24990780  0.62454816  0.87469007  1
  V  V60  1  0.12463369  0.50067719  0.12487129  1
  V  V61  1  0.24891040  0.49922475  0.74922816  1
  V  V62  1  0.37323194  0.87583829  -0.00025730  1
  V  V63  1  0.37232693  0.86141486  0.50451071  1
  V  V64  1  0.25063893  0.50157699  0.24923007  1
  V  V65  1  0.75130543  0.25019100  0.00030325  1
  V  V66  1  -0.00101219  0.37266339  0.87479020  1
  V  V67  1  0.50155396  0.75179762  0.24843180  1
  V  V68  1  0.12366763  0.75024962  0.87387568  1
  V  V69  1  0.49926789  0.37297626  0.87100693  1
  V  V70  1  0.49745047  0.62972649  0.62453261  1
  V  V71  1  0.75126669  0.37631064  0.12286874  1
  V  V72  1  0.25029714  0.62907599  0.38264195  1
  V  V73  1  0.87571003  0.62709884  0.24922706  1
  V  V74  1  0.87543319  0.12449551  0.74906596  1
  V  V75  1  0.62976254  0.12454378  0.49542142  1
  V  V76  1  0.50012999  0.50004951  -0.00084296  1
  V  V77  1  0.12569663  0.87568924  0.25340811  1
  V  V78  1  0.62569613  0.75087439  0.37319935  1
  V  V79  1  0.37560910  0.12673522  0.74925038  1
  V  V80  1  0.37779855  0.37538309  0.49901977  1
  V  V81  1  0.24592247  -0.00055910  0.73990695  1
  V  V82  1  0.62057079  0.37055184  0.74789214  1
  V  V83  1  0.24918326  0.75045172  0.00003162  1
  V  V84  1  0.62041525  0.24841992  0.87064022  1
  V  V85  1  0.87538645  0.87602843  0.49892340  1
  V  V86  1  0.75327519  0.75557138  -0.00126264  1
  V  V87  1  0.37982274  0.25186208  0.62919786  1
  V  V88  1  0.74789396  -0.00158721  0.75037804  1
  V  V89  1  0.12527483  0.37502990  0.24986721  1
  V  V90  1  0.62897318  0.24825330  0.37326784  1
  V  V91  1  0.50155233  0.50003448  0.49808402  1
  V  V92  1  -0.00109116  0.12518346  0.12851424  1
  Zn  Zn93  1  0.62550019  0.49864539  0.62341473  1
  Zn  Zn94  1  0.24979036  0.24880446  0.00041233  1
  Zn  Zn95  1  -0.00003316  0.24818761  0.74839065  1
  Zn  Zn96  1  0.12382313  -0.00057996  0.13064376  1
  Zn  Zn97  1  0.12739291  0.62843373  0.50356141  1
  Zn  Zn98  1  0.74949817  0.12374594  0.87660570  1
  Zn  Zn99  1  0.00204061  0.50135792  0.49943732  1
  Zn  Zn100  1  0.87509818  0.25086420  0.12744733  1
  Zn  Zn101  1  -0.00171599  0.25038028  0.25081563  1
  Zn  Zn102  1  0.49925676  -0.00050209  0.50046349  1
  Zn  Zn103  1  0.25042878  0.37546448  0.62713954  1
  Zn  Zn104  1  -0.00036483  0.75199638  0.25281850  1
  Zn  Zn105  1  0.87842484  0.00328930  0.38074162  1
  Zn  Zn106  1  -0.01005632  -0.00833767  0.00929154  1
  Zn  Zn107  1  0.24906410  0.12415185  0.37478851  1
  Zn  Zn108  1  0.00649433  0.11895085  0.62938377  1
  Zn  Zn109  1  0.87513852  0.37375927  0.00120991  1
  Zn  Zn110  1  0.50173326  0.37582464  0.37230296  1
  Zn  Zn111  1  0.24968064  0.00073498  0.25034186  1
  Zn  Zn112  1  0.74723470  0.87282768  0.62468413  1
  Zn  Zn113  1  0.12569377  0.37279014  0.74959952  1
  Zn  Zn114  1  -0.00427477  0.87103298  0.88227870  1
  Zn  Zn115  1  0.00503347  -0.00534696  0.50675516  1
  Zn  Zn116  1  0.50117366  0.25186671  0.25073033  1
  Zn  Zn117  1  0.62006793  0.87439319  0.74709845  1
  Zn  Zn118  1  0.49475498  0.75373751  0.74465100  1
  Zn  Zn119  1  0.49866829  0.87412848  0.37778778  1
  Zn  Zn120  1  0.00127007  0.87622868  0.37737367  1
  Zn  Zn121  1  0.62394038  0.62517570  -0.00138103  1
  Zn  Zn122  1  0.18876909  0.18918081  0.18730432  1
  Zn  Zn123  1  0.19176790  0.18944778  0.68811689  1
  Zn  Zn124  1  0.18713486  0.69050943  0.19116310  1
  Zn  Zn125  1  0.18466424  0.68500323  0.68913767  1
  Zn  Zn126  1  0.68870265  0.18727338  0.18674464  1
  Zn  Zn127  1  0.69089167  0.18667464  0.68582128  1
  Zn  Zn128  1  0.68841582  0.68807737  0.18582159  1
  Zn  Zn129  1  0.68494293  0.68520812  0.68652167  1
  Zn  Zn130  1  0.31348559  0.31326823  0.31218097  1
  Zn  Zn131  1  0.30910566  0.31203373  0.81233069  1
  Zn  Zn132  1  0.31178658  0.81308751  0.31498300  1
  Zn  Zn133  1  0.30915522  0.81375390  0.81211426  1
  Zn  Zn134  1  0.81221286  0.31218664  0.31211003  1
  Zn  Zn135  1  0.81013011  0.31100818  0.81346905  1
  Zn  Zn136  1  0.81179541  0.81501574  0.31173861  1
  Zn  Zn137  1  0.80889256  0.81417111  0.81048181  1
  Zn  Zn138  1  0.19025606  0.43888985  0.43872994  1
  Zn  Zn139  1  0.18691612  0.43706599  0.93754866  1
  Zn  Zn140  1  0.19513909  0.93616723  0.43706880  1
  Zn  Zn141  1  0.18456523  0.93598991  0.93424438  1
  Zn  Zn142  1  0.68902794  0.43625866  0.43579599  1
  Zn  Zn143  1  0.68608039  0.43571935  0.93662873  1
  Zn  Zn144  1  0.68865206  0.93522125  0.43877295  1
  Zn  Zn145  1  0.68678411  0.93579194  0.93607245  1
  Zn  Zn146  1  0.30916157  0.06202714  0.06375884  1
  Zn  Zn147  1  0.31228186  0.06229841  0.56077459  1
  Zn  Zn148  1  0.31350029  0.56245854  0.06174248  1
  Zn  Zn149  1  0.31421559  0.56096310  0.56386942  1
  Zn  Zn150  1  0.81097472  0.06638250  0.06757616  1
  Zn  Zn151  1  0.81148815  0.06117174  0.56482322  1
  Zn  Zn152  1  0.81241476  0.56662943  0.06026937  1
  Zn  Zn153  1  0.81290247  0.56052251  0.56258120  1
  Zn  Zn154  1  0.43939504  0.43729974  0.18753739  1
  Zn  Zn155  1  0.43922784  0.44158542  0.68528633  1
  Zn  Zn156  1  0.43759855  0.93883079  0.18829436  1
  Zn  Zn157  1  0.43530152  0.93831218  0.68592106  1
  Zn  Zn158  1  0.93715123  0.43679932  0.18724883  1
  Zn  Zn159  1  0.93794630  0.43620253  0.68905144  1
  Zn  Zn160  1  0.93904231  0.93996769  0.19380877  1
  Zn  Zn161  1  0.93932475  0.93871973  0.68322304  1
  Zn  Zn162  1  0.05954575  0.06083086  0.32122103  1
  Zn  Zn163  1  0.05995935  0.05968306  0.81282537  1
  Zn  Zn164  1  0.06339670  0.56474736  0.31237072  1
  Zn  Zn165  1  0.06148158  0.56217004  0.81092233  1
  Zn  Zn166  1  0.55961387  0.06235456  0.31269469  1
  Zn  Zn167  1  0.56022636  0.06326123  0.81197939  1
  Zn  Zn168  1  0.56344261  0.56388981  0.31080396  1
  Zn  Zn169  1  0.56195106  0.56033153  0.81037520  1
  Zn  Zn170  1  0.44402907  0.18791902  0.43883211  1
  Zn  Zn171  1  0.43709455  0.18816237  0.93733738  1
  Zn  Zn172  1  0.44012396  0.68570169  0.43500170  1
  Zn  Zn173  1  0.43623035  0.68676415  0.93613594  1
  Zn  Zn174  1  0.94287495  0.19035155  0.43801702  1
  Zn  Zn175  1  0.93683176  0.18117393  0.93734477  1
  Zn  Zn176  1  0.94208435  0.68993557  0.43842971  1
  Zn  Zn177  1  0.93683328  0.68775392  0.93856937  1
  Zn  Zn178  1  0.06222931  0.30992456  0.06203747  1
  Zn  Zn179  1  0.06091894  0.31035885  0.56301844  1
  Zn  Zn180  1  0.06165058  0.81478252  0.06352373  1
  Zn  Zn181  1  0.06156930  0.81193480  0.56548482  1
  Zn  Zn182  1  0.56235426  0.31321395  0.06134096  1
  Zn  Zn183  1  0.56247593  0.31234999  0.56013480  1
  Zn  Zn184  1  0.56449309  0.81386138  0.06022754  1
  Zn  Zn185  1  0.55985850  0.81279398  0.55874937  1
  O  O186  1  0.11777775  0.12516655  0.11856038  1
  O  O187  1  0.12860837  0.13396157  0.60987732  1
  O  O188  1  0.12041053  0.62095792  0.12053263  1
  O  O189  1  0.11907328  0.61559007  0.62501505  1
  O  O190  1  0.61852123  0.12007425  0.11901490  1
  O  O191  1  0.61867465  0.11975399  0.61957883  1
  O  O192  1  0.61842271  0.61937484  0.12304166  1
  O  O193  1  0.61725147  0.62047881  0.61807433  1
  O  O194  1  0.37780572  0.38222102  0.38016224  1
  O  O195  1  0.37950208  0.37884440  0.87808124  1
  O  O196  1  0.37327522  0.88234752  0.38735746  1
  O  O197  1  0.37744752  0.88020364  0.88061097  1
  O  O198  1  0.88058469  0.38103380  0.37850364  1
  O  O199  1  0.88303608  0.37964697  0.87678965  1
  O  O200  1  0.87566976  0.87281004  0.38753692  1
  O  O201  1  0.87301282  0.89031014  0.86938835  1
  O  O202  1  0.26486630  0.00426870  0.37207274  1
  O  O203  1  0.25551233  0.00432777  0.86623797  1
  O  O204  1  0.25604302  0.50790622  0.36812205  1
  O  O205  1  0.25413185  0.50566057  0.87019402  1
  O  O206  1  0.74977527  -0.00280856  0.36168028  1
  O  O207  1  0.75609315  0.00086707  0.86717305  1
  O  O208  1  0.75661257  0.50607025  0.36816567  1
  O  O209  1  0.75455969  0.50440959  0.87089128  1
  O  O210  1  0.24455067  0.49625260  0.12918269  1
  O  O211  1  0.24127425  0.49916442  0.63058905  1
  O  O212  1  0.24577883  0.99152570  0.12865106  1
  O  O213  1  0.25427281  0.99545328  0.63775422  1
  O  O214  1  0.74551070  0.49730876  0.12827451  1
  O  O215  1  0.74917008  0.49200634  0.63208774  1
  O  O216  1  0.74408752  0.99560164  0.13211358  1
  O  O217  1  0.73828471  0.99968443  0.63393937  1
  O  O218  1  0.00788620  0.37442389  0.25539377  1
  O  O219  1  0.00201996  0.37147261  0.76414254  1
  O  O220  1  0.01222462  0.87345748  0.25419221  1
  O  O221  1  0.00826975  0.86962729  0.75146813  1
  O  O222  1  0.50992632  0.37291665  0.25070542  1
  O  O223  1  0.51245342  0.38050169  0.75389492  1
  O  O224  1  0.50663709  0.86883634  0.25009968  1
  O  O225  1  0.49858453  0.87185260  0.75625100  1
  O  O226  1  0.49008315  0.12669645  0.24295615  1
  O  O227  1  0.49273605  0.12096526  0.73731800  1
  O  O228  1  0.49466045  0.63157034  0.24276946  1
  O  O229  1  0.49181132  0.62373126  0.74203181  1
  O  O230  1  0.99323321  0.12564176  0.24401773  1
  O  O231  1  0.98719901  0.12577301  0.75073024  1
  O  O232  1  0.99375095  0.62687048  0.24238598  1
  O  O233  1  0.99231507  0.63025849  0.74548127  1
  O  O234  1  0.37328092  0.25659909  0.00543089  1
  O  O235  1  0.37006381  0.25340649  0.50694096  1
  O  O236  1  0.36882153  0.75601484  0.00406775  1
  O  O237  1  0.37731755  0.76345236  0.49373631  1
  O  O238  1  0.86092820  0.24750533  -0.00130947  1
  O  O239  1  0.87044872  0.25440872  0.50393600  1
  O  O240  1  0.86455307  0.74508847  0.01014466  1
  O  O241  1  0.86903222  0.75494206  0.50581915  1
  O  O242  1  0.13619452  0.24726543  0.49516203  1
  O  O243  1  0.12478812  0.23836518  0.99064744  1
  O  O244  1  0.12339554  0.74950144  0.48861382  1
  O  O245  1  0.13079505  0.74353243  0.99507007  1
  O  O246  1  0.63034704  0.24350102  0.49340199  1
  O  O247  1  0.63204457  0.24622077  0.99142038  1
  O  O248  1  0.63012088  0.74420827  0.49331624  1
  O  O249  1  0.63289609  0.74843477  0.98930957  1
  O  O250  1  0.49401339  0.24340907  0.12500505  1
  O  O251  1  0.49026896  0.24108187  0.61874955  1
  O  O252  1  0.49515657  0.74600115  0.12766328  1
  O  O253  1  0.50663054  0.73438192  0.62612855  1
  O  O254  1  0.99836519  0.23852977  0.12733522  1
  O  O255  1  0.99154893  0.24437085  0.62879092  1
  O  O256  1  0.99051135  0.74463122  0.12528022  1
  O  O257  1  0.99294801  0.74304687  0.63268010  1
  O  O258  1  0.00981432  0.25992796  0.37336050  1
  O  O259  1  0.00648527  0.25572533  0.87656975  1
  O  O260  1  0.01283025  0.75245998  0.37184004  1
  O  O261  1  0.00487559  0.74944050  0.86840450  1
  O  O262  1  0.51497638  0.25392594  0.37400144  1
  O  O263  1  0.51295914  0.25586991  0.88019751  1
  O  O264  1  0.50789896  0.75016816  0.36594998  1
  O  O265  1  0.50799706  0.75463562  0.87535390  1
  O  O266  1  0.24392701  0.13660517  0.49922925  1
  O  O267  1  0.24044782  0.12612118  0.99407278  1
  O  O268  1  0.25090533  0.61864505  0.48576390  1
  O  O269  1  0.24535364  0.63020596  0.99478186  1
  O  O270  1  0.73668858  0.13152870  0.50794477  1
  O  O271  1  0.74145257  0.13401762  1.00041822  1
  O  O272  1  0.74588673  0.62934703  0.49404930  1
  O  O273  1  0.74670080  0.63712026  0.99319701  1
  O  O274  1  0.25681120  0.37452716  0.00565670  1
  O  O275  1  0.25829353  0.36628541  0.50240949  1
  O  O276  1  0.25352623  0.86980950  0.00458305  1
  O  O277  1  0.26312775  0.87886694  0.51055109  1
  O  O278  1  0.75027250  0.36598103  0.00369014  1
  O  O279  1  0.75674913  0.36911454  0.50505602  1
  O  O280  1  0.74430693  0.86313981  0.00650923  1
  O  O281  1  0.75663594  0.86584454  0.50236212  1
  O  O282  1  0.13096088  0.49560453  0.24339211  1
  O  O283  1  0.13052794  0.50024344  0.74093530  1
  O  O284  1  0.12810031  0.98844458  0.25533722  1
  O  O285  1  0.13449539  0.98958712  0.75798720  1
  O  O286  1  0.63188090  0.49631996  0.24352630  1
  O  O287  1  0.63177130  0.48776241  0.74980830  1
  O  O288  1  0.63106699  0.99820447  0.24452773  1
  O  O289  1  0.63139268  1.00198624  0.74208542  1
  O  O290  1  0.37595175  0.00913099  0.25800642  1
  O  O291  1  0.36593265  0.00591064  0.75492011  1
  O  O292  1  0.37059118  0.50652425  0.25349530  1
  O  O293  1  0.36931017  0.50783807  0.75502211  1
  O  O294  1  0.86611923  0.00761197  0.25405750  1
  O  O295  1  0.86497510  0.00630996  0.75631449  1
  O  O296  1  0.86964037  0.50696618  0.25431428  1
  O  O297  1  0.86919898  0.50481252  0.75652938  1
  O  O298  1  0.12247322  0.37253508  0.36986150  1
  O  O299  1  0.11650743  0.36513080  0.87717969  1
  O  O300  1  0.13104758  0.86634756  0.37012123  1
  O  O301  1  0.12813550  0.86644440  0.86040765  1
  O  O302  1  0.62538185  0.36704202  0.36760924  1
  O  O303  1  0.62021151  0.36719905  0.86675134  1
  O  O304  1  0.62270474  0.86849892  0.36916308  1
  O  O305  1  0.61707715  0.86645837  0.87338914  1
  O  O306  1  0.37893781  0.12925361  0.13179594  1
  O  O307  1  0.38252270  0.13210969  0.62761978  1
  O  O308  1  0.37993120  0.63169235  0.12919425  1
  O  O309  1  0.38435299  0.61805951  0.63484830  1
  O  O310  1  0.88422232  0.12621196  0.13488643  1
  O  O311  1  0.87166680  0.13089462  0.63524350  1
  O  O312  1  0.87901972  0.63463341  0.12986088  1
  O  O313  1  0.87842873  0.62906875  0.63184461  1
  O  O314  1  0.25702869  0.25823068  0.12274609  1
  O  O315  1  0.26124851  0.25209676  0.61532860  1
  O  O316  1  0.25609539  0.75499575  0.11935108  1
  O  O317  1  0.25066604  0.75867280  0.63000832  1
  O  O318  1  0.74794190  0.25666436  0.11394694  1
  O  O319  1  0.75629569  0.25575328  0.61797018  1
  O  O320  1  0.75641696  0.75557989  0.11770205  1
  O  O321  1  0.75442260  0.74902311  0.61922982  1
  O  O322  1  0.24722874  0.25043720  0.38576126  1
  O  O323  1  0.23962476  0.24260715  0.87658931  1
  O  O324  1  0.24227645  0.73808047  0.36871340  1
  O  O325  1  0.24407630  0.74384735  0.88063257  1
  O  O326  1  0.73742262  0.25455609  0.38164578  1
  O  O327  1  0.73845738  0.24871881  0.88364610  1
  O  O328  1  0.74500310  0.74391597  0.37941995  1
  O  O329  1  0.74296970  0.74695845  0.88061720  1
  O  O330  1  0.00562550  0.12031617  0.00978122  1
  O  O331  1  0.01905141  0.12886244  0.50038632  1
  O  O332  1  0.00601251  0.61990189  0.00519605  1
  O  O333  1  0.00264479  0.62181995  0.51006113  1
  O  O334  1  0.50406071  0.11854378  0.00419274  1
  O  O335  1  0.51180125  0.12334052  0.51191068  1
  O  O336  1  0.49930323  0.61795925  0.00542071  1
  O  O337  1  0.50476917  0.62054218  0.50581055  1
  O  O338  1  0.49546997  0.38240039  0.49720491  1
  O  O339  1  0.49424087  0.38087668  0.99268741  1
  O  O340  1  0.48517996  0.87895534  0.50021107  1
  O  O341  1  0.49315991  0.88106082  0.99444105  1
  O  O342  1  0.99346156  0.37678937  0.49296072  1
  O  O343  1  0.99897752  0.38017196  0.99068931  1
  O  O344  1  0.98687365  0.87203711  0.50206814  1
  O  O345  1  1.01108404  0.88295782  0.99332013  1
  O  O346  1  0.49347022  0.50234506  0.38002549  1
  O  O347  1  0.49398775  0.49335606  0.87915991  1
  O  O348  1  0.48964664  0.99573527  0.37713125  1
  O  O349  1  0.49310376  0.99510984  0.87954144  1
  O  O350  1  0.99458017  0.49514327  0.37569529  1
  O  O351  1  0.99591946  0.49218380  0.87963217  1
  O  O352  1  0.99692292  0.99389073  0.38915515  1
  O  O353  1  0.98195950  0.99966431  0.87443831  1
  O  O354  1  0.00263383  0.01191769  0.12660728  1
  O  O355  1  -0.00201844  0.00678266  0.61832470  1
  O  O356  1  0.00516818  0.50581620  0.11920859  1
  O  O357  1  0.00820515  0.50478820  0.62669866  1
  O  O358  1  0.50512710  0.00521652  0.11823353  1
  O  O359  1  0.50888710  0.00977683  0.62451464  1
  O  O360  1  0.50501934  0.50594847  0.11899185  1
  O  O361  1  0.50336411  0.51062374  0.61633704  1
  O  O362  1  0.24570190  0.38232320  0.24360131  1
  O  O363  1  0.24639630  0.38382430  0.74825724  1
  O  O364  1  0.24284682  0.87498589  0.24457039  1
  O  O365  1  0.24515319  0.88079998  0.74176237  1
  O  O366  1  0.74575161  0.38231940  0.24300688  1
  O  O367  1  0.74173794  0.37868271  0.74536147  1
  O  O368  1  0.74381572  0.88466341  0.24377787  1
  O  O369  1  0.74417204  0.88713200  0.74644241  1
  O  O370  1  0.26338441  0.12463630  0.25161224  1
  O  O371  1  0.25404176  0.11647485  0.75479545  1
  O  O372  1  0.25635786  0.61990177  0.25603155  1
  O  O373  1  0.25681564  0.61916589  0.75507002  1
  O  O374  1  0.76024496  0.11542343  0.24173929  1
  O  O375  1  0.75651582  0.11452192  0.75137033  1
  O  O376  1  0.75531387  0.62036229  0.25473947  1
  O  O377  1  0.75423927  0.61866513  0.75557885  1
  O  O378  1  0.37823809  0.12027610  0.36775792  1
  O  O379  1  0.36985933  0.12077469  0.86960914  1
  O  O380  1  0.36853623  0.62098917  0.36843124  1
  O  O381  1  0.36951439  0.61767395  0.86801256  1
  O  O382  1  0.88203524  0.12501478  0.36337984  1
  O  O383  1  0.87032988  0.11535396  0.86481728  1
  O  O384  1  0.87079395  0.62152149  0.36973870  1
  O  O385  1  0.86876036  0.61985619  0.86953510  1
  O  O386  1  0.13002862  0.38088261  0.12840996  1
  O  O387  1  0.12538787  0.38398203  0.62839925  1
  O  O388  1  0.13085357  0.87438716  0.13723338  1
  O  O389  1  0.13440514  0.86844625  0.63769300  1
  O  O390  1  0.63109967  0.38167232  0.12879940  1
  O  O391  1  0.63072616  0.37327790  0.63283438  1
  O  O392  1  0.63072906  0.88159866  0.13014593  1
  O  O393  1  0.62277583  0.88749854  0.62434018  1
  O  O394  1  0.12697291  0.25778409  0.25792760  1
  O  O395  1  0.12337490  0.24808176  0.76322874  1
  O  O396  1  0.12441422  0.75992097  0.25945599  1
  O  O397  1  0.11846123  0.75595737  0.75493695  1
  O  O398  1  0.62677228  0.25397185  0.25776354  1
  O  O399  1  0.63312646  0.25865527  0.75910362  1
  O  O400  1  0.62203780  0.75641791  0.25332602  1
  O  O401  1  0.62400710  0.75155052  0.76217414  1
  O  O402  1  0.37741964  0.24187306  0.24490451  1
  O  O403  1  0.36558112  0.24333906  0.73665988  1
  O  O404  1  0.38094802  0.74643253  0.24370894  1
  O  O405  1  0.37493481  0.73439880  0.75793345  1
  O  O406  1  0.87529472  0.24041729  0.24815963  1
  O  O407  1  0.87151317  0.23932766  0.74589094  1
  O  O408  1  0.87400075  0.74483059  0.23988359  1
  O  O409  1  0.87749189  0.74480948  0.74598806  1
  O  O410  1  0.38123558  0.49471338  0.49386988  1
  O  O411  1  0.37980972  0.49411006  0.99338631  1
  O  O412  1  0.37742026  0.99826678  0.49110164  1
  O  O413  1  0.37911758  0.99544970  0.99423856  1
  O  O414  1  0.87596965  0.49266835  0.49277285  1
  O  O415  1  0.88169731  0.50083585  0.99310706  1
  O  O416  1  0.86672955  0.98641080  0.49944420  1
  O  O417  1  0.86886796  1.00775930  0.98415873  1
  O  O418  1  0.12437320  0.01323473  -0.00134610  1
  O  O419  1  0.13515793  0.01819300  0.49593976  1
  O  O420  1  0.11981616  0.50639482  0.00515918  1
  O  O421  1  0.12484963  0.50162192  0.51262460  1
  O  O422  1  0.61935775  0.00506257  0.00395490  1
  O  O423  1  0.62618490  0.00747363  0.50811752  1
  O  O424  1  0.61823667  0.50125518  0.00482051  1
  O  O425  1  0.62071897  0.50674213  0.49840266  1
  O  O426  1  0.37053903  0.37131586  0.11941803  1
  O  O427  1  0.37714224  0.36671509  0.61939222  1
  O  O428  1  0.36995867  0.87062714  0.11891147  1
  O  O429  1  0.36865974  0.87794190  0.61227526  1
  O  O430  1  0.86791176  0.37183112  0.12116878  1
  O  O431  1  0.87077344  0.36845005  0.62036319  1
  O  O432  1  0.86991025  0.86426256  0.13320335  1
  O  O433  1  0.87076740  0.86661513  0.61742216  1
  O  O434  1  0.12914501  0.13459765  0.38513389  1
  O  O435  1  0.12645426  0.13004186  0.88176955  1
  O  O436  1  0.13397262  0.63194933  0.37567311  1
  O  O437  1  0.13006212  0.62942290  0.88007104  1
  O  O438  1  0.61770787  0.13284711  0.38640527  1
  O  O439  1  0.62446832  0.13286200  0.87936185  1
  O  O440  1  0.63209423  0.63089692  0.37872861  1
  O  O441  1  0.62932302  0.63331543  0.87468406  1
