# generated using pymatgen
data_V93Zn93O256
_symmetry_space_group_name_H-M   'P 1'
_cell_length_a   17.04947386
_cell_length_b   17.05245346
_cell_length_c   17.05364485
_cell_angle_alpha   89.98538971
_cell_angle_beta   89.96307389
_cell_angle_gamma   89.98936524
_symmetry_Int_Tables_number   1
_chemical_formula_structural   V93Zn93O256
_chemical_formula_sum   'V93 Zn93 O256'
_cell_volume   4958.09628779
_cell_formula_units_Z   1
loop_
 _symmetry_equiv_pos_site_id
 _symmetry_equiv_pos_as_xyz
  1  'x, y, z'
loop_
 _atom_site_type_symbol
 _atom_site_label
 _atom_site_symmetry_multiplicity
 _atom_site_fract_x
 _atom_site_fract_y
 _atom_site_fract_z
 _atom_site_occupancy
  V  V0  1  -0.00396294  0.62659415  0.12614628  1
  V  V1  1  -0.00675420  0.49405267  0.00146868  1
  V  V2  1  0.37354140  0.87356505  -0.00008922  1
  V  V3  1  0.50173606  0.24981890  0.74862654  1
  V  V4  1  0.87672312  0.12351195  0.74988338  1
  V  V5  1  0.88643986  0.49345486  0.37878951  1
  V  V6  1  0.75514112  0.37431007  0.62128382  1
  V  V7  1  0.74852535  0.49968443  0.25079681  1
  V  V8  1  0.00751672  -0.00077122  0.00411645  1
  V  V9  1  0.25210155  0.37409278  0.62553020  1
  V  V10  1  0.37687795  0.12574837  0.74975672  1
  V  V11  1  0.87470267  0.49538859  0.87658742  1
  V  V12  1  0.62467713  0.62587774  0.49952588  1
  V  V13  1  0.62688705  0.87604544  0.74872163  1
  V  V14  1  0.00730866  0.12127620  0.12467186  1
  V  V15  1  0.74907959  0.62313395  0.37408281  1
  V  V16  1  0.12247436  0.74941778  0.87344127  1
  V  V17  1  0.37557626  0.50041914  0.37445743  1
  V  V18  1  0.37617317  0.24970233  0.62507393  1
  V  V19  1  0.00146473  0.12121723  0.62637287  1
  V  V20  1  0.37106355  0.37053543  -0.00035221  1
  V  V21  1  0.75137651  0.12513329  0.87587093  1
  V  V22  1  0.12327794  0.62270623  -0.00058802  1
  V  V23  1  0.37446246  0.74865198  0.62506267  1
  V  V24  1  0.49910719  0.62516333  0.62462444  1
  V  V25  1  0.24859131  0.25057546  0.49954060  1
  V  V26  1  0.37255582  0.62689075  0.24761471  1
  V  V27  1  0.25075645  0.49963302  0.75078992  1
  V  V28  1  -0.00262303  0.37350656  0.87875258  1
  V  V29  1  0.62752021  0.12696605  0.00003899  1
  V  V30  1  0.62454057  0.75109664  0.37370769  1
  V  V31  1  0.12626371  0.37431222  0.75396526  1
  V  V32  1  0.75173096  0.75149666  0.50117016  1
  V  V33  1  0.24762637  0.62640406  0.37303113  1
  V  V34  1  0.50077502  0.25047795  0.25068032  1
  V  V35  1  -0.00202425  0.75619193  0.25333362  1
  V  V36  1  0.87606834  0.25432710  0.11911953  1
  V  V37  1  0.50060944  -0.00011665  0.00004288  1
  V  V38  1  0.12518339  0.12790353  0.49984898  1
  V  V39  1  0.37604296  0.87638380  0.49822628  1
  V  V40  1  0.37454344  0.12563746  0.25039463  1
  V  V41  1  0.25109829  0.12870887  0.88195803  1
  V  V42  1  0.00068975  0.24664049  0.75426984  1
  V  V43  1  0.62519485  0.25194570  0.37423161  1
  V  V44  1  0.11917564  0.76039267  0.37391875  1
  V  V45  1  0.25067666  -0.00063635  0.74967782  1
  V  V46  1  0.62323558  0.62367658  -0.00065026  1
  V  V47  1  0.12959739  0.24831343  0.88496119  1
  V  V48  1  0.37391612  0.50040259  0.87473907  1
  V  V49  1  0.24871758  0.36997548  0.12246028  1
  V  V50  1  -0.00106267  0.61989297  0.62367571  1
  V  V51  1  0.49889838  0.50003536  0.00080766  1
  V  V52  1  0.24356007  -0.00162232  0.24591485  1
  V  V53  1  0.11947792  0.61962962  0.49844329  1
  V  V54  1  0.50264389  0.00121671  0.50090427  1
  V  V55  1  0.75419849  0.25102662  0.49898339  1
  V  V56  1  0.87587609  0.12542012  0.24930334  1
  V  V57  1  0.24887828  0.50029655  0.24794615  1
  V  V58  1  0.75419159  0.37567455  0.11849575  1
  V  V59  1  0.74957685  0.75018462  0.00064037  1
  V  V60  1  0.24933116  0.74976174  0.00270463  1
  V  V61  1  0.62339601  0.87586048  0.24956086  1
  V  V62  1  0.49944357  0.74955711  0.74911112  1
  V  V63  1  0.12438647  0.49939704  0.62424327  1
  V  V64  1  0.62421983  0.49982403  0.12397670  1
  V  V65  1  0.37557222  0.00035978  0.87450320  1
  V  V66  1  0.24799391  0.75041650  0.49931144  1
  V  V67  1  0.88271405  -0.00482279  0.37418392  1
  V  V68  1  0.24638199  0.13129967  0.37548784  1
  V  V69  1  0.75080261  0.12534575  0.37468411  1
  V  V70  1  0.00283816  0.25329086  0.25499302  1
  V  V71  1  0.87654772  -0.00062077  0.87629406  1
  V  V72  1  0.74896696  0.87456040  0.12299348  1
  V  V73  1  0.12623462  -0.00062373  0.62459648  1
  V  V74  1  0.37463481  0.25057252  0.12272152  1
  V  V75  1  -0.00090766  0.87406151  0.87525796  1
  V  V76  1  0.62532236  0.49985954  0.62347242  1
  V  V77  1  0.50080390  0.12600882  0.12532903  1
  V  V78  1  0.62603382  0.37364682  0.74966275  1
  V  V79  1  0.49891238  0.49962067  0.49800195  1
  V  V80  1  0.74950700  0.62369760  0.87401076  1
  V  V81  1  0.74985901  0.00041343  0.24963711  1
  V  V82  1  0.24876586  0.87506652  0.62544525  1
  V  V83  1  0.49994995  0.87460604  0.87456598  1
  V  V84  1  0.62539391  0.00183432  0.12547828  1
  V  V85  1  0.12313279  0.37283037  0.25554458  1
  V  V86  1  0.75036271  0.49934884  0.74912450  1
  V  V87  1  0.75030016  -0.00119472  0.74951450  1
  V  V88  1  0.62426863  0.74900321  0.87459361  1
  V  V89  1  0.87516422  0.62492840  0.74871875  1
  V  V90  1  0.88296623  0.87326333  0.49531429  1
  V  V91  1  0.62675039  0.24994235  0.87454049  1
  V  V92  1  0.49720164  0.75116785  0.24868879  1
  Zn  Zn93  1  -0.00230543  0.74952828  0.74928684  1
  Zn  Zn94  1  0.12235257  0.49709350  0.12487697  1
  Zn  Zn95  1  0.62610132  0.12378156  0.50252254  1
  Zn  Zn96  1  0.37647038  0.37389973  0.49828305  1
  Zn  Zn97  1  0.13277814  0.12242590  0.00711204  1
  Zn  Zn98  1  0.06315815  0.31165669  0.41923161  1
  Zn  Zn99  1  0.87802705  0.24927569  0.62432980  1
  Zn  Zn100  1  0.89569781  0.37841025  0.49849595  1
  Zn  Zn101  1  0.75502394  0.25430439  -0.00288582  1
  Zn  Zn102  1  0.24892120  0.62492297  0.87333299  1
  Zn  Zn103  1  0.62234763  0.37557946  0.24788338  1
  Zn  Zn104  1  0.87498576  0.62541817  0.25177361  1
  Zn  Zn105  1  0.62810575  0.00089501  0.62395078  1
  Zn  Zn106  1  0.87503096  0.87304734  0.00177620  1
  Zn  Zn107  1  0.12367155  0.87395482  0.74790406  1
  Zn  Zn108  1  0.37629175  0.00214041  0.37370316  1
  Zn  Zn109  1  0.50018966  0.87779180  0.37421309  1
  Zn  Zn110  1  0.49831405  0.37529310  0.37416622  1
  Zn  Zn111  1  0.37219039  0.75229160  0.12562140  1
  Zn  Zn112  1  0.37335424  0.62490229  0.74980301  1
  Zn  Zn113  1  0.00487723  -0.00505918  0.49660566  1
  Zn  Zn114  1  0.87236903  0.75120607  0.12712949  1
  Zn  Zn115  1  0.87785173  0.75127497  0.62536880  1
  Zn  Zn116  1  0.11395772  0.88436035  0.24333162  1
  Zn  Zn117  1  0.50148396  0.37426699  0.87549470  1
  Zn  Zn118  1  0.24195818  0.88479528  0.11908882  1
  Zn  Zn119  1  0.50378140  0.12452621  0.62490757  1
  Zn  Zn120  1  0.49652166  0.62514119  0.12386473  1
  Zn  Zn121  1  0.75242448  0.87652103  0.62485500  1
  Zn  Zn122  1  0.18775210  0.19013496  0.19099198  1
  Zn  Zn123  1  0.18866055  0.18668866  0.69096147  1
  Zn  Zn124  1  0.18158190  0.69037170  0.18719327  1
  Zn  Zn125  1  0.18790760  0.68522782  0.68756090  1
  Zn  Zn126  1  0.68929630  0.18949304  0.18762336  1
  Zn  Zn127  1  0.68789041  0.18468779  0.68564167  1
  Zn  Zn128  1  0.68472282  0.68625820  0.18616780  1
  Zn  Zn129  1  0.68702321  0.68792049  0.68667878  1
  Zn  Zn130  1  0.31279276  0.31374892  0.31146781  1
  Zn  Zn131  1  0.31301811  0.31160855  0.81259632  1
  Zn  Zn132  1  0.31007048  0.81336163  0.31455916  1
  Zn  Zn133  1  0.31138757  0.81197469  0.81330223  1
  Zn  Zn134  1  0.81459045  0.31501563  0.30830096  1
  Zn  Zn135  1  0.81434556  0.31149310  0.81170194  1
  Zn  Zn136  1  0.81275784  0.81239849  0.31130763  1
  Zn  Zn137  1  0.81293419  0.81123332  0.81278683  1
  Zn  Zn138  1  0.19284713  0.44059926  0.43871258  1
  Zn  Zn139  1  0.18651840  0.43752669  0.93845313  1
  Zn  Zn140  1  0.19029693  0.94268884  0.43487029  1
  Zn  Zn141  1  0.18726087  0.93690129  0.93506169  1
  Zn  Zn142  1  0.68861314  0.43625910  0.43712145  1
  Zn  Zn143  1  0.68751645  0.43721137  0.93745509  1
  Zn  Zn144  1  0.69009266  0.93638602  0.43578655  1
  Zn  Zn145  1  0.68728556  0.93762673  0.93641491  1
  Zn  Zn146  1  0.31597510  0.06193068  0.06389570  1
  Zn  Zn147  1  0.31400917  0.06369503  0.56282726  1
  Zn  Zn148  1  0.31116512  0.56121968  0.06411088  1
  Zn  Zn149  1  0.31108763  0.56269885  0.56102474  1
  Zn  Zn150  1  0.81713380  0.06319084  0.06164155  1
  Zn  Zn151  1  0.81444345  0.06069469  0.56237754  1
  Zn  Zn152  1  0.81193899  0.56381648  0.06216199  1
  Zn  Zn153  1  0.81460518  0.56172970  0.55918915  1
  Zn  Zn154  1  0.43740225  0.43753328  0.18818091  1
  Zn  Zn155  1  0.43875875  0.43603621  0.68714782  1
  Zn  Zn156  1  0.43184411  0.93751450  0.18522224  1
  Zn  Zn157  1  0.43860914  0.93734202  0.68564511  1
  Zn  Zn158  1  0.93625928  0.43801041  0.19085471  1
  Zn  Zn159  1  0.93925661  0.43687619  0.69059134  1
  Zn  Zn160  1  0.93410057  0.93728544  0.18464886  1
  Zn  Zn161  1  0.93670007  0.93545433  0.68539139  1
  Zn  Zn162  1  0.06364090  0.06886249  0.31350998  1
  Zn  Zn163  1  0.06592621  0.06114964  0.81414962  1
  Zn  Zn164  1  0.06479849  0.56408280  0.30986381  1
  Zn  Zn165  1  0.06018488  0.56067924  0.81174448  1
  Zn  Zn166  1  0.56191117  0.06392119  0.31576875  1
  Zn  Zn167  1  0.56393760  0.06301775  0.81191049  1
  Zn  Zn168  1  0.56114461  0.56479850  0.31126923  1
  Zn  Zn169  1  0.56067819  0.56103201  0.81147790  1
  Zn  Zn170  1  0.43594796  0.18651057  0.43785657  1
  Zn  Zn171  1  0.44056395  0.18851403  0.93609398  1
  Zn  Zn172  1  0.43675846  0.68758201  0.43559545  1
  Zn  Zn173  1  0.43678398  0.68606847  0.93697352  1
  Zn  Zn174  1  0.93473202  0.18137437  0.44053446  1
  Zn  Zn175  1  0.94034910  0.18463463  0.93909324  1
  Zn  Zn176  1  0.93627142  0.68255144  0.43482768  1
  Zn  Zn177  1  0.93376710  0.68560138  0.93868735  1
  Zn  Zn178  1  0.06226811  0.31085481  0.06672830  1
  Zn  Zn179  1  0.06469974  0.30954262  0.57804354  1
  Zn  Zn180  1  0.06345038  0.81438969  0.06661912  1
  Zn  Zn181  1  0.06200775  0.80832733  0.56331442  1
  Zn  Zn182  1  0.56309440  0.31441596  0.06167736  1
  Zn  Zn183  1  0.56336092  0.31308812  0.56096846  1
  Zn  Zn184  1  0.56242716  0.81230618  0.06303605  1
  Zn  Zn185  1  0.56368302  0.81474757  0.56413913  1
  O  O186  1  0.11179969  0.13384497  0.12369664  1
  O  O187  1  0.12246182  0.11919566  0.62044882  1
  O  O188  1  0.11440179  0.62412683  0.11425808  1
  O  O189  1  0.11908884  0.62025969  0.61764817  1
  O  O190  1  0.62062917  0.12076012  0.12065683  1
  O  O191  1  0.62209370  0.12012198  0.62028362  1
  O  O192  1  0.62256125  0.61731664  0.11650713  1
  O  O193  1  0.61959191  0.61946389  0.61907164  1
  O  O194  1  0.37572694  0.38485565  0.37653145  1
  O  O195  1  0.37414624  0.38291792  0.88372130  1
  O  O196  1  0.37473405  0.87551125  0.38965574  1
  O  O197  1  0.38080746  0.88061474  0.87975865  1
  O  O198  1  0.87167386  0.38964581  0.37374593  1
  O  O199  1  0.88404835  0.38239889  0.86878246  1
  O  O200  1  0.86822551  0.88545031  0.38211241  1
  O  O201  1  0.88482680  0.87942963  0.87691244  1
  O  O202  1  0.25554308  0.01265791  0.36681974  1
  O  O203  1  0.25622707  0.00680352  0.86945537  1
  O  O204  1  0.25548636  0.50802362  0.36748498  1
  O  O205  1  0.25814447  0.49955661  0.87028996  1
  O  O206  1  0.75763107  0.00599156  0.36829019  1
  O  O207  1  0.75636013  0.00542364  0.87050799  1
  O  O208  1  0.75053877  0.50404946  0.36516834  1
  O  O209  1  0.75417583  0.50415069  0.86899722  1
  O  O210  1  0.24768002  0.48855614  0.13051259  1
  O  O211  1  0.24496000  0.49472891  0.63090790  1
  O  O212  1  0.25184158  1.00723808  0.14204712  1
  O  O213  1  0.24612449  0.99473961  0.63004492  1
  O  O214  1  0.74696646  0.49484149  0.13145896  1
  O  O215  1  0.74570541  0.49300945  0.62813141  1
  O  O216  1  0.74486579  0.99675049  0.13010090  1
  O  O217  1  0.75000107  0.99790405  0.63456046  1
  O  O218  1  0.01078437  0.36563211  0.24269943  1
  O  O219  1  0.00746151  0.36824883  0.75741817  1
  O  O220  1  -0.00294461  0.86089114  0.24445705  1
  O  O221  1  0.00186672  0.87210781  0.76265950  1
  O  O222  1  0.50221357  0.36639452  0.25227472  1
  O  O223  1  0.50904341  0.36853079  0.75081480  1
  O  O224  1  0.50330151  0.86786165  0.25027622  1
  O  O225  1  0.50497333  0.86934887  0.75562834  1
  O  O226  1  0.49511794  0.13016425  0.24423358  1
  O  O227  1  0.49365803  0.13135970  0.75036841  1
  O  O228  1  0.49276252  0.63609356  0.24893372  1
  O  O229  1  0.49854062  0.63136394  0.74252078  1
  O  O230  1  0.99663073  0.13211948  0.24181699  1
  O  O231  1  0.99624327  0.12677389  0.74751022  1
  O  O232  1  1.00114846  0.63246281  0.23857254  1
  O  O233  1  0.99374503  0.62510742  0.74211246  1
  O  O234  1  0.38225142  0.26307039  0.00495213  1
  O  O235  1  0.36793020  0.25106832  0.50759183  1
  O  O236  1  0.36456925  0.75415004  -0.00292411  1
  O  O237  1  0.36934447  0.75696879  0.50447937  1
  O  O238  1  0.87579880  0.24478701  0.01484083  1
  O  O239  1  0.86358268  0.25398952  0.49967863  1
  O  O240  1  0.86428356  0.75086903  0.00245151  1
  O  O241  1  0.86660734  0.75545769  0.49566737  1
  O  O242  1  0.13222236  0.24412011  0.50140739  1
  O  O243  1  0.12074412  0.24746515  0.98769781  1
  O  O244  1  0.12859197  0.74153697  0.49221516  1
  O  O245  1  0.12949609  0.74176074  0.99158674  1
  O  O246  1  0.63643363  0.24987108  0.49099771  1
  O  O247  1  0.62729923  0.24402449  0.99352346  1
  O  O248  1  0.63223750  0.74648578  0.49444899  1
  O  O249  1  0.62816371  0.74395416  0.99338332  1
  O  O250  1  0.49568434  0.24462659  0.13016438  1
  O  O251  1  0.49477998  0.24927257  0.63078538  1
  O  O252  1  0.49779898  0.74949645  0.13722139  1
  O  O253  1  0.49471076  0.74491730  0.62944450  1
  O  O254  1  0.99282149  0.24307599  0.13261613  1
  O  O255  1  0.99925431  0.23867174  0.63806035  1
  O  O256  1  0.99792861  0.74038931  0.13196826  1
  O  O257  1  1.00005098  0.73495579  0.62888588  1
  O  O258  1  -0.00530570  0.24153648  0.35940058  1
  O  O259  1  0.00842285  0.25318405  0.87264429  1
  O  O260  1  0.00811013  0.74070404  0.36470804  1
  O  O261  1  0.00683540  0.75696571  0.87800413  1
  O  O262  1  0.50996879  0.24869544  0.37052548  1
  O  O263  1  0.50837068  0.25245159  0.86718082  1
  O  O264  1  0.50486779  0.75207008  0.36434376  1
  O  O265  1  0.50451972  0.75479216  0.86952205  1
  O  O266  1  0.24606722  0.13022344  0.49379491  1
  O  O267  1  0.25070982  0.11739828  0.98657738  1
  O  O268  1  0.24059960  0.63189588  0.49448428  1
  O  O269  1  0.23853141  0.62970202  0.99809146  1
  O  O270  1  0.75230647  0.13524846  0.49358906  1
  O  O271  1  0.74485120  0.12596914  0.99393113  1
  O  O272  1  0.74413692  0.63271838  0.49473366  1
  O  O273  1  0.74279775  0.62872401  0.99311079  1
  O  O274  1  0.25959491  0.38150133  0.01046878  1
  O  O275  1  0.25059998  0.36866971  0.50799559  1
  O  O276  1  0.25451828  0.86622619  -0.00328512  1
  O  O277  1  0.25740948  0.87097639  0.50509917  1
  O  O278  1  0.74895132  0.37573518  0.01397150  1
  O  O279  1  0.74994584  0.36724446  0.50919300  1
  O  O280  1  0.74804695  0.86844776  0.00530488  1
  O  O281  1  0.75850247  0.86448276  0.49904721  1
  O  O282  1  0.13003112  0.49141365  0.24610936  1
  O  O283  1  0.13090990  0.49362930  0.74679646  1
  O  O284  1  0.13964272  1.00074612  0.25909638  1
  O  O285  1  0.13342227  0.99786036  0.74369318  1
  O  O286  1  0.63332509  0.50061621  0.24401062  1
  O  O287  1  0.63108013  0.49469355  0.74349805  1
  O  O288  1  0.62966409  0.99666152  0.24514787  1
  O  O289  1  0.63245937  0.99258973  0.75249986  1
  O  O290  1  0.36635071  0.00867017  0.25141631  1
  O  O291  1  0.37129400  0.00462600  0.75568565  1
  O  O292  1  0.36887167  0.50699161  0.25421495  1
  O  O293  1  0.37070796  0.49840487  0.75987012  1
  O  O294  1  0.86959777  0.00452237  0.25617115  1
  O  O295  1  0.87094953  0.00412107  0.75702676  1
  O  O296  1  0.86384775  0.50202514  0.25883697  1
  O  O297  1  0.86860230  0.50520492  0.75587041  1
  O  O298  1  0.13340921  0.37878226  0.36065633  1
  O  O299  1  0.12049729  0.36684238  0.87265603  1
  O  O300  1  0.12884845  0.86273248  0.37389447  1
  O  O301  1  0.11595734  0.86534790  0.87474386  1
  O  O302  1  0.62519312  0.36219034  0.37229020  1
  O  O303  1  0.62626036  0.36869404  0.86751547  1
  O  O304  1  0.62451448  0.86821154  0.36648644  1
  O  O305  1  0.61857827  0.86851026  0.86988325  1
  O  O306  1  0.38189265  0.13157804  0.12896251  1
  O  O307  1  0.37624768  0.13204652  0.63326631  1
  O  O308  1  0.37562706  0.62914230  0.13200733  1
  O  O309  1  0.38093661  0.63146279  0.62484896  1
  O  O310  1  0.88370988  0.13296865  0.13141367  1
  O  O311  1  0.88308614  0.12502798  0.63211395  1
  O  O312  1  0.88552387  0.62646127  0.12674221  1
  O  O313  1  0.88406017  0.62299070  0.62842129  1
  O  O314  1  0.25763692  0.26195784  0.13089519  1
  O  O315  1  0.25533009  0.25445584  0.62134757  1
  O  O316  1  0.24829707  0.74774497  0.10933046  1
  O  O317  1  0.25365654  0.75456198  0.61894760  1
  O  O318  1  0.75882121  0.25848483  0.12558554  1
  O  O319  1  0.75217080  0.25806076  0.61662355  1
  O  O320  1  0.74698260  0.75602442  0.11871084  1
  O  O321  1  0.75197195  0.74802803  0.61051287  1
  O  O322  1  0.25549162  0.23917282  0.38082479  1
  O  O323  1  0.24218876  0.23986830  0.87017988  1
  O  O324  1  0.23965890  0.74504084  0.37917890  1
  O  O325  1  0.24011313  0.74833768  0.88455396  1
  O  O326  1  0.74556892  0.24693206  0.37951951  1
  O  O327  1  0.74591093  0.24380661  0.87669263  1
  O  O328  1  0.74455688  0.74416505  0.38203758  1
  O  O329  1  0.74307202  0.74286423  0.87971708  1
  O  O330  1  0.00271140  0.11612388  0.00862108  1
  O  O331  1  0.00716221  0.12293465  0.50798672  1
  O  O332  1  0.00572651  0.61776283  0.00638211  1
  O  O333  1  0.01095539  0.62940432  0.50866758  1
  O  O334  1  0.50614600  0.11946233  0.00525541  1
  O  O335  1  0.50033755  0.11314511  0.50087031  1
  O  O336  1  0.50576335  0.61856864  0.00068034  1
  O  O337  1  0.50572403  0.62114050  0.50482351  1
  O  O338  1  0.49857263  0.38413409  0.49670237  1
  O  O339  1  0.48902862  0.38215278  0.99922740  1
  O  O340  1  0.49105225  0.88078087  0.49974751  1
  O  O341  1  0.49519544  0.87985850  0.99414739  1
  O  O342  1  1.00662492  0.36384692  0.50056505  1
  O  O343  1  1.00755368  0.38774202  0.99714659  1
  O  O344  1  0.98730651  0.87326023  0.50153944  1
  O  O345  1  0.99913598  0.88106381  0.99167348  1
  O  O346  1  0.49388216  0.50131019  0.38012563  1
  O  O347  1  0.49017982  0.49692285  0.88006361  1
  O  O348  1  0.49623316  0.99735058  0.38488846  1
  O  O349  1  0.49509547  0.99474615  0.88038893  1
  O  O350  1  0.98440166  0.50537142  0.36693359  1
  O  O351  1  0.99531167  0.49398877  0.88306423  1
  O  O352  1  0.98619623  1.00640051  0.37429723  1
  O  O353  1  0.99701184  0.99190310  0.88181225  1
  O  O354  1  -0.00664379  0.01057991  0.11707953  1
  O  O355  1  0.00833336  0.00454504  0.62402084  1
  O  O356  1  -0.00103363  0.50772966  0.11807942  1
  O  O357  1  0.00824087  0.51103345  0.63137351  1
  O  O358  1  0.50507930  0.00603210  0.11964477  1
  O  O359  1  0.50226962  0.00033187  0.61350572  1
  O  O360  1  0.50601773  0.50120919  0.11878721  1
  O  O361  1  0.50601375  0.50533626  0.61934772  1
  O  O362  1  0.24325953  0.37938704  0.24133205  1
  O  O363  1  0.24528613  0.37992095  0.74590337  1
  O  O364  1  0.25369428  0.89354430  0.25305530  1
  O  O365  1  0.24917874  0.88095687  0.74355484  1
  O  O366  1  0.74673238  0.38546391  0.24000636  1
  O  O367  1  0.74660190  0.37915453  0.73987098  1
  O  O368  1  0.74280137  0.88044335  0.24374501  1
  O  O369  1  0.74457700  0.88064208  0.75122732  1
  O  O370  1  0.25310605  0.11998750  0.25729391  1
  O  O371  1  0.25734156  0.11908689  0.76014208  1
  O  O372  1  0.25142888  0.62125558  0.25322849  1
  O  O373  1  0.25253368  0.61625040  0.75332920  1
  O  O374  1  0.75645180  0.11994879  0.25400061  1
  O  O375  1  0.75702805  0.11959406  0.75685558  1
  O  O376  1  0.74893915  0.61506532  0.25373144  1
  O  O377  1  0.75373784  0.61837729  0.75412903  1
  O  O378  1  0.36519495  0.12511808  0.36796648  1
  O  O379  1  0.36932070  0.12079989  0.87097571  1
  O  O380  1  0.36672699  0.62180475  0.36820125  1
  O  O381  1  0.37228874  0.61153016  0.87450466  1
  O  O382  1  0.86886923  0.11606172  0.36899226  1
  O  O383  1  0.87155013  0.11914027  0.87012592  1
  O  O384  1  0.86621023  0.61215457  0.37362593  1
  O  O385  1  0.86853789  0.61687914  0.86890047  1
  O  O386  1  0.13430225  0.37483330  0.13241385  1
  O  O387  1  0.13330164  0.38047687  0.63590001  1
  O  O388  1  0.13154475  0.87115915  0.13206345  1
  O  O389  1  0.13117389  0.87942656  0.62509620  1
  O  O390  1  0.63470730  0.38150331  0.12631024  1
  O  O391  1  0.63568689  0.38011679  0.62908006  1
  O  O392  1  0.62865891  0.88300327  0.13002441  1
  O  O393  1  0.62989052  0.87693814  0.63435809  1
  O  O394  1  0.11498712  0.26003928  0.24702438  1
  O  O395  1  0.12047743  0.25445467  0.76124599  1
  O  O396  1  0.11578982  0.75020804  0.26012527  1
  O  O397  1  0.12425241  0.74896479  0.76363835  1
  O  O398  1  0.62056047  0.24981760  0.25905814  1
  O  O399  1  0.62222700  0.25447401  0.75475328  1
  O  O400  1  0.61629545  0.75494168  0.25369479  1
  O  O401  1  0.61971989  0.75480902  0.75569123  1
  O  O402  1  0.38083979  0.24482960  0.24295880  1
  O  O403  1  0.38156267  0.24561360  0.74560884  1
  O  O404  1  0.38094047  0.74669501  0.25048507  1
  O  O405  1  0.38104638  0.74904969  0.74399285  1
  O  O406  1  0.88304490  0.24529578  0.24150175  1
  O  O407  1  0.88315575  0.24113087  0.75001887  1
  O  O408  1  0.88291377  0.74457191  0.24986633  1
  O  O409  1  0.87564567  0.73993278  0.74738194  1
  O  O410  1  0.38060386  0.50081211  0.49246172  1
  O  O411  1  0.37817686  0.49209360  0.99299850  1
  O  O412  1  0.38222034  0.99047344  0.50135279  1
  O  O413  1  0.38158831  0.99453262  0.99406397  1
  O  O414  1  0.86963142  0.49679223  0.48339850  1
  O  O415  1  0.88638228  0.50700677  0.99299918  1
  O  O416  1  0.87613390  0.99089610  0.49053947  1
  O  O417  1  0.88692705  0.99813962  0.99311837  1
  O  O418  1  0.11169213  0.00185558  -0.00608791  1
  O  O419  1  0.12477842  0.00694058  0.50629145  1
  O  O420  1  0.11501394  0.50913480  0.00000215  1
  O  O421  1  0.13302079  0.51321833  0.50632484  1
  O  O422  1  0.61941315  0.00613826  0.00531895  1
  O  O423  1  0.61559368  -0.00125524  0.49879740  1
  O  O424  1  0.61887813  0.50457426  0.00336010  1
  O  O425  1  0.62086987  0.50635951  0.50435759  1
  O  O426  1  0.36771040  0.37135688  0.11820409  1
  O  O427  1  0.36828184  0.36824926  0.62438319  1
  O  O428  1  0.36565342  0.87310840  0.11498395  1
  O  O429  1  0.36948680  0.86860066  0.61620446  1
  O  O430  1  0.86649424  0.36533171  0.13284135  1
  O  O431  1  0.86558570  0.37467337  0.62321742  1
  O  O432  1  0.86359879  0.87247498  0.12148693  1
  O  O433  1  0.87229822  0.87083813  0.61291750  1
  O  O434  1  0.13709080  0.12205262  0.38407595  1
  O  O435  1  0.13481033  0.13229883  0.87609693  1
  O  O436  1  0.12889492  0.63066770  0.38253276  1
  O  O437  1  0.12130241  0.63190592  0.88461209  1
  O  O438  1  0.63276179  0.13605537  0.37660770  1
  O  O439  1  0.63167915  0.13016985  0.88031184  1
  O  O440  1  0.62957652  0.63155585  0.38042461  1
  O  O441  1  0.62981264  0.62888377  0.87880466  1
