# generated using pymatgen
data_V93Zn93O256
_symmetry_space_group_name_H-M   'P 1'
_cell_length_a   17.05369582
_cell_length_b   17.05711769
_cell_length_c   17.05826063
_cell_angle_alpha   90.07124667
_cell_angle_beta   89.98816890
_cell_angle_gamma   90.06809483
_symmetry_Int_Tables_number   1
_chemical_formula_structural   V93Zn93O256
_chemical_formula_sum   'V93 Zn93 O256'
_cell_volume   4962.01705242
_cell_formula_units_Z   1
loop_
 _symmetry_equiv_pos_site_id
 _symmetry_equiv_pos_as_xyz
  1  'x, y, z'
loop_
 _atom_site_type_symbol
 _atom_site_label
 _atom_site_symmetry_multiplicity
 _atom_site_fract_x
 _atom_site_fract_y
 _atom_site_fract_z
 _atom_site_occupancy
  V  V0  1  -0.00058914  0.12414192  0.62387333  1
  V  V1  1  0.50130922  0.50016139  -0.00040553  1
  V  V2  1  0.75003146  0.37472782  0.62556909  1
  V  V3  1  0.37531464  0.00055840  0.87585132  1
  V  V4  1  0.63028273  0.13042719  0.00246645  1
  V  V5  1  0.49970402  0.50193285  0.49940700  1
  V  V6  1  0.00092631  0.87258992  0.37418250  1
  V  V7  1  0.75035683  -0.00102804  0.25169671  1
  V  V8  1  0.62580281  0.37524905  0.74963743  1
  V  V9  1  0.38573429  -0.00584471  0.37405725  1
  V  V10  1  0.49793632  0.24829193  0.25017177  1
  V  V11  1  0.00052226  0.50181416  0.00001926  1
  V  V12  1  0.37457795  0.24687667  0.12888093  1
  V  V13  1  0.24756258  0.24715853  0.49834205  1
  V  V14  1  0.87574159  0.49950427  0.37443951  1
  V  V15  1  0.24856696  0.75217234  0.50052734  1
  V  V16  1  0.87501732  0.87483178  0.49976663  1
  V  V17  1  0.87610055  0.74957878  0.62554308  1
  V  V18  1  0.12291308  0.87301613  0.75109396  1
  V  V19  1  0.12359742  0.00044029  0.62394657  1
  V  V20  1  0.12260508  0.12447551  -0.00010958  1
  V  V21  1  0.75145766  0.74894291  0.49971280  1
  V  V22  1  0.62609035  0.24848585  0.37669540  1
  V  V23  1  0.25097786  0.50038541  0.74979074  1
  V  V24  1  0.37513019  0.75045097  0.12614460  1
  V  V25  1  0.62760723  0.49921932  0.12539793  1
  V  V26  1  0.87827716  0.62891903  0.25002623  1
  V  V27  1  0.49953682  0.74819042  0.75144774  1
  V  V28  1  0.87742216  0.12563927  0.25107851  1
  V  V29  1  0.87465545  -0.00308480  0.88237422  1
  V  V30  1  0.12592003  0.24935469  0.87548002  1
  V  V31  1  0.12416671  0.00127522  0.12537858  1
  V  V32  1  0.37536224  0.50370374  0.37446828  1
  V  V33  1  -0.00029244  0.49810471  0.49973425  1
  V  V34  1  0.49934816  0.37497572  0.37530961  1
  V  V35  1  0.87457033  0.12520469  0.75057002  1
  V  V36  1  0.61804171  0.12115373  0.50003806  1
  V  V37  1  0.25011394  0.37533893  0.62396983  1
  V  V38  1  0.00061471  0.37517257  0.87608807  1
  V  V39  1  0.75206495  0.87461023  0.12433574  1
  V  V40  1  -0.00284561  0.87587215  0.88125619  1
  V  V41  1  0.24960950  0.62493212  0.87500598  1
  V  V42  1  0.87470211  -0.00161063  0.37533460  1
  V  V43  1  0.37524030  0.37494209  0.00086287  1
  V  V44  1  0.49639878  0.12421148  0.12816416  1
  V  V45  1  0.62556876  0.75132351  0.37406995  1
  V  V46  1  0.62861281  0.24993247  0.87772390  1
  V  V47  1  0.49964628  0.24640010  0.74840084  1
  V  V48  1  -0.00038952  0.62568150  0.62659603  1
  V  V49  1  0.50004885  0.62507476  0.62630946  1
  V  V50  1  0.74945882  -0.00010764  0.74987191  1
  V  V51  1  0.50010094  0.87528042  0.87667259  1
  V  V52  1  0.12517138  0.50030197  0.62407877  1
  V  V53  1  0.62538291  0.49871423  0.62497433  1
  V  V54  1  0.12567899  0.62545615  0.00052349  1
  V  V55  1  0.87371061  0.50342651  0.87325637  1
  V  V56  1  0.00083853  0.24964184  0.74915380  1
  V  V57  1  0.25078587  0.74943614  -0.00111057  1
  V  V58  1  0.37475321  0.50000019  0.87451638  1
  V  V59  1  0.62576610  0.62576416  0.00076439  1
  V  V60  1  0.37579507  0.87576515  0.00073717  1
  V  V61  1  0.75115196  0.62406597  0.37394308  1
  V  V62  1  0.37557935  0.62668746  0.25222888  1
  V  V63  1  0.62157425  0.87492591  0.25482891  1
  V  V64  1  0.25498546  0.12328280  0.36549452  1
  V  V65  1  0.12223163  0.87385912  0.24999057  1
  V  V66  1  0.87421686  0.25037173  0.62462963  1
  V  V67  1  0.86795089  0.36874285  0.00289900  1
  V  V68  1  0.61836226  -0.00035127  0.62177374  1
  V  V69  1  0.37474105  0.37554838  0.49883687  1
  V  V70  1  0.12249051  0.37481605  0.25096982  1
  V  V71  1  0.50043045  0.37423898  0.87511437  1
  V  V72  1  0.62384386  0.00040246  0.12589585  1
  V  V73  1  -0.00112390  0.00006599  0.50127279  1
  V  V74  1  0.00112358  0.62999977  0.12805826  1
  V  V75  1  0.87428619  0.37409372  0.49914166  1
  V  V76  1  0.75369799  0.75489802  -0.00028400  1
  V  V77  1  0.25073176  0.12470484  0.87436427  1
  V  V78  1  0.25065735  0.00015517  0.74985421  1
  V  V79  1  0.62558772  0.75124658  0.87727213  1
  V  V80  1  0.37576076  0.24881693  0.62513839  1
  V  V81  1  0.87657782  0.75436828  0.12411359  1
  V  V82  1  0.62577131  0.37594224  0.25010371  1
  V  V83  1  0.12108629  0.74882686  0.36972208  1
  V  V84  1  0.12573491  0.37461004  0.75054434  1
  V  V85  1  0.75042390  0.87551620  0.62536893  1
  V  V86  1  0.24952539  0.87539528  0.12480122  1
  V  V87  1  0.50069232  0.75263986  0.25093203  1
  V  V88  1  0.25215188  0.87507035  0.62095832  1
  V  V89  1  0.62617512  0.62464418  0.49949161  1
  V  V90  1  0.24879094  0.37722097  0.12522256  1
  V  V91  1  0.25185186  0.62636436  0.37548722  1
  V  V92  1  0.75004641  0.12822999  0.87750579  1
  Zn  Zn93  1  0.74939279  0.50335341  0.75007065  1
  Zn  Zn94  1  0.25000129  0.50167035  0.25105455  1
  Zn  Zn95  1  0.74571716  0.36410293  0.12293737  1
  Zn  Zn96  1  -0.00049765  0.37216504  0.37348617  1
  Zn  Zn97  1  0.12111548  0.24670864  0.37203872  1
  Zn  Zn98  1  0.12274213  0.74974879  0.87561969  1
  Zn  Zn99  1  0.75049543  0.62724399  0.87272174  1
  Zn  Zn100  1  0.49432586  0.11658097  0.62070097  1
  Zn  Zn101  1  0.74959780  0.24764771  0.50164484  1
  Zn  Zn102  1  0.87215376  0.62712070  0.75077414  1
  Zn  Zn103  1  0.37328973  0.62555582  0.74802730  1
  Zn  Zn104  1  0.25034777  0.25028447  -0.00065644  1
  Zn  Zn105  1  -0.00557496  -0.00297741  0.00372178  1
  Zn  Zn106  1  -0.00249533  0.74931107  0.75291184  1
  Zn  Zn107  1  0.40155669  0.88846444  0.50029254  1
  Zn  Zn108  1  0.37682921  0.75131427  0.62367315  1
  Zn  Zn109  1  0.50059378  0.00068800  -0.00006209  1
  Zn  Zn110  1  0.86948881  0.24213991  0.12135671  1
  Zn  Zn111  1  0.12507771  0.50129326  0.12646677  1
  Zn  Zn112  1  0.12420484  0.62339824  0.49766597  1
  Zn  Zn113  1  0.74982392  0.12297554  0.37719732  1
  Zn  Zn114  1  0.37506626  0.12382258  0.74932806  1
  Zn  Zn115  1  0.12391455  0.12376749  0.49689904  1
  Zn  Zn116  1  -0.00285667  0.25113926  0.24893154  1
  Zn  Zn117  1  0.25534292  0.00397881  0.24671745  1
  Zn  Zn118  1  -0.00082087  0.12750890  0.12605966  1
  Zn  Zn119  1  0.75191220  0.49834181  0.24783674  1
  Zn  Zn120  1  0.62493176  0.87614081  0.75065829  1
  Zn  Zn121  1  0.49905326  0.62410492  0.12456811  1
  Zn  Zn122  1  0.18580073  0.19164429  0.18612219  1
  Zn  Zn123  1  0.18761715  0.18611386  0.68648085  1
  Zn  Zn124  1  0.18908094  0.68856072  0.18856465  1
  Zn  Zn125  1  0.18575782  0.68747960  0.68796786  1
  Zn  Zn126  1  0.69172010  0.18880843  0.18834673  1
  Zn  Zn127  1  0.68683139  0.18567912  0.68779064  1
  Zn  Zn128  1  0.68975716  0.68554980  0.18661292  1
  Zn  Zn129  1  0.68799614  0.68666732  0.68919574  1
  Zn  Zn130  1  0.31100243  0.31301548  0.31114930  1
  Zn  Zn131  1  0.31279326  0.31211085  0.81261771  1
  Zn  Zn132  1  0.31091709  0.81600736  0.31322302  1
  Zn  Zn133  1  0.31302923  0.81250727  0.81308741  1
  Zn  Zn134  1  0.80980655  0.31323749  0.31082884  1
  Zn  Zn135  1  0.81181628  0.31397672  0.81297445  1
  Zn  Zn136  1  0.81177574  0.81189020  0.31057768  1
  Zn  Zn137  1  0.81344559  0.81348816  0.81109902  1
  Zn  Zn138  1  0.18720668  0.43793917  0.43581617  1
  Zn  Zn139  1  0.18744219  0.43877844  0.93946050  1
  Zn  Zn140  1  0.18888142  0.94000707  0.43691999  1
  Zn  Zn141  1  0.18739001  0.93789381  0.93766241  1
  Zn  Zn142  1  0.68980938  0.43695027  0.43783497  1
  Zn  Zn143  1  0.68850689  0.43882963  0.93585211  1
  Zn  Zn144  1  0.68671586  0.93776885  0.43891081  1
  Zn  Zn145  1  0.68638455  0.93941499  0.93906958  1
  Zn  Zn146  1  0.31067404  0.06237045  0.05998018  1
  Zn  Zn147  1  0.31485081  0.06210037  0.55795528  1
  Zn  Zn148  1  0.31388848  0.56305048  0.06292364  1
  Zn  Zn149  1  0.31286253  0.56661412  0.56116172  1
  Zn  Zn150  1  0.80900227  0.06328086  0.06550494  1
  Zn  Zn151  1  0.80771971  0.06398429  0.56120862  1
  Zn  Zn152  1  0.81223679  0.56338255  0.05984635  1
  Zn  Zn153  1  0.81303335  0.56094938  0.56256593  1
  Zn  Zn154  1  0.43874656  0.43745291  0.18858154  1
  Zn  Zn155  1  0.43782682  0.43640239  0.68734270  1
  Zn  Zn156  1  0.43557566  0.94022930  0.19212225  1
  Zn  Zn157  1  0.43590810  0.93401155  0.69148622  1
  Zn  Zn158  1  0.93885006  0.44197734  0.18602162  1
  Zn  Zn159  1  0.93763069  0.43753737  0.68787563  1
  Zn  Zn160  1  0.93958164  0.93877721  0.18926038  1
  Zn  Zn161  1  0.93623057  0.93761820  0.69066167  1
  Zn  Zn162  1  0.06462094  0.06196655  0.31463382  1
  Zn  Zn163  1  0.06151654  0.06041283  0.81234839  1
  Zn  Zn164  1  0.06299674  0.56000565  0.31104578  1
  Zn  Zn165  1  0.06290530  0.56233925  0.81236404  1
  Zn  Zn166  1  0.56147407  0.06338418  0.31133359  1
  Zn  Zn167  1  0.56374182  0.06178958  0.81289162  1
  Zn  Zn168  1  0.56102742  0.56527345  0.31098106  1
  Zn  Zn169  1  0.56395325  0.56374649  0.81348630  1
  Zn  Zn170  1  0.43490882  0.18398686  0.43651224  1
  Zn  Zn171  1  0.43945349  0.18692041  0.94071857  1
  Zn  Zn172  1  0.45010844  0.71304306  0.45045339  1
  Zn  Zn173  1  0.43733319  0.68591493  0.93777441  1
  Zn  Zn174  1  0.93833929  0.18883342  0.43467440  1
  Zn  Zn175  1  0.93949792  0.18601351  0.93556856  1
  Zn  Zn176  1  0.93918976  0.68614141  0.43923656  1
  Zn  Zn177  1  0.93876562  0.68956451  0.93928881  1
  Zn  Zn178  1  0.05616380  0.30967215  0.06578541  1
  Zn  Zn179  1  0.06186092  0.31312998  0.56167007  1
  Zn  Zn180  1  0.06356620  0.81127442  0.06175170  1
  Zn  Zn181  1  0.06361146  0.81186156  0.56051687  1
  Zn  Zn182  1  0.56187741  0.31218893  0.06286083  1
  Zn  Zn183  1  0.56216619  0.31150944  0.56195831  1
  Zn  Zn184  1  0.56343094  0.81343721  0.06451016  1
  Zn  Zn185  1  0.56583226  0.81328230  0.56475725  1
  O  O186  1  0.12623435  0.11748511  0.11762990  1
  O  O187  1  0.11750130  0.11803718  0.62353628  1
  O  O188  1  0.11649344  0.62717457  0.12141800  1
  O  O189  1  0.11589338  0.61888893  0.62366559  1
  O  O190  1  0.61838940  0.12116413  0.11928069  1
  O  O191  1  0.62302960  0.11640137  0.61781298  1
  O  O192  1  0.62397176  0.61563220  0.11969066  1
  O  O193  1  0.62015170  0.61884575  0.61866643  1
  O  O194  1  0.37997942  0.38109634  0.37944543  1
  O  O195  1  0.38013339  0.37979038  0.88091559  1
  O  O196  1  0.36515300  0.89040004  0.37971289  1
  O  O197  1  0.37966958  0.88048134  0.88128606  1
  O  O198  1  0.87426214  0.38210312  0.38052701  1
  O  O199  1  0.88045208  0.38278069  0.88315803  1
  O  O200  1  0.88056830  0.87735985  0.37936870  1
  O  O201  1  0.88490823  0.88647320  0.86766513  1
  O  O202  1  0.25066440  0.01475165  0.37370270  1
  O  O203  1  0.25517544  0.00444076  0.86948168  1
  O  O204  1  0.25792313  0.50796506  0.37537508  1
  O  O205  1  0.25488055  0.50432353  0.86958405  1
  O  O206  1  0.75720840  -0.00193917  0.36891814  1
  O  O207  1  0.75653685  0.00518286  0.87053522  1
  O  O208  1  0.75734631  0.50776576  0.37480376  1
  O  O209  1  0.76120463  0.50329752  0.87411120  1
  O  O210  1  0.25062851  0.48787611  0.12652323  1
  O  O211  1  0.24572836  0.49489121  0.62887055  1
  O  O212  1  0.24065600  0.99492383  0.12551810  1
  O  O213  1  0.24477361  0.99206184  0.62863254  1
  O  O214  1  0.73648432  0.49733044  0.12291923  1
  O  O215  1  0.74269581  0.49302912  0.62528710  1
  O  O216  1  0.74347342  0.99331874  0.13180237  1
  O  O217  1  0.74267729  0.99466853  0.63049267  1
  O  O218  1  0.01068201  0.37771956  0.24876975  1
  O  O219  1  0.00646681  0.36930021  0.75513657  1
  O  O220  1  0.01483172  0.88065937  0.25711380  1
  O  O221  1  0.00956367  0.87606742  0.75789630  1
  O  O222  1  0.50567576  0.36878746  0.25675415  1
  O  O223  1  0.50503816  0.36576941  0.75531231  1
  O  O224  1  0.51247193  0.86608341  0.24276059  1
  O  O225  1  0.50188190  0.86404496  0.75736559  1
  O  O226  1  0.50669205  0.13226854  0.23480945  1
  O  O227  1  0.49993962  0.13763383  0.74910036  1
  O  O228  1  0.49391167  0.63408074  0.24504259  1
  O  O229  1  0.49924617  0.63279294  0.74616316  1
  O  O230  1  0.98827293  0.12087218  0.25056872  1
  O  O231  1  0.99483579  0.13006850  0.74463206  1
  O  O232  1  0.99051984  0.62118749  0.23950090  1
  O  O233  1  0.99923996  0.62608608  0.73743460  1
  O  O234  1  0.37530943  0.25723112  0.01082828  1
  O  O235  1  0.36677439  0.25547105  0.50420040  1
  O  O236  1  0.37040342  0.75545474  0.00600382  1
  O  O237  1  0.35199681  0.74750563  0.50183433  1
  O  O238  1  0.88170278  0.26691372  -0.00477914  1
  O  O239  1  0.87308736  0.25536695  0.50698367  1
  O  O240  1  0.86426456  0.74454980  0.01187592  1
  O  O241  1  0.87016353  0.75542886  0.50488098  1
  O  O242  1  0.13823873  0.25128645  0.49887153  1
  O  O243  1  0.12455036  0.24057532  0.99447012  1
  O  O244  1  0.13309514  0.74915560  0.48954674  1
  O  O245  1  0.13370647  0.74350803  0.99881041  1
  O  O246  1  0.62486409  0.24347527  0.49125686  1
  O  O247  1  0.61746892  0.23897382  0.99305763  1
  O  O248  1  0.63467856  0.74246828  0.49426630  1
  O  O249  1  0.63265525  0.74546432  0.99756396  1
  O  O250  1  0.49280720  0.24399791  0.12950819  1
  O  O251  1  0.49471821  0.25134482  0.63509001  1
  O  O252  1  0.49466051  0.74861076  0.13476448  1
  O  O253  1  0.50236628  0.74322756  0.63913774  1
  O  O254  1  0.98829043  0.24485202  0.13043919  1
  O  O255  1  0.99493535  0.24464155  0.63025748  1
  O  O256  1  0.98988040  0.74008054  0.11711256  1
  O  O257  1  0.99565541  0.74085203  0.62325814  1
  O  O258  1  0.00395897  0.25451171  0.36941483  1
  O  O259  1  0.00676764  0.25479831  0.86770057  1
  O  O260  1  0.01321781  0.75615549  0.38339376  1
  O  O261  1  0.00110712  0.76064350  0.87294443  1
  O  O262  1  0.50577373  0.25433238  0.37088326  1
  O  O263  1  0.50559346  0.25476352  0.86728538  1
  O  O264  1  0.51004262  0.74135060  0.35519589  1
  O  O265  1  0.50469677  0.75440371  0.86958464  1
  O  O266  1  0.24799170  0.13541385  0.49310065  1
  O  O267  1  0.23830417  0.12691352  0.99366107  1
  O  O268  1  0.24422462  0.63316847  0.49417945  1
  O  O269  1  0.24548261  0.62941793  0.99534195  1
  O  O270  1  0.73634339  0.12848919  0.49678838  1
  O  O271  1  0.73713000  0.12010530  0.99464446  1
  O  O272  1  0.74605665  0.62966431  0.49444766  1
  O  O273  1  0.74395342  0.63765010  0.99915019  1
  O  O274  1  0.25530230  0.37359518  0.00917647  1
  O  O275  1  0.25551900  0.36731949  0.50387797  1
  O  O276  1  0.25527116  0.86954407  0.00505643  1
  O  O277  1  0.24180185  0.86848340  0.51183111  1
  O  O278  1  0.76560299  0.37883877  -0.00194523  1
  O  O279  1  0.75632753  0.37192501  0.50741535  1
  O  O280  1  0.74317629  0.86322836  0.00846535  1
  O  O281  1  0.75616147  0.86870948  0.50498958  1
  O  O282  1  0.12959551  0.49062348  0.24579924  1
  O  O283  1  0.13099992  0.49334097  0.74457047  1
  O  O284  1  0.12931141  0.99347162  0.24026897  1
  O  O285  1  0.13012272  0.99114065  0.74452071  1
  O  O286  1  0.62348041  0.49543919  0.24090849  1
  O  O287  1  0.62320987  0.49227302  0.74311374  1
  O  O288  1  0.62898910  0.99224574  0.24656912  1
  O  O289  1  0.63219392  0.99989583  0.74125347  1
  O  O290  1  0.36884856  -0.00347571  0.26495064  1
  O  O291  1  0.36812715  0.00092219  0.75731408  1
  O  O292  1  0.37567606  0.50726684  0.25709934  1
  O  O293  1  0.36871289  0.49936260  0.75649098  1
  O  O294  1  0.86995040  0.00407293  0.25638738  1
  O  O295  1  0.86918486  0.00673154  0.75844365  1
  O  O296  1  0.87340813  0.51152780  0.25458374  1
  O  O297  1  0.87538154  0.49959246  0.76241577  1
  O  O298  1  0.12639078  0.37320811  0.36261291  1
  O  O299  1  0.12075139  0.37002218  0.87037786  1
  O  O300  1  0.12233142  0.86935704  0.36790116  1
  O  O301  1  0.11808316  0.87708040  0.86509564  1
  O  O302  1  0.61857322  0.36758413  0.37225609  1
  O  O303  1  0.61965620  0.37016559  0.87061073  1
  O  O304  1  0.63270437  0.86836715  0.36184652  1
  O  O305  1  0.61822274  0.86926034  0.87471362  1
  O  O306  1  0.38367904  0.13523878  0.11599756  1
  O  O307  1  0.37740933  0.13170225  0.62748333  1
  O  O308  1  0.37501641  0.63302835  0.13250004  1
  O  O309  1  0.38388666  0.62912942  0.62728090  1
  O  O310  1  0.87717046  0.11892840  0.13750682  1
  O  O311  1  0.87926031  0.12972279  0.63077684  1
  O  O312  1  0.88096811  0.63189164  0.13096559  1
  O  O313  1  0.88487014  0.62975689  0.62408749  1
  O  O314  1  0.25882741  0.25879660  0.12303595  1
  O  O315  1  0.25479178  0.25506777  0.61765785  1
  O  O316  1  0.25565532  0.75616409  0.11918294  1
  O  O317  1  0.24632664  0.75945350  0.61875399  1
  O  O318  1  0.75658461  0.25186724  0.12431964  1
  O  O319  1  0.75683061  0.25628241  0.62650938  1
  O  O320  1  0.75711377  0.75422171  0.11854591  1
  O  O321  1  0.75499083  0.75504098  0.61874887  1
  O  O322  1  0.25339528  0.23963058  0.38253938  1
  O  O323  1  0.24346109  0.24422511  0.87634487  1
  O  O324  1  0.24024357  0.74725570  0.38140798  1
  O  O325  1  0.24904198  0.74365650  0.88137812  1
  O  O326  1  0.73425442  0.24894645  0.37560598  1
  O  O327  1  0.74089159  0.24107481  0.86704878  1
  O  O328  1  0.74598023  0.74366180  0.38009263  1
  O  O329  1  0.74634020  0.75232403  0.88490642  1
  O  O330  1  0.01269084  0.12087261  -0.00038708  1
  O  O331  1  0.00030321  0.11802987  0.50659602  1
  O  O332  1  0.00583342  0.62178376  0.00810373  1
  O  O333  1  0.00181778  0.61757018  0.51055550  1
  O  O334  1  0.50983342  0.12326841  0.01134044  1
  O  O335  1  0.51324919  0.13073629  0.50273074  1
  O  O336  1  0.50665107  0.61823890  0.00237224  1
  O  O337  1  0.50699629  0.62224854  0.50538807  1
  O  O338  1  0.49420992  0.38097288  0.49482280  1
  O  O339  1  0.49523438  0.38028060  0.99391504  1
  O  O340  1  0.48701412  0.82057298  0.48995923  1
  O  O341  1  0.49367113  0.87597510  0.99510199  1
  O  O342  1  0.99231022  0.38155786  0.50017145  1
  O  O343  1  0.99324912  0.38241808  0.99422421  1
  O  O344  1  0.99367937  0.88025192  0.49534750  1
  O  O345  1  1.00847209  0.87857050  0.98551877  1
  O  O346  1  0.49594272  0.49537464  0.38083319  1
  O  O347  1  0.49542139  0.49349588  0.87976860  1
  O  O348  1  0.48491626  1.00454400  0.37018573  1
  O  O349  1  0.49381847  0.99364424  0.87539611  1
  O  O350  1  0.99314481  0.49932453  0.38229831  1
  O  O351  1  0.99384182  0.49478041  0.87966833  1
  O  O352  1  0.99505524  0.99224335  0.38190912  1
  O  O353  1  0.99089941  0.99373818  0.87555924  1
  O  O354  1  0.01266642  0.00021023  0.12191465  1
  O  O355  1  0.00299323  0.00468439  0.62102532  1
  O  O356  1  0.00030468  0.51488112  0.11767525  1
  O  O357  1  0.00473494  0.50679357  0.62068426  1
  O  O358  1  0.50419737  0.00905185  0.12616983  1
  O  O359  1  0.51331545  -0.00283664  0.63194968  1
  O  O360  1  0.51024540  0.49966255  0.11819629  1
  O  O361  1  0.50525411  0.50401365  0.61865594  1
  O  O362  1  0.24310931  0.37599593  0.24023065  1
  O  O363  1  0.24496823  0.37985000  0.74398391  1
  O  O364  1  0.23722262  0.87641618  0.24281813  1
  O  O365  1  0.24267374  0.87892452  0.74183284  1
  O  O366  1  0.74070751  0.38011788  0.24711068  1
  O  O367  1  0.74287352  0.37791537  0.74369328  1
  O  O368  1  0.74120402  0.87857033  0.24369507  1
  O  O369  1  0.74793055  0.88154090  0.74270403  1
  O  O370  1  0.24732064  0.12882351  0.26303832  1
  O  O371  1  0.25021725  0.11779796  0.75641036  1
  O  O372  1  0.25776753  0.62560111  0.25707197  1
  O  O373  1  0.25014533  0.61844336  0.75578703  1
  O  O374  1  0.75776242  0.11516275  0.25390276  1
  O  O375  1  0.75559352  0.11917635  0.75642446  1
  O  O376  1  0.75983191  0.62209956  0.25536013  1
  O  O377  1  0.75383370  0.62133864  0.75423087  1
  O  O378  1  0.36148689  0.11555623  0.37903876  1
  O  O379  1  0.36886458  0.11947652  0.87570209  1
  O  O380  1  0.37023258  0.62223639  0.37013609  1
  O  O381  1  0.36792233  0.61693573  0.87405626  1
  O  O382  1  0.87278886  0.11566781  0.36875241  1
  O  O383  1  0.87061118  0.11833655  0.86947244  1
  O  O384  1  0.87243606  0.62214311  0.36748456  1
  O  O385  1  0.87699586  0.61461532  0.87517562  1
  O  O386  1  0.13394405  0.37489391  0.13016850  1
  O  O387  1  0.13070427  0.37998882  0.63098894  1
  O  O388  1  0.12836962  0.88115791  0.13072860  1
  O  O389  1  0.13042288  0.88005835  0.63327465  1
  O  O390  1  0.62339492  0.38318245  0.13003302  1
  O  O391  1  0.62943926  0.37938129  0.62928180  1
  O  O392  1  0.63117688  0.88025670  0.13449904  1
  O  O393  1  0.63235406  0.88328456  0.62487756  1
  O  O394  1  0.12274747  0.26265820  0.24949655  1
  O  O395  1  0.12042579  0.25541085  0.75456782  1
  O  O396  1  0.12985676  0.76002510  0.26020321  1
  O  O397  1  0.12270376  0.76283759  0.75186933  1
  O  O398  1  0.61800338  0.25453938  0.25926831  1
  O  O399  1  0.61660664  0.25493576  0.75516322  1
  O  O400  1  0.62115054  0.75651629  0.25176643  1
  O  O401  1  0.61541132  0.75113017  0.75765224  1
  O  O402  1  0.38144365  0.25674410  0.23645715  1
  O  O403  1  0.38433307  0.25025965  0.74493100  1
  O  O404  1  0.38255341  0.74897660  0.24661772  1
  O  O405  1  0.38729284  0.74847819  0.74956926  1
  O  O406  1  0.87285886  0.23429886  0.25455982  1
  O  O407  1  0.88195841  0.24545248  0.74548775  1
  O  O408  1  0.86915537  0.73771847  0.23973022  1
  O  O409  1  0.87827747  0.74860669  0.74052102  1
  O  O410  1  0.38085320  0.49539465  0.49482603  1
  O  O411  1  0.38112198  0.49448597  0.99473926  1
  O  O412  1  0.37256172  0.99836868  0.48502606  1
  O  O413  1  0.37638347  0.99298443  0.99392119  1
  O  O414  1  0.88031159  0.49402499  0.49461609  1
  O  O415  1  0.88094304  0.49414622  0.99103869  1
  O  O416  1  0.87864063  0.99386385  0.49561062  1
  O  O417  1  0.87443256  1.00671073  0.98620465  1
  O  O418  1  0.12609254  0.00813056  0.00897739  1
  O  O419  1  0.11632127  -0.00067678  0.50713312  1
  O  O420  1  0.11866418  0.50742527  0.00310522  1
  O  O421  1  0.11871218  0.49957105  0.50690099  1
  O  O422  1  0.62226709  0.00992542  0.00786279  1
  O  O423  1  0.62965661  0.00772344  0.51004006  1
  O  O424  1  0.62053341  0.50412076  0.00606987  1
  O  O425  1  0.61888147  0.50503955  0.50426065  1
  O  O426  1  0.36878119  0.36836553  0.12081552  1
  O  O427  1  0.36911614  0.36980107  0.61833301  1
  O  O428  1  0.36933921  0.87065405  0.12102968  1
  O  O429  1  0.36297098  0.87408170  0.62153839  1
  O  O430  1  0.87571427  0.38132615  0.10789168  1
  O  O431  1  0.87042584  0.36988070  0.62028456  1
  O  O432  1  0.86992129  0.86243317  0.13583981  1
  O  O433  1  0.87047447  0.87063192  0.61907015  1
  O  O434  1  0.13835139  0.12692662  0.37828291  1
  O  O435  1  0.12952417  0.12815615  0.88132027  1
  O  O436  1  0.13024090  0.63402037  0.37284625  1
  O  O437  1  0.13100572  0.62634415  0.88171161  1
  O  O438  1  0.62342260  0.13254711  0.38148583  1
  O  O439  1  0.62926223  0.12885207  0.88389643  1
  O  O440  1  0.63128900  0.63033189  0.37963888  1
  O  O441  1  0.62624071  0.63278802  0.88363976  1
