# generated using pymatgen
data_V93Zn93O256
_symmetry_space_group_name_H-M   'P 1'
_cell_length_a   17.05043147
_cell_length_b   17.04890400
_cell_length_c   17.04452895
_cell_angle_alpha   89.97242207
_cell_angle_beta   90.02770784
_cell_angle_gamma   89.94859899
_symmetry_Int_Tables_number   1
_chemical_formula_structural   V93Zn93O256
_chemical_formula_sum   'V93 Zn93 O256'
_cell_volume   4954.69090224
_cell_formula_units_Z   1
loop_
 _symmetry_equiv_pos_site_id
 _symmetry_equiv_pos_as_xyz
  1  'x, y, z'
loop_
 _atom_site_type_symbol
 _atom_site_label
 _atom_site_symmetry_multiplicity
 _atom_site_fract_x
 _atom_site_fract_y
 _atom_site_fract_z
 _atom_site_occupancy
  V  V0  1  0.24843648  -0.00143992  0.75057896  1
  V  V1  1  0.50169920  0.74921554  0.25141175  1
  V  V2  1  0.37537548  0.74825049  0.62475228  1
  V  V3  1  0.24944046  0.75075435  0.50007277  1
  V  V4  1  0.62064360  0.12831739  0.50515447  1
  V  V5  1  0.50014247  0.12395013  0.12642390  1
  V  V6  1  0.50317402  0.86971628  0.37686101  1
  V  V7  1  0.75091414  0.74927658  -0.00024802  1
  V  V8  1  0.75091178  0.62199478  0.87176815  1
  V  V9  1  0.87467226  0.62580086  0.75029664  1
  V  V10  1  0.62542392  -0.00068615  0.12743182  1
  V  V11  1  0.12482624  0.62567643  0.49934076  1
  V  V12  1  0.25161826  0.24842821  0.00043673  1
  V  V13  1  0.24990159  0.62312696  0.87402474  1
  V  V14  1  0.37570047  0.62496228  0.24891138  1
  V  V15  1  0.75093616  0.37516416  0.12410570  1
  V  V16  1  0.38049457  0.12908989  0.73913253  1
  V  V17  1  0.25394756  0.37202753  0.62466898  1
  V  V18  1  0.74617629  0.75213018  0.49342529  1
  V  V19  1  0.12683550  0.37451011  0.74894709  1
  V  V20  1  0.75351804  0.50755755  0.24950585  1
  V  V21  1  0.12517671  0.24911989  0.87556398  1
  V  V22  1  0.37515176  0.37237858  -0.00174696  1
  V  V23  1  0.87494018  0.25556262  0.62531578  1
  V  V24  1  0.62621740  0.62986695  0.49152801  1
  V  V25  1  0.37749012  0.37151105  0.50345400  1
  V  V26  1  0.12417462  -0.00051474  0.12575675  1
  V  V27  1  0.62510593  0.74941097  0.87368639  1
  V  V28  1  0.87336235  0.37727994  0.50083687  1
  V  V29  1  0.74982412  0.87597324  0.62493116  1
  V  V30  1  0.50110136  0.50033346  0.49853084  1
  V  V31  1  0.62476925  0.12501538  0.00053681  1
  V  V32  1  0.37471090  0.87559590  0.50025475  1
  V  V33  1  0.87417269  0.75273593  0.62348927  1
  V  V34  1  0.62356677  0.00255870  0.62541570  1
  V  V35  1  0.62436759  0.87159137  0.25424241  1
  V  V36  1  0.49919657  0.00301934  0.50451661  1
  V  V37  1  0.12660653  0.37472408  0.24950580  1
  V  V38  1  0.75320480  0.11940163  0.37683797  1
  V  V39  1  0.24860496  0.87426944  0.62618189  1
  V  V40  1  0.25148409  0.12307059  0.87550958  1
  V  V41  1  0.62560777  0.25182339  0.37539562  1
  V  V42  1  0.25017180  0.74952886  0.00105924  1
  V  V43  1  0.12443203  0.25083827  0.37573828  1
  V  V44  1  0.12373058  0.87449885  0.25205694  1
  V  V45  1  -0.00151123  0.25023574  0.25046161  1
  V  V46  1  0.62513321  0.37462565  0.24997317  1
  V  V47  1  0.00003846  0.62653234  0.62503168  1
  V  V48  1  -0.00683904  0.88034027  0.37595130  1
  V  V49  1  0.50136333  0.24877996  0.25069328  1
  V  V50  1  0.37553890  0.49980238  0.37490425  1
  V  V51  1  -0.00890220  0.00189485  0.49821087  1
  V  V52  1  0.12526581  0.49952478  0.62396696  1
  V  V53  1  -0.00069833  0.50159455  0.49879707  1
  V  V54  1  0.12528357  0.12347437  0.00155019  1
  V  V55  1  0.25225912  0.25046174  0.50142914  1
  V  V56  1  0.63444279  0.49827103  0.62379009  1
  V  V57  1  0.49935683  -0.00146089  0.00153596  1
  V  V58  1  0.74950137  0.24952124  0.00023677  1
  V  V59  1  0.50000551  0.62378584  0.12470908  1
  V  V60  1  0.25062524  0.37376350  0.12487330  1
  V  V61  1  0.63237891  0.37220395  0.74662851  1
  V  V62  1  0.50029710  0.49803043  -0.00097214  1
  V  V63  1  -0.00294409  0.62177369  0.13153633  1
  V  V64  1  0.87449035  0.11835928  0.25500026  1
  V  V65  1  0.49782796  0.87391500  0.87717559  1
  V  V66  1  0.24971995  0.00024229  0.25179579  1
  V  V67  1  0.37550044  0.12508881  0.25195905  1
  V  V68  1  -0.00102763  0.87407567  0.87582677  1
  V  V69  1  0.12349181  0.12455286  0.50424015  1
  V  V70  1  0.62566224  0.49973463  0.12351517  1
  V  V71  1  -0.00022114  0.75122974  0.75081521  1
  V  V72  1  0.12403641  0.74908911  0.87439044  1
  V  V73  1  -0.00103227  0.37637438  0.87725108  1
  V  V74  1  0.74928954  0.12466484  0.87585221  1
  V  V75  1  0.24961268  0.62565485  0.37369852  1
  V  V76  1  0.24937998  0.87292839  0.12610160  1
  V  V77  1  0.74957673  0.25758605  0.50360561  1
  V  V78  1  0.87475676  0.00018531  0.87582656  1
  V  V79  1  0.25038957  0.12447131  0.37578206  1
  V  V80  1  0.00024764  -0.00057321  0.00031334  1
  V  V81  1  -0.00018756  0.37690574  0.37462060  1
  V  V82  1  0.87376346  0.50968750  0.37131911  1
  V  V83  1  0.87411780  0.25041062  0.12626361  1
  V  V84  1  0.74900036  0.87487314  0.12592094  1
  V  V85  1  0.50104452  0.62614872  0.62600808  1
  V  V86  1  0.12390408  0.75157072  0.37503041  1
  V  V87  1  0.37661768  0.49820966  0.87227130  1
  V  V88  1  0.00046193  0.24888552  0.74878258  1
  V  V89  1  0.87460963  0.74638103  0.13339151  1
  V  V90  1  0.75005853  0.00135951  0.75095772  1
  V  V91  1  0.25033759  0.49893647  0.24838790  1
  V  V92  1  0.62361421  0.87581343  0.75020359  1
  Zn  Zn93  1  0.49623408  0.25063680  0.73866787  1
  Zn  Zn94  1  0.37667746  0.24859479  0.12402700  1
  Zn  Zn95  1  -0.00451125  0.74774852  0.25491820  1
  Zn  Zn96  1  0.37608951  0.62396634  0.74848699  1
  Zn  Zn97  1  0.87506689  0.37633644  -0.00106940  1
  Zn  Zn98  1  0.37470838  -0.00036065  0.87681523  1
  Zn  Zn99  1  0.87518037  0.12641642  0.74935429  1
  Zn  Zn100  1  -0.00148029  0.12436844  0.12645877  1
  Zn  Zn101  1  0.75275723  -0.00207853  0.25428452  1
  Zn  Zn102  1  0.62244303  0.24974639  0.87296508  1
  Zn  Zn103  1  -0.00042628  0.50224350  -0.00137794  1
  Zn  Zn104  1  0.12353203  0.87559569  0.74940872  1
  Zn  Zn105  1  0.37491463  0.00023005  0.37633404  1
  Zn  Zn106  1  -0.00169859  0.12282426  0.62766784  1
  Zn  Zn107  1  0.37592312  0.75004671  0.12484206  1
  Zn  Zn108  1  0.87560601  0.87644553  0.00292877  1
  Zn  Zn109  1  0.12224693  0.62103818  0.00041044  1
  Zn  Zn110  1  0.49815078  0.75032120  0.75082790  1
  Zn  Zn111  1  0.49995511  0.37480656  0.37452451  1
  Zn  Zn112  1  0.25227554  0.49936206  0.74775167  1
  Zn  Zn113  1  0.62418325  0.62233231  -0.00259126  1
  Zn  Zn114  1  0.87624570  0.49928205  0.87471665  1
  Zn  Zn115  1  0.12487942  0.50002298  0.12237838  1
  Zn  Zn116  1  0.50021689  0.36870406  0.87004871  1
  Zn  Zn117  1  0.75627728  0.49574690  0.74366985  1
  Zn  Zn118  1  0.75006270  0.63410073  0.36782005  1
  Zn  Zn119  1  0.12164366  -0.00325797  0.62579845  1
  Zn  Zn120  1  0.37464346  0.87533553  0.00284454  1
  Zn  Zn121  1  0.86941213  0.88187784  0.49616379  1
  Zn  Zn122  1  0.18787685  0.18733955  0.18694278  1
  Zn  Zn123  1  0.19143502  0.18804302  0.68897601  1
  Zn  Zn124  1  0.18330046  0.68712312  0.18735541  1
  Zn  Zn125  1  0.18709101  0.68770960  0.68903995  1
  Zn  Zn126  1  0.68868977  0.18678458  0.18845561  1
  Zn  Zn127  1  0.68990097  0.18860996  0.68524451  1
  Zn  Zn128  1  0.68383129  0.68797345  0.18483793  1
  Zn  Zn129  1  0.68655228  0.68938875  0.68532332  1
  Zn  Zn130  1  0.31441804  0.31133819  0.31447841  1
  Zn  Zn131  1  0.31234068  0.30967712  0.81159850  1
  Zn  Zn132  1  0.31503389  0.81281065  0.31282451  1
  Zn  Zn133  1  0.31416662  0.81041989  0.81114216  1
  Zn  Zn134  1  0.81217559  0.31392126  0.31402657  1
  Zn  Zn135  1  0.81164851  0.31078985  0.81306978  1
  Zn  Zn136  1  0.81228665  0.81558115  0.31206241  1
  Zn  Zn137  1  0.81350502  0.81386926  0.81244563  1
  Zn  Zn138  1  0.18883666  0.43829920  0.43701141  1
  Zn  Zn139  1  0.18565786  0.43804907  0.94025597  1
  Zn  Zn140  1  0.18369348  0.93915269  0.43828350  1
  Zn  Zn141  1  0.18560719  0.93509926  0.93714366  1
  Zn  Zn142  1  0.68741826  0.44038684  0.43486016  1
  Zn  Zn143  1  0.68660993  0.43543722  0.93540586  1
  Zn  Zn144  1  0.68460697  0.93881967  0.43878840  1
  Zn  Zn145  1  0.68613309  0.93727979  0.93869608  1
  Zn  Zn146  1  0.31427307  0.06040864  0.06415591  1
  Zn  Zn147  1  0.31059223  0.06015613  0.56342962  1
  Zn  Zn148  1  0.31373958  0.56084002  0.06132600  1
  Zn  Zn149  1  0.31298911  0.56034152  0.56082209  1
  Zn  Zn150  1  0.81294596  0.06285798  0.06501791  1
  Zn  Zn151  1  0.81058580  0.06866457  0.56536363  1
  Zn  Zn152  1  0.81740247  0.56076563  0.05894342  1
  Zn  Zn153  1  0.81379680  0.56852734  0.55819121  1
  Zn  Zn154  1  0.43724798  0.43550583  0.18570476  1
  Zn  Zn155  1  0.44371102  0.43720543  0.68705921  1
  Zn  Zn156  1  0.43494864  0.93720914  0.18827823  1
  Zn  Zn157  1  0.43488383  0.93953708  0.68884812  1
  Zn  Zn158  1  0.93527956  0.43697682  0.18900049  1
  Zn  Zn159  1  0.93800002  0.43768449  0.68893024  1
  Zn  Zn160  1  0.93806291  0.93528434  0.18676710  1
  Zn  Zn161  1  0.93670434  0.93873096  0.68659953  1
  Zn  Zn162  1  0.06180882  0.06271329  0.31469024  1
  Zn  Zn163  1  0.06199141  0.06298852  0.81380610  1
  Zn  Zn164  1  0.06328933  0.56236685  0.30966438  1
  Zn  Zn165  1  0.06447019  0.56144169  0.81029977  1
  Zn  Zn166  1  0.56349644  0.06055220  0.31691858  1
  Zn  Zn167  1  0.56209694  0.06099347  0.81501271  1
  Zn  Zn168  1  0.56305762  0.56052798  0.31089031  1
  Zn  Zn169  1  0.56526498  0.55861055  0.81042076  1
  Zn  Zn170  1  0.43809415  0.18923148  0.43819331  1
  Zn  Zn171  1  0.43941123  0.18714226  0.92872829  1
  Zn  Zn172  1  0.43732435  0.68793871  0.43757805  1
  Zn  Zn173  1  0.43630938  0.68572932  0.93875485  1
  Zn  Zn174  1  0.93683247  0.18848301  0.43751522  1
  Zn  Zn175  1  0.93657737  0.18690132  0.93821310  1
  Zn  Zn176  1  0.93629165  0.69237994  0.43914815  1
  Zn  Zn177  1  0.93654518  0.68657730  0.94192655  1
  Zn  Zn178  1  0.06309255  0.31070279  0.06345360  1
  Zn  Zn179  1  0.06186332  0.31327856  0.56284852  1
  Zn  Zn180  1  0.06229322  0.80969771  0.06259711  1
  Zn  Zn181  1  0.06156674  0.81547290  0.56189833  1
  Zn  Zn182  1  0.56218191  0.31190695  0.06201509  1
  Zn  Zn183  1  0.55875721  0.31274867  0.56986507  1
  Zn  Zn184  1  0.56430523  0.81005007  0.06369302  1
  Zn  Zn185  1  0.56361661  0.81318883  0.56313885  1
  O  O186  1  0.12343239  0.11751161  0.11986979  1
  O  O187  1  0.12486621  0.12779085  0.61198857  1
  O  O188  1  0.11058700  0.62441920  0.12342039  1
  O  O189  1  0.12010180  0.62040592  0.61881142  1
  O  O190  1  0.61988163  0.11880419  0.12150279  1
  O  O191  1  0.63358637  0.11885553  0.61120277  1
  O  O192  1  0.61776355  0.61697171  0.12180053  1
  O  O193  1  0.61754226  0.62019994  0.61567477  1
  O  O194  1  0.37551256  0.38230334  0.38536872  1
  O  O195  1  0.37388098  0.38420631  0.87854220  1
  O  O196  1  0.38456942  0.87757791  0.38197563  1
  O  O197  1  0.38761736  0.87449390  0.87688443  1
  O  O198  1  0.88101233  0.38514005  0.38056493  1
  O  O199  1  0.88761747  0.37426843  0.87346302  1
  O  O200  1  0.88880405  0.87300026  0.37631353  1
  O  O201  1  0.88065437  0.88158328  0.87857086  1
  O  O202  1  0.24995510  0.00646122  0.36998185  1
  O  O203  1  0.24900261  0.00357753  0.86683726  1
  O  O204  1  0.25518498  0.50639495  0.36913307  1
  O  O205  1  0.25886138  0.50727838  0.87548364  1
  O  O206  1  0.74463298  0.01521666  0.37629949  1
  O  O207  1  0.75430261  0.00395037  0.87104962  1
  O  O208  1  0.75812173  0.50260343  0.36651854  1
  O  O209  1  0.75032050  0.51413561  0.87351317  1
  O  O210  1  0.25041024  0.49233473  0.13141623  1
  O  O211  1  0.24362039  0.49034185  0.62336644  1
  O  O212  1  0.24344460  0.99340093  0.13162798  1
  O  O213  1  0.24695370  0.99216327  0.63391236  1
  O  O214  1  0.74730614  0.49622341  0.13134839  1
  O  O215  1  0.73818823  0.51076112  0.62342857  1
  O  O216  1  0.74315706  0.99251739  0.12710889  1
  O  O217  1  0.74432605  0.99573930  0.63005398  1
  O  O218  1  0.00585621  0.37039513  0.25603223  1
  O  O219  1  0.00745309  0.36841814  0.75649294  1
  O  O220  1  0.00594188  0.87485835  0.25967285  1
  O  O221  1  -0.00002041  0.86856516  0.75692172  1
  O  O222  1  0.50705668  0.36804985  0.25015824  1
  O  O223  1  0.51514394  0.37527511  0.74973108  1
  O  O224  1  0.50538353  0.87096679  0.25800778  1
  O  O225  1  0.50518335  0.87610110  0.76019055  1
  O  O226  1  0.49667659  0.12826834  0.24723789  1
  O  O227  1  0.48148088  0.11501595  0.75477072  1
  O  O228  1  0.49600487  0.62926975  0.24560448  1
  O  O229  1  0.50151945  0.62539920  0.73570296  1
  O  O230  1  0.99114475  0.13167385  0.25281809  1
  O  O231  1  0.99823345  0.13399300  0.74904086  1
  O  O232  1  1.00272517  0.62914562  0.23710173  1
  O  O233  1  0.99516449  0.63119419  0.74430515  1
  O  O234  1  0.36909362  0.25450793  -0.00174939  1
  O  O235  1  0.36895908  0.26379947  0.49320408  1
  O  O236  1  0.36161784  0.75101769  0.00140944  1
  O  O237  1  0.36841155  0.75531374  0.50492576  1
  O  O238  1  0.86751084  0.25000995  0.00845522  1
  O  O239  1  0.86892154  0.25677077  0.50491855  1
  O  O240  1  0.86325828  0.75257017  0.00926880  1
  O  O241  1  0.86428906  0.75268966  0.50729153  1
  O  O242  1  0.12962152  0.24396240  0.49454115  1
  O  O243  1  0.13138594  0.24308616  0.99520271  1
  O  O244  1  0.13018872  0.74462492  0.49513355  1
  O  O245  1  0.13611708  0.74726022  0.99342913  1
  O  O246  1  0.63231522  0.24579318  0.49676446  1
  O  O247  1  0.63178384  0.24228098  0.99987174  1
  O  O248  1  0.63484473  0.74183714  0.50607058  1
  O  O249  1  0.63643904  0.74693699  0.99460516  1
  O  O250  1  0.49997095  0.24147351  0.13255411  1
  O  O251  1  0.50525425  0.23973529  0.62872472  1
  O  O252  1  0.49905004  0.74224180  0.13171228  1
  O  O253  1  0.49476806  0.74088542  0.62316648  1
  O  O254  1  0.99345807  0.24834296  0.13318983  1
  O  O255  1  0.99256719  0.24944588  0.62999561  1
  O  O256  1  0.99123349  0.74218605  0.12698125  1
  O  O257  1  0.99493758  0.74560554  0.62924009  1
  O  O258  1  0.00489644  0.25761175  0.37084730  1
  O  O259  1  0.00591710  0.25640071  0.86931405  1
  O  O260  1  0.00564223  0.75968288  0.37578741  1
  O  O261  1  0.00350601  0.75361549  0.87087566  1
  O  O262  1  0.50862978  0.25177840  0.36892974  1
  O  O263  1  0.50592803  0.25038375  0.86067933  1
  O  O264  1  0.49637700  0.76254126  0.37084262  1
  O  O265  1  0.50580821  0.75700019  0.87564447  1
  O  O266  1  0.24262234  0.12960857  0.49638085  1
  O  O267  1  0.24502387  0.12806793  0.99602666  1
  O  O268  1  0.24461841  0.63017804  0.49381914  1
  O  O269  1  0.25002575  0.63195645  0.99035293  1
  O  O270  1  0.74278952  0.13497753  0.49337280  1
  O  O271  1  0.74366453  0.12914242  0.99642974  1
  O  O272  1  0.74168769  0.63563829  0.49735561  1
  O  O273  1  0.75043104  0.63409283  0.99056532  1
  O  O274  1  0.25518038  0.36788682  0.00455360  1
  O  O275  1  0.25713818  0.37186691  0.50587642  1
  O  O276  1  0.24932789  0.86486195  0.00577863  1
  O  O277  1  0.25427549  0.87034042  0.50461815  1
  O  O278  1  0.75029337  0.36792719  0.00623407  1
  O  O279  1  0.75578893  0.36420351  0.49167836  1
  O  O280  1  0.74852351  0.86404959  0.00625837  1
  O  O281  1  0.74841143  0.86934240  0.50486637  1
  O  O282  1  0.13308671  0.49205710  0.24871489  1
  O  O283  1  0.12830796  0.49247221  0.74143750  1
  O  O284  1  0.13015331  0.99511828  0.24602766  1
  O  O285  1  0.13648504  1.00013386  0.74828460  1
  O  O286  1  0.63304149  0.49405540  0.24417467  1
  O  O287  1  0.62968675  0.49286003  0.74013774  1
  O  O288  1  0.62467196  0.98910181  0.24531389  1
  O  O289  1  0.63004246  0.99565583  0.74467168  1
  O  O290  1  0.36762649  0.00678252  0.25328427  1
  O  O291  1  0.36222988  0.00596339  0.75274292  1
  O  O292  1  0.37037411  0.50468662  0.25531748  1
  O  O293  1  0.37434981  0.50103537  0.75991359  1
  O  O294  1  0.87371368  0.01439516  0.24528680  1
  O  O295  1  0.86747036  0.00232484  0.75671885  1
  O  O296  1  0.86416922  0.49497850  0.25981157  1
  O  O297  1  0.87301729  0.50920759  0.75146747  1
  O  O298  1  0.12013850  0.37072199  0.37025480  1
  O  O299  1  0.11981101  0.36832493  0.86900514  1
  O  O300  1  0.11660347  0.86993897  0.37198321  1
  O  O301  1  0.11708514  0.86674117  0.87256605  1
  O  O302  1  0.62369273  0.36978539  0.36819789  1
  O  O303  1  0.62297790  0.37655885  0.85933658  1
  O  O304  1  0.61478566  0.88105807  0.36594673  1
  O  O305  1  0.61690528  0.86984051  0.87044431  1
  O  O306  1  0.38238078  0.12537278  0.13360105  1
  O  O307  1  0.36826231  0.11957465  0.64030536  1
  O  O308  1  0.38204220  0.62469833  0.13201348  1
  O  O309  1  0.38551341  0.62807439  0.62185643  1
  O  O310  1  0.87495149  0.13283836  0.13661719  1
  O  O311  1  0.87748777  0.14100242  0.62627581  1
  O  O312  1  0.88623392  0.63386073  0.12059289  1
  O  O313  1  0.88147887  0.63209821  0.62928594  1
  O  O314  1  0.25266304  0.25515585  0.11836677  1
  O  O315  1  0.24438378  0.26498518  0.61780208  1
  O  O316  1  0.24869705  0.75311241  0.11600095  1
  O  O317  1  0.25492661  0.75322389  0.61898127  1
  O  O318  1  0.75433406  0.25575801  0.12096581  1
  O  O319  1  0.76009982  0.24699252  0.61167705  1
  O  O320  1  0.75479435  0.75270197  0.11804211  1
  O  O321  1  0.75427917  0.75686476  0.61677260  1
  O  O322  1  0.24343704  0.24474542  0.38164947  1
  O  O323  1  0.24338678  0.24387342  0.88105828  1
  O  O324  1  0.24485388  0.74533457  0.38092130  1
  O  O325  1  0.24645848  0.74215736  0.88114508  1
  O  O326  1  0.74511076  0.24290606  0.38402930  1
  O  O327  1  0.74711750  0.24239435  0.88212218  1
  O  O328  1  0.75624357  0.75068773  0.38817427  1
  O  O329  1  0.74619161  0.74393289  0.88184287  1
  O  O330  1  0.00779418  0.11827528  0.00152619  1
  O  O331  1  0.00833219  0.11961765  0.49809246  1
  O  O332  1  0.00212536  0.62538682  0.01314008  1
  O  O333  1  0.00551722  0.62126865  0.50530079  1
  O  O334  1  0.50520058  0.11888551  0.00553686  1
  O  O335  1  0.51066369  0.11513694  0.49101419  1
  O  O336  1  0.50083197  0.61669545  0.00618634  1
  O  O337  1  0.50724350  0.62210399  0.50646312  1
  O  O338  1  0.49209825  0.38202635  0.50008856  1
  O  O339  1  0.49366360  0.38015191  0.99619461  1
  O  O340  1  0.49709794  0.88105680  0.49373234  1
  O  O341  1  0.50152766  0.87818575  0.99234482  1
  O  O342  1  0.99546048  0.38272603  0.49366507  1
  O  O343  1  1.00062724  0.37186359  0.98694645  1
  O  O344  1  0.99802922  0.88491152  0.49319201  1
  O  O345  1  0.99923550  0.88087990  0.99398390  1
  O  O346  1  0.49365677  0.49875577  0.38107169  1
  O  O347  1  0.48986317  0.50097907  0.87971856  1
  O  O348  1  0.49900466  0.98960147  0.38712956  1
  O  O349  1  0.50145139  0.98758245  0.88336168  1
  O  O350  1  0.99304482  0.49701352  0.37848002  1
  O  O351  1  1.00137228  0.48698644  0.87214609  1
  O  O352  1  1.00695492  0.99080583  0.38587205  1
  O  O353  1  0.99513082  0.99431947  0.88050209  1
  O  O354  1  0.00692791  0.00066834  0.11895690  1
  O  O355  1  0.00326058  0.00310595  0.61566720  1
  O  O356  1  -0.00274159  0.51323774  0.12748043  1
  O  O357  1  0.00518561  0.50626791  0.61844322  1
  O  O358  1  0.50565737  0.00398059  0.12130055  1
  O  O359  1  0.50641444  -0.00817296  0.61124312  1
  O  O360  1  0.50575554  0.50369094  0.11936013  1
  O  O361  1  0.50951663  0.50979235  0.61756658  1
  O  O362  1  0.24667942  0.37871963  0.24579610  1
  O  O363  1  0.24606447  0.37509477  0.73995267  1
  O  O364  1  0.24397381  0.88004113  0.24724509  1
  O  O365  1  0.24973893  0.88285693  0.74607652  1
  O  O366  1  0.74449266  0.38392437  0.24455579  1
  O  O367  1  0.73818665  0.37889973  0.75322654  1
  O  O368  1  0.74052364  0.87749635  0.24694529  1
  O  O369  1  0.74318857  0.88106442  0.74546633  1
  O  O370  1  0.25426674  0.12015775  0.25624180  1
  O  O371  1  0.25553905  0.11683925  0.75523105  1
  O  O372  1  0.25481094  0.61988376  0.25484357  1
  O  O373  1  0.25243882  0.62238394  0.76167103  1
  O  O374  1  0.75644716  0.12451925  0.26003265  1
  O  O375  1  0.74968410  0.11849476  0.75699079  1
  O  O376  1  0.74144528  0.61229979  0.25116041  1
  O  O377  1  0.75568155  0.62860695  0.75836753  1
  O  O378  1  0.36778730  0.12360517  0.37071823  1
  O  O379  1  0.36565924  0.11937367  0.86741693  1
  O  O380  1  0.36920271  0.61989910  0.36997645  1
  O  O381  1  0.36710527  0.61558299  0.87408615  1
  O  O382  1  0.86446998  0.13329995  0.36664662  1
  O  O383  1  0.86721367  0.11836291  0.87367083  1
  O  O384  1  0.87401812  0.61271133  0.38014531  1
  O  O385  1  0.86623404  0.62749811  0.86828617  1
  O  O386  1  0.13213696  0.37443307  0.13296080  1
  O  O387  1  0.13300341  0.38064448  0.62774021  1
  O  O388  1  0.12956873  0.87920555  0.13195798  1
  O  O389  1  0.13341631  0.87504348  0.62854851  1
  O  O390  1  0.63128592  0.38077797  0.13020210  1
  O  O391  1  0.62346735  0.38821742  0.63411869  1
  O  O392  1  0.62887708  0.87962354  0.13431135  1
  O  O393  1  0.63027566  0.88207111  0.63028294  1
  O  O394  1  0.11961409  0.25434424  0.25686849  1
  O  O395  1  0.12139872  0.25494985  0.75571858  1
  O  O396  1  0.12369618  0.75760174  0.25844592  1
  O  O397  1  0.11719449  0.75022679  0.75684927  1
  O  O398  1  0.62144200  0.25482756  0.25553063  1
  O  O399  1  0.63032747  0.26541899  0.74595015  1
  O  O400  1  0.61923132  0.76374111  0.24554153  1
  O  O401  1  0.62215941  0.75790845  0.75527564  1
  O  O402  1  0.38265352  0.24289259  0.25013223  1
  O  O403  1  0.37210836  0.23238370  0.75323738  1
  O  O404  1  0.38212464  0.74195832  0.24921888  1
  O  O405  1  0.37862510  0.74486259  0.74065533  1
  O  O406  1  0.87911529  0.24359219  0.24626430  1
  O  O407  1  0.88024606  0.25157694  0.74003306  1
  O  O408  1  0.87331977  0.75185808  0.23742956  1
  O  O409  1  0.88017484  0.74559504  0.74341562  1
  O  O410  1  0.38035494  0.49276428  0.49375533  1
  O  O411  1  0.37971671  0.49301086  0.99050549  1
  O  O412  1  0.38345470  0.99451809  0.50044301  1
  O  O413  1  0.38344821  0.99547378  0.99809050  1
  O  O414  1  0.87968047  0.49695986  0.49252212  1
  O  O415  1  0.88142166  0.49383232  0.99300836  1
  O  O416  1  0.88671689  1.00354156  0.50453126  1
  O  O417  1  0.88147255  0.99913597  0.99495896  1
  O  O418  1  0.12051653  0.00446228  0.00584627  1
  O  O419  1  0.11675990  0.01109359  0.50217482  1
  O  O420  1  0.11878546  0.50236852  0.00535115  1
  O  O421  1  0.11900383  0.50617226  0.50306569  1
  O  O422  1  0.61935330  0.00478032  0.00771646  1
  O  O423  1  0.61799942  0.00896501  0.50504181  1
  O  O424  1  0.61879305  0.49964014  0.00588470  1
  O  O425  1  0.62171657  0.50794994  0.50550733  1
  O  O426  1  0.36878920  0.37183990  0.11674640  1
  O  O427  1  0.36603498  0.38543197  0.61382123  1
  O  O428  1  0.36543913  0.87067000  0.12465335  1
  O  O429  1  0.36930045  0.86861189  0.61922451  1
  O  O430  1  0.86837884  0.36747268  0.12511079  1
  O  O431  1  0.88135574  0.36485235  0.61694000  1
  O  O432  1  0.86762003  0.86580996  0.12420893  1
  O  O433  1  0.86663317  0.86993655  0.62257522  1
  O  O434  1  0.13006877  0.13105756  0.38479604  1
  O  O435  1  0.13131820  0.12993763  0.88161766  1
  O  O436  1  0.12995686  0.63048088  0.37977634  1
  O  O437  1  0.13502608  0.62941875  0.87537769  1
  O  O438  1  0.63283755  0.13159966  0.38491194  1
  O  O439  1  0.63212284  0.12373848  0.88284264  1
  O  O440  1  0.62589920  0.62089063  0.38849281  1
  O  O441  1  0.63405620  0.63053399  0.87413086  1
