# generated using pymatgen
data_V93Zn93O256
_symmetry_space_group_name_H-M   'P 1'
_cell_length_a   17.04497359
_cell_length_b   17.04723048
_cell_length_c   17.04730740
_cell_angle_alpha   89.99627351
_cell_angle_beta   89.94446782
_cell_angle_gamma   89.99260342
_symmetry_Int_Tables_number   1
_chemical_formula_structural   V93Zn93O256
_chemical_formula_sum   'V93 Zn93 O256'
_cell_volume   4953.42680192
_cell_formula_units_Z   1
loop_
 _symmetry_equiv_pos_site_id
 _symmetry_equiv_pos_as_xyz
  1  'x, y, z'
loop_
 _atom_site_type_symbol
 _atom_site_label
 _atom_site_symmetry_multiplicity
 _atom_site_fract_x
 _atom_site_fract_y
 _atom_site_fract_z
 _atom_site_occupancy
  V  V0  1  0.62551576  0.74857497  0.87599078  1
  V  V1  1  0.49991146  0.62410530  0.62648128  1
  V  V2  1  0.49559018  0.24556023  0.75425036  1
  V  V3  1  0.37560077  0.62638705  0.25065760  1
  V  V4  1  0.74824395  0.24863131  0.50205098  1
  V  V5  1  0.25118423  0.49992826  0.75170180  1
  V  V6  1  0.62615719  0.62436886  0.00162456  1
  V  V7  1  0.37576477  0.75246549  0.12424873  1
  V  V8  1  0.49893135  0.75052689  0.75048870  1
  V  V9  1  0.12505277  0.24866617  0.87326480  1
  V  V10  1  0.12690501  0.12623726  -0.00379632  1
  V  V11  1  0.87591394  0.62464168  0.74872491  1
  V  V12  1  -0.00036972  0.62336754  0.62425012  1
  V  V13  1  0.24990499  0.75260492  0.50158086  1
  V  V14  1  0.12633333  0.12457077  0.49866461  1
  V  V15  1  0.74979627  0.12396191  0.37601695  1
  V  V16  1  0.25455652  0.00604276  0.74964373  1
  V  V17  1  0.75090219  0.87481168  0.12432819  1
  V  V18  1  0.50088461  0.75067424  0.25144581  1
  V  V19  1  0.75000045  0.62801671  0.38163667  1
  V  V20  1  0.49892777  0.00027465  0.50073308  1
  V  V21  1  0.25024126  0.62703203  0.37424558  1
  V  V22  1  0.50074866  0.87423864  0.37527416  1
  V  V23  1  0.62461979  0.24932223  0.87701509  1
  V  V24  1  0.37470292  0.24656129  0.13157691  1
  V  V25  1  0.62342836  0.37304356  0.75225185  1
  V  V26  1  0.75118384  0.00134502  0.25040445  1
  V  V27  1  0.74844012  0.37349102  0.62655687  1
  V  V28  1  0.25364857  0.37571995  0.61982510  1
  V  V29  1  0.37518926  0.00222772  0.37311500  1
  V  V30  1  0.87414522  0.24883029  0.62537445  1
  V  V31  1  0.87516334  0.49927104  0.87466577  1
  V  V32  1  0.74963344  -0.00248381  0.74921101  1
  V  V33  1  0.00168194  0.87374674  0.87179053  1
  V  V34  1  0.25109780  0.87707525  0.12323910  1
  V  V35  1  0.12289973  0.37459182  0.25045432  1
  V  V36  1  0.62881603  0.74930318  0.38165973  1
  V  V37  1  0.00212411  0.50131953  0.00054667  1
  V  V38  1  0.62294475  0.49924797  0.62608837  1
  V  V39  1  0.25514463  0.00535187  0.24740878  1
  V  V40  1  0.62266028  0.25060902  0.37736056  1
  V  V41  1  0.12442883  0.62547214  0.49932034  1
  V  V42  1  0.00050783  -0.00067645  0.49784161  1
  V  V43  1  0.37581369  0.37605845  0.00135983  1
  V  V44  1  0.49756454  -0.00093096  0.00134994  1
  V  V45  1  0.86926598  0.37073921  0.00742955  1
  V  V46  1  0.49660403  0.12457404  0.13522500  1
  V  V47  1  0.37528857  0.49952910  0.37751868  1
  V  V48  1  0.87531213  0.00082722  0.37412464  1
  V  V49  1  0.13017415  0.87373156  0.74497417  1
  V  V50  1  0.36964143  0.87487811  0.50310414  1
  V  V51  1  -0.00028460  0.37356869  0.87301065  1
  V  V52  1  0.50119560  0.87668500  0.87605505  1
  V  V53  1  0.25006222  0.25064969  -0.00120574  1
  V  V54  1  0.37369292  0.62541389  0.75090038  1
  V  V55  1  0.87448441  0.12378676  0.74986159  1
  V  V56  1  0.49481672  0.49843496  0.50251925  1
  V  V57  1  0.87561949  0.49802784  0.37641716  1
  V  V58  1  0.62487559  0.37399288  0.24908478  1
  V  V59  1  0.13032689  -0.00574861  0.62219582  1
  V  V60  1  0.62651005  0.49818520  0.12781946  1
  V  V61  1  0.74885565  0.49904558  0.75056389  1
  V  V62  1  0.12655683  0.00124112  0.12286835  1
  V  V63  1  0.49615451  0.12365523  0.62908932  1
  V  V64  1  0.50175554  0.62620344  0.12662836  1
  V  V65  1  0.37350211  0.24892572  0.62873966  1
  V  V66  1  0.62527008  0.12572637  0.00209250  1
  V  V67  1  0.00110074  0.74927176  0.24778798  1
  V  V68  1  0.12488212  0.75091054  0.37331610  1
  V  V69  1  0.62311415  0.12418451  0.50169053  1
  V  V70  1  0.62661997  0.87442601  0.74966681  1
  V  V71  1  0.25472487  0.12666696  0.37056979  1
  V  V72  1  0.00124315  0.00037497  -0.00176772  1
  V  V73  1  0.86853418  0.86980923  0.49899116  1
  V  V74  1  0.86898172  0.74875535  0.62058075  1
  V  V75  1  0.24902930  0.50087950  0.24734303  1
  V  V76  1  -0.00195994  0.13098189  0.12535120  1
  V  V77  1  0.37191877  0.75184040  0.62390408  1
  V  V78  1  0.87466276  0.37443959  0.50046304  1
  V  V79  1  0.74969626  0.62456136  0.87578709  1
  V  V80  1  -0.00027601  0.12396034  0.62331919  1
  V  V81  1  0.62562452  -0.00041352  0.12724614  1
  V  V82  1  0.49448381  0.37524076  0.38141950  1
  V  V83  1  0.00031172  0.24946496  0.74905961  1
  V  V84  1  0.24899909  0.75030466  -0.00389870  1
  V  V85  1  0.12547719  0.50041991  0.62360806  1
  V  V86  1  0.87574264  0.74864666  0.12440283  1
  V  V87  1  0.00001643  0.87510985  0.37302061  1
  V  V88  1  0.74925693  0.49622426  0.24813691  1
  V  V89  1  0.25322410  0.25241794  0.49965327  1
  V  V90  1  0.87626360  -0.00042666  0.87397326  1
  V  V91  1  0.74981572  0.12520293  0.87739164  1
  V  V92  1  0.49976312  0.49980965  0.00192692  1
  Zn  Zn93  1  0.12575308  0.74720367  0.87127542  1
  Zn  Zn94  1  0.24884135  0.62504177  0.87581666  1
  Zn  Zn95  1  -0.00204620  0.25094903  0.25347679  1
  Zn  Zn96  1  0.62585280  -0.00312520  0.62528175  1
  Zn  Zn97  1  0.00137856  0.74914315  0.74797997  1
  Zn  Zn98  1  0.50026931  0.37614040  0.87658306  1
  Zn  Zn99  1  0.26100794  0.13163677  0.86852513  1
  Zn  Zn100  1  0.00100528  0.37115511  0.37697290  1
  Zn  Zn101  1  0.37440974  0.87540222  -0.00457682  1
  Zn  Zn102  1  0.37566225  0.50135281  0.87674361  1
  Zn  Zn103  1  0.12633929  0.87672919  0.24829354  1
  Zn  Zn104  1  0.87621099  0.12862141  0.25040062  1
  Zn  Zn105  1  0.12509640  0.62530202  -0.00197760  1
  Zn  Zn106  1  0.87514802  0.62247311  0.25008521  1
  Zn  Zn107  1  0.74427325  0.25342494  0.00771971  1
  Zn  Zn108  1  0.12461867  0.50240227  0.12308158  1
  Zn  Zn109  1  0.00139192  0.49773493  0.49886859  1
  Zn  Zn110  1  0.49368076  0.24673543  0.25684163  1
  Zn  Zn111  1  0.24890588  0.37460022  0.12530572  1
  Zn  Zn112  1  0.86227674  0.25326476  0.13389410  1
  Zn  Zn113  1  0.62578337  0.87322486  0.25118940  1
  Zn  Zn114  1  0.37922851  0.00658115  0.86871172  1
  Zn  Zn115  1  0.12547643  0.37388059  0.74814983  1
  Zn  Zn116  1  0.74685226  0.87164682  0.62154899  1
  Zn  Zn117  1  0.12393208  0.25051722  0.37431625  1
  Zn  Zn118  1  0.00243384  0.62504485  0.12335659  1
  Zn  Zn119  1  0.62768034  0.62788451  0.50434041  1
  Zn  Zn120  1  0.87601522  0.87398479  -0.00248082  1
  Zn  Zn121  1  0.75126798  0.74904252  0.00036457  1
  Zn  Zn122  1  0.18616061  0.18902546  0.18486633  1
  Zn  Zn123  1  0.18441966  0.18556108  0.68579740  1
  Zn  Zn124  1  0.18580911  0.68683993  0.18171824  1
  Zn  Zn125  1  0.18801838  0.68763089  0.68546722  1
  Zn  Zn126  1  0.68660924  0.18872915  0.18884172  1
  Zn  Zn127  1  0.68472692  0.18494701  0.68986609  1
  Zn  Zn128  1  0.68917601  0.68577025  0.19358492  1
  Zn  Zn129  1  0.68729343  0.68679000  0.68859761  1
  Zn  Zn130  1  0.31042090  0.31578494  0.31338136  1
  Zn  Zn131  1  0.31301265  0.31504764  0.81287064  1
  Zn  Zn132  1  0.31266604  0.81651179  0.31202352  1
  Zn  Zn133  1  0.31440218  0.81905172  0.81228009  1
  Zn  Zn134  1  0.81131482  0.31081926  0.31312522  1
  Zn  Zn135  1  0.81206841  0.31153696  0.81640372  1
  Zn  Zn136  1  0.81286225  0.81235019  0.31074863  1
  Zn  Zn137  1  0.81374174  0.81028851  0.80983736  1
  Zn  Zn138  1  0.18739748  0.43815254  0.43570761  1
  Zn  Zn139  1  0.18654023  0.43363108  0.93526280  1
  Zn  Zn140  1  0.18757959  0.93783938  0.43340879  1
  Zn  Zn141  1  0.18780626  0.93681327  0.93350650  1
  Zn  Zn142  1  0.68536910  0.43827880  0.43884782  1
  Zn  Zn143  1  0.68645905  0.43780063  0.93805741  1
  Zn  Zn144  1  0.68579735  0.93785875  0.43707657  1
  Zn  Zn145  1  0.68703080  0.93801906  0.93844685  1
  Zn  Zn146  1  0.31381770  0.06683404  0.05946894  1
  Zn  Zn147  1  0.31290040  0.06413559  0.56182950  1
  Zn  Zn148  1  0.31423404  0.56634872  0.06300399  1
  Zn  Zn149  1  0.31241194  0.56576781  0.56284251  1
  Zn  Zn150  1  0.81440845  0.06304221  0.06145373  1
  Zn  Zn151  1  0.81182279  0.05865147  0.56240238  1
  Zn  Zn152  1  0.81423825  0.56122081  0.06332836  1
  Zn  Zn153  1  0.81180138  0.56103745  0.56244149  1
  Zn  Zn154  1  0.43875305  0.43582236  0.18953348  1
  Zn  Zn155  1  0.43520587  0.43344976  0.68809148  1
  Zn  Zn156  1  0.43641329  0.93589906  0.18797583  1
  Zn  Zn157  1  0.43867049  0.93473479  0.68637814  1
  Zn  Zn158  1  0.93898352  0.43793557  0.18779746  1
  Zn  Zn159  1  0.93775677  0.43745457  0.68669727  1
  Zn  Zn160  1  0.93742761  0.93905060  0.18628445  1
  Zn  Zn161  1  0.93870375  0.93633944  0.68499175  1
  Zn  Zn162  1  0.06629956  0.06379020  0.30961798  1
  Zn  Zn163  1  0.06553479  0.06205567  0.81011915  1
  Zn  Zn164  1  0.06206519  0.56361639  0.31225806  1
  Zn  Zn165  1  0.06514998  0.56378297  0.81345979  1
  Zn  Zn166  1  0.56543606  0.06035259  0.31375038  1
  Zn  Zn167  1  0.56502433  0.06234048  0.81368795  1
  Zn  Zn168  1  0.56359257  0.56362756  0.31527531  1
  Zn  Zn169  1  0.56035237  0.56159973  0.81487010  1
  Zn  Zn170  1  0.43470691  0.18823886  0.44187716  1
  Zn  Zn171  1  0.43632505  0.18451971  0.94099975  1
  Zn  Zn172  1  0.43985551  0.68638037  0.43885876  1
  Zn  Zn173  1  0.43560735  0.68660858  0.93689669  1
  Zn  Zn174  1  0.93802000  0.18856626  0.43577004  1
  Zn  Zn175  1  0.93866691  0.18749374  0.93755545  1
  Zn  Zn176  1  0.93794113  0.68575824  0.43692339  1
  Zn  Zn177  1  0.93700110  0.68856227  0.93646141  1
  Zn  Zn178  1  0.06342673  0.31607508  0.06326960  1
  Zn  Zn179  1  0.06401618  0.31376668  0.56154167  1
  Zn  Zn180  1  0.06537983  0.81492830  0.06050891  1
  Zn  Zn181  1  0.05740972  0.81044354  0.56089249  1
  Zn  Zn182  1  0.56017771  0.31099615  0.06604961  1
  Zn  Zn183  1  0.56042794  0.31268457  0.56413608  1
  Zn  Zn184  1  0.56493873  0.81238738  0.06264396  1
  Zn  Zn185  1  0.56001629  0.81304965  0.56306769  1
  O  O186  1  0.11788016  0.12055599  0.11660271  1
  O  O187  1  0.11857920  0.11504476  0.61793300  1
  O  O188  1  0.12027988  0.62017733  0.11716115  1
  O  O189  1  0.11994648  0.62019855  0.61853466  1
  O  O190  1  0.61545588  0.11863082  0.12188572  1
  O  O191  1  0.61251298  0.12510381  0.61959252  1
  O  O192  1  0.62082786  0.61984526  0.12210232  1
  O  O193  1  0.61848700  0.61794482  0.62577899  1
  O  O194  1  0.38687889  0.38235937  0.37032441  1
  O  O195  1  0.37769182  0.37576350  0.88976696  1
  O  O196  1  0.38132168  0.88095434  0.38350218  1
  O  O197  1  0.38591543  0.88464772  0.87559475  1
  O  O198  1  0.87213307  0.38422090  0.38218563  1
  O  O199  1  0.88081336  0.38046754  0.88181382  1
  O  O200  1  0.88003705  0.87914572  0.38090795  1
  O  O201  1  0.88515880  0.88041709  0.87281538  1
  O  O202  1  0.25453461  0.00773412  0.36704070  1
  O  O203  1  0.24873083  0.00198462  0.85812959  1
  O  O204  1  0.25576237  0.50690661  0.36713842  1
  O  O205  1  0.25178261  0.49750755  0.86138975  1
  O  O206  1  0.75491857  0.00447857  0.37057396  1
  O  O207  1  0.75588763  0.00463241  0.86972050  1
  O  O208  1  0.75616036  0.50590835  0.36887038  1
  O  O209  1  0.75448611  0.50517490  0.86915941  1
  O  O210  1  0.25267354  0.50181066  0.13940595  1
  O  O211  1  0.24769052  0.49305820  0.62942495  1
  O  O212  1  0.24784687  0.99925297  0.13002600  1
  O  O213  1  0.23771570  1.00530053  0.63127574  1
  O  O214  1  0.74409171  0.50629679  0.14047282  1
  O  O215  1  0.74361290  0.49346641  0.63136279  1
  O  O216  1  0.74653652  0.99334445  0.12944872  1
  O  O217  1  0.74741905  0.99641563  0.63389629  1
  O  O218  1  0.01171222  0.37618988  0.25220974  1
  O  O219  1  -0.00008642  0.36721392  0.75434623  1
  O  O220  1  0.00113688  0.86562647  0.25431633  1
  O  O221  1  0.00976294  0.87724395  0.75692236  1
  O  O222  1  0.50859814  0.37626404  0.26416307  1
  O  O223  1  0.50477286  0.36273976  0.75079281  1
  O  O224  1  0.50059892  0.86884484  0.25798610  1
  O  O225  1  0.50616546  0.86986496  0.75549664  1
  O  O226  1  0.50386265  0.12485062  0.23942274  1
  O  O227  1  0.50701295  0.13527791  0.74103103  1
  O  O228  1  0.49492794  0.62998398  0.24644085  1
  O  O229  1  0.49394542  0.63042668  0.74581140  1
  O  O230  1  1.00140716  0.12596870  0.23758041  1
  O  O231  1  0.99410059  0.12896557  0.74320296  1
  O  O232  1  0.99774393  0.63799135  0.24838041  1
  O  O233  1  0.99298489  0.62417385  0.74288796  1
  O  O234  1  0.37158877  0.25877886  0.00919712  1
  O  O235  1  0.36137251  0.24595799  0.51256399  1
  O  O236  1  0.36804725  0.75262468  0.00622732  1
  O  O237  1  0.37092647  0.75728969  0.50247621  1
  O  O238  1  0.87637500  0.26495719  -0.00213244  1
  O  O239  1  0.86733090  0.25367215  0.50674171  1
  O  O240  1  0.87307478  0.75289255  0.01111919  1
  O  O241  1  0.88137480  0.75950515  0.50682732  1
  O  O242  1  0.13833332  0.24332145  0.50223133  1
  O  O243  1  0.13001630  0.24722378  0.99342417  1
  O  O244  1  0.12944113  0.74571814  0.49353842  1
  O  O245  1  0.13782156  0.75100348  0.99743185  1
  O  O246  1  0.62866570  0.24484420  0.49695277  1
  O  O247  1  0.62160367  0.24389720  0.99444377  1
  O  O248  1  0.61883587  0.74844814  0.48613031  1
  O  O249  1  0.62728196  0.74172164  0.99435528  1
  O  O250  1  0.49259992  0.24025009  0.12944013  1
  O  O251  1  0.49230651  0.24413553  0.63174448  1
  O  O252  1  0.49686561  0.74553551  0.13109594  1
  O  O253  1  0.49360638  0.74383093  0.63129349  1
  O  O254  1  0.99968989  0.23860459  0.12366130  1
  O  O255  1  0.99416487  0.24382805  0.62840024  1
  O  O256  1  0.99256295  0.75348463  0.13117930  1
  O  O257  1  0.98912385  0.74153302  0.62552875  1
  O  O258  1  0.00655054  0.25239705  0.37291619  1
  O  O259  1  0.00484530  0.25360216  0.86781918  1
  O  O260  1  0.00412341  0.75427871  0.36592085  1
  O  O261  1  0.00032614  0.76236675  0.87162402  1
  O  O262  1  0.50187102  0.25788519  0.37810416  1
  O  O263  1  0.50491958  0.24927529  0.86701684  1
  O  O264  1  0.50693613  0.75378265  0.37054177  1
  O  O265  1  0.50555576  0.75515879  0.86977593  1
  O  O266  1  0.24539631  0.13173070  0.49272886  1
  O  O267  1  0.24229812  0.13295334  0.99782989  1
  O  O268  1  0.24464309  0.63124298  0.49274313  1
  O  O269  1  0.25150710  0.63735616  0.99863078  1
  O  O270  1  0.74335816  0.12884702  0.49658060  1
  O  O271  1  0.74227207  0.12269469  0.99336300  1
  O  O272  1  0.74637113  0.61774715  0.48629054  1
  O  O273  1  0.74387784  0.62352083  0.99371196  1
  O  O274  1  0.25926195  0.37076750  0.00294884  1
  O  O275  1  0.24487633  0.36577205  0.50927714  1
  O  O276  1  0.25261091  0.86948191  0.00467023  1
  O  O277  1  0.26250646  0.86980839  0.49084477  1
  O  O278  1  0.76621630  0.37684365  -0.00495749  1
  O  O279  1  0.75271852  0.36856989  0.50724318  1
  O  O280  1  0.75150397  0.87349573  0.01279674  1
  O  O281  1  0.76498278  0.88076610  0.50044786  1
  O  O282  1  0.13471359  0.49499490  0.25194940  1
  O  O283  1  0.13601832  0.49907529  0.74191828  1
  O  O284  1  0.13767864  0.99907891  0.24229326  1
  O  O285  1  0.13158291  0.99382508  0.73970608  1
  O  O286  1  0.63035188  0.49356216  0.24891583  1
  O  O287  1  0.62856757  0.49360029  0.74589271  1
  O  O288  1  0.63278023  0.99608478  0.24485367  1
  O  O289  1  0.63141459  0.99236422  0.74970159  1
  O  O290  1  0.36284718  -0.00358904  0.25584256  1
  O  O291  1  0.35630890  -0.00778748  0.74252306  1
  O  O292  1  0.36820968  0.50594435  0.25620878  1
  O  O293  1  0.36611693  0.50467922  0.74874537  1
  O  O294  1  0.86907615  0.00231951  0.25703788  1
  O  O295  1  0.87087820  0.00518329  0.75402777  1
  O  O296  1  0.86569623  0.49733020  0.25828230  1
  O  O297  1  0.86814909  0.50416348  0.75442353  1
  O  O298  1  0.12485908  0.37421057  0.36444341  1
  O  O299  1  0.11724042  0.36645076  0.87050774  1
  O  O300  1  0.11797563  0.86878736  0.37241943  1
  O  O301  1  0.11586321  0.87509419  0.86348402  1
  O  O302  1  0.61450139  0.37070167  0.37122317  1
  O  O303  1  0.62331246  0.36805775  0.86980670  1
  O  O304  1  0.61980926  0.86665073  0.37411802  1
  O  O305  1  0.62085576  0.86796030  0.87030565  1
  O  O306  1  0.38550117  0.13531643  0.11905736  1
  O  O307  1  0.38614131  0.13473541  0.62147453  1
  O  O308  1  0.38256684  0.63260009  0.13183471  1
  O  O309  1  0.38148918  0.63124363  0.63115634  1
  O  O310  1  0.88772446  0.12532161  0.12463859  1
  O  O311  1  0.87993921  0.12925295  0.62928786  1
  O  O312  1  0.87678465  0.63672508  0.12845159  1
  O  O313  1  0.87888012  0.62943762  0.62781031  1
  O  O314  1  0.25897376  0.25040037  0.11771116  1
  O  O315  1  0.25521856  0.25486760  0.62109369  1
  O  O316  1  0.25582046  0.75668699  0.11716900  1
  O  O317  1  0.25921548  0.74397126  0.61380506  1
  O  O318  1  0.75042469  0.24674352  0.11974894  1
  O  O319  1  0.75384678  0.25323069  0.62200560  1
  O  O320  1  0.75833494  0.75734933  0.12837008  1
  O  O321  1  0.76445407  0.74885486  0.62754763  1
  O  O322  1  0.25189925  0.24364868  0.38342892  1
  O  O323  1  0.24292343  0.25147453  0.87967018  1
  O  O324  1  0.24480392  0.74576427  0.37883260  1
  O  O325  1  0.25133880  0.75355863  0.88540154  1
  O  O326  1  0.74273595  0.24411821  0.38355176  1
  O  O327  1  0.74293889  0.24246672  0.87932431  1
  O  O328  1  0.74147768  0.73981630  0.36612205  1
  O  O329  1  0.74449490  0.74248753  0.87604886  1
  O  O330  1  0.00644477  0.11987287  0.00531890  1
  O  O331  1  0.00588069  0.11876020  0.50394982  1
  O  O332  1  -0.00231125  0.61171222  -0.00227276  1
  O  O333  1  0.00730934  0.62189489  0.50524720  1
  O  O334  1  0.50646964  0.11601435  0.01120512  1
  O  O335  1  0.50327392  0.12030193  0.50880245  1
  O  O336  1  0.50584001  0.62022000  0.00713372  1
  O  O337  1  0.50213612  0.61521468  0.50772410  1
  O  O338  1  0.50358758  0.38472268  0.49212564  1
  O  O339  1  0.49156471  0.38127171  1.00215400  1
  O  O340  1  0.49100524  0.88073958  0.49400056  1
  O  O341  1  0.50262232  0.88431230  0.99590199  1
  O  O342  1  0.99126623  0.37769574  0.49898845  1
  O  O343  1  0.99152641  0.38246218  0.99285592  1
  O  O344  1  0.99174099  0.88040185  0.49193408  1
  O  O345  1  1.00166454  0.88170297  0.98750266  1
  O  O346  1  0.49632969  0.49481655  0.38394179  1
  O  O347  1  0.49699318  0.49700372  0.88530779  1
  O  O348  1  0.49471888  0.99572871  0.38085328  1
  O  O349  1  0.50415169  0.99585131  0.88629485  1
  O  O350  1  0.98535786  0.50008983  0.37473944  1
  O  O351  1  0.99415348  0.49399394  0.88033041  1
  O  O352  1  0.99652751  0.99568997  0.37803540  1
  O  O353  1  0.99662535  0.99307802  0.87725764  1
  O  O354  1  0.00641888  0.00654052  0.11822312  1
  O  O355  1  0.00799398  0.00527028  0.61781074  1
  O  O356  1  -0.00126765  0.50232084  0.11273813  1
  O  O357  1  0.00677405  0.50541013  0.62328145  1
  O  O358  1  0.50450253  0.00486750  0.12104420  1
  O  O359  1  0.49910755  0.00955995  0.62084179  1
  O  O360  1  0.50581820  0.50764482  0.12284256  1
  O  O361  1  0.50216205  0.50245846  0.62031087  1
  O  O362  1  0.24326247  0.38653931  0.25027207  1
  O  O363  1  0.25002187  0.38356628  0.73911496  1
  O  O364  1  0.24863405  0.88622276  0.24320667  1
  O  O365  1  0.23652047  0.88600567  0.75195136  1
  O  O366  1  0.73539599  0.38552366  0.26208054  1
  O  O367  1  0.74432732  0.37887224  0.74594884  1
  O  O368  1  0.75045120  0.88149052  0.23886101  1
  O  O369  1  0.74402746  0.88008556  0.74914987  1
  O  O370  1  0.24506464  0.11728761  0.25868232  1
  O  O371  1  0.24417491  0.11010462  0.74893537  1
  O  O372  1  0.25506119  0.61967609  0.25483073  1
  O  O373  1  0.25585499  0.61447953  0.74671671  1
  O  O374  1  0.74947937  0.11801110  0.25943076  1
  O  O375  1  0.75489365  0.11919521  0.75666699  1
  O  O376  1  0.75110599  0.61293913  0.26240403  1
  O  O377  1  0.75509087  0.61767761  0.75568373  1
  O  O378  1  0.36224194  0.11897338  0.38220755  1
  O  O379  1  0.37318976  0.11870621  0.87830936  1
  O  O380  1  0.37025507  0.62062474  0.36963945  1
  O  O381  1  0.37076338  0.62205374  0.86595619  1
  O  O382  1  0.86723163  0.11736764  0.37697868  1
  O  O383  1  0.87098429  0.11959733  0.86912540  1
  O  O384  1  0.86735968  0.61625779  0.37397261  1
  O  O385  1  0.86951577  0.61943683  0.86893569  1
  O  O386  1  0.12893456  0.38116345  0.13505224  1
  O  O387  1  0.13634238  0.38060755  0.62642850  1
  O  O388  1  0.13303294  0.88420496  0.12532625  1
  O  O389  1  0.11549783  0.88560583  0.63049319  1
  O  O390  1  0.61462557  0.38184598  0.14128458  1
  O  O391  1  0.62935100  0.37859299  0.63228373  1
  O  O392  1  0.63518253  0.87950898  0.12745108  1
  O  O393  1  0.62689629  0.87463538  0.63248900  1
  O  O394  1  0.12660298  0.26315952  0.25075784  1
  O  O395  1  0.11737570  0.25009709  0.75373427  1
  O  O396  1  0.11670535  0.75195729  0.25377687  1
  O  O397  1  0.12319917  0.76097714  0.74728565  1
  O  O398  1  0.62160141  0.25910529  0.25983359  1
  O  O399  1  0.61616533  0.25401059  0.75612764  1
  O  O400  1  0.61813600  0.75063896  0.26128391  1
  O  O401  1  0.61853273  0.75351911  0.75626687  1
  O  O402  1  0.37478791  0.25849795  0.23600908  1
  O  O403  1  0.38441385  0.25382856  0.74155600  1
  O  O404  1  0.38000898  0.74565251  0.24530734  1
  O  O405  1  0.37959649  0.74744406  0.74402249  1
  O  O406  1  0.87913127  0.24729037  0.24889805  1
  O  O407  1  0.87920454  0.24342270  0.74486097  1
  O  O408  1  0.88477068  0.74993597  0.24175264  1
  O  O409  1  0.87843770  0.74250140  0.73973481  1
  O  O410  1  0.38665648  0.50576896  0.49517197  1
  O  O411  1  0.38018310  0.49179332  1.00304148  1
  O  O412  1  0.37838410  0.99292933  0.49527290  1
  O  O413  1  0.39019935  0.99802421  1.00361330  1
  O  O414  1  0.87388175  0.49303021  0.49141787  1
  O  O415  1  0.88130873  0.49021935  0.99492591  1
  O  O416  1  0.88183581  0.99170881  0.49441912  1
  O  O417  1  0.88299681  0.99747943  0.99133724  1
  O  O418  1  0.12128155  0.00610721  0.00280904  1
  O  O419  1  0.12147788  0.00301850  0.50502259  1
  O  O420  1  0.11302689  0.49668360  -0.00128065  1
  O  O421  1  0.12604643  0.50790372  0.50528424  1
  O  O422  1  0.61638788  0.00485095  0.00740312  1
  O  O423  1  0.61662808  0.00557038  0.50204025  1
  O  O424  1  0.62055839  0.50412359  0.00804176  1
  O  O425  1  0.61316255  0.50054750  0.50826839  1
  O  O426  1  0.37535153  0.36774211  0.11650536  1
  O  O427  1  0.36381407  0.36329040  0.62708779  1
  O  O428  1  0.36915465  0.86874030  0.12196115  1
  O  O429  1  0.38255874  0.86766304  0.61007220  1
  O  O430  1  0.88091891  0.37435282  0.10960005  1
  O  O431  1  0.86745843  0.36862692  0.62134221  1
  O  O432  1  0.86732330  0.86740291  0.12321319  1
  O  O433  1  0.87652124  0.86584293  0.61591291  1
  O  O434  1  0.13834272  0.12518871  0.38064620  1
  O  O435  1  0.12601734  0.13219503  0.87989387  1
  O  O436  1  0.13047367  0.63130444  0.37934556  1
  O  O437  1  0.13080040  0.63016461  0.87859128  1
  O  O438  1  0.62856581  0.13043713  0.38280845  1
  O  O439  1  0.63029118  0.13007096  0.88193359  1
  O  O440  1  0.63219122  0.63240021  0.37747445  1
  O  O441  1  0.62986321  0.62895483  0.88086855  1
