# generated using pymatgen
data_V93Zn93O256
_symmetry_space_group_name_H-M   'P 1'
_cell_length_a   17.04732118
_cell_length_b   17.04885883
_cell_length_c   17.05169149
_cell_angle_alpha   90.01312270
_cell_angle_beta   89.98993287
_cell_angle_gamma   90.10194467
_symmetry_Int_Tables_number   1
_chemical_formula_structural   V93Zn93O256
_chemical_formula_sum   'V93 Zn93 O256'
_cell_volume   4955.85075524
_cell_formula_units_Z   1
loop_
 _symmetry_equiv_pos_site_id
 _symmetry_equiv_pos_as_xyz
  1  'x, y, z'
loop_
 _atom_site_type_symbol
 _atom_site_label
 _atom_site_symmetry_multiplicity
 _atom_site_fract_x
 _atom_site_fract_y
 _atom_site_fract_z
 _atom_site_occupancy
  V  V0  1  0.00069504  0.50118990  -0.00023192  1
  V  V1  1  -0.00488591  0.62763565  0.63603167  1
  V  V2  1  0.49902157  0.12431374  0.62489265  1
  V  V3  1  0.25105672  0.37490711  0.12595689  1
  V  V4  1  0.24887696  0.37370448  0.62484752  1
  V  V5  1  0.37467711  0.74967422  0.62582026  1
  V  V6  1  0.50105483  0.87613048  0.87376406  1
  V  V7  1  0.37531537  0.00137615  0.87558232  1
  V  V8  1  0.12276802  0.62466600  0.50026231  1
  V  V9  1  0.49972765  0.74872320  0.74963516  1
  V  V10  1  0.75105443  0.00113121  0.25010096  1
  V  V11  1  0.75193215  0.87319089  0.62178050  1
  V  V12  1  0.87459757  -0.00125019  0.37515257  1
  V  V13  1  0.62505873  0.87557069  0.74890204  1
  V  V14  1  0.62611829  0.12601240  0.00017357  1
  V  V15  1  0.62542376  0.37625580  0.25007897  1
  V  V16  1  0.87579747  0.37425836  0.50046732  1
  V  V17  1  0.00515419  0.75344425  0.24881867  1
  V  V18  1  0.87647484  0.50391039  0.87185005  1
  V  V19  1  0.12425939  0.24878797  0.87583546  1
  V  V20  1  0.62600098  0.50017588  0.12461714  1
  V  V21  1  0.11650087  0.24842347  0.37272562  1
  V  V22  1  -0.00085041  0.87257902  0.87228444  1
  V  V23  1  0.00399397  0.87490343  0.37142438  1
  V  V24  1  0.12301224  0.74960265  0.87369193  1
  V  V25  1  0.24332146  -0.00470218  0.24932986  1
  V  V26  1  0.25102698  0.50082266  0.25078908  1
  V  V27  1  0.24941258  0.12470323  0.87647909  1
  V  V28  1  0.49939006  0.86813855  0.37042823  1
  V  V29  1  0.75309332  0.50388433  0.74875985  1
  V  V30  1  0.75301548  0.00410626  0.74930042  1
  V  V31  1  0.75327579  0.12619809  0.87099164  1
  V  V32  1  0.62439828  0.25005013  0.37424259  1
  V  V33  1  0.49956473  0.49911673  0.50119439  1
  V  V34  1  0.75347842  0.87464394  0.12285254  1
  V  V35  1  0.62518929  0.62647793  0.49919206  1
  V  V36  1  0.37327199  0.24888438  0.62548697  1
  V  V37  1  0.12544650  0.49994896  0.12453066  1
  V  V38  1  0.74954041  0.37530254  0.62517214  1
  V  V39  1  0.12325281  -0.00093575  0.62491410  1
  V  V40  1  0.24330838  0.87519739  0.12833521  1
  V  V41  1  0.12270368  0.87067085  0.74888094  1
  V  V42  1  0.50108653  0.00098006  -0.00030402  1
  V  V43  1  0.11761584  0.37039094  0.25032271  1
  V  V44  1  0.24897572  0.74907456  0.49978741  1
  V  V45  1  0.00072923  0.12818862  0.13105180  1
  V  V46  1  0.62537531  0.00058687  0.62413924  1
  V  V47  1  0.50068906  0.37519411  0.87520766  1
  V  V48  1  0.87392807  0.24487152  0.63287201  1
  V  V49  1  0.50059078  0.50281782  0.00104785  1
  V  V50  1  0.24970349  0.62401591  0.37524447  1
  V  V51  1  0.37409489  0.50111375  0.87447967  1
  V  V52  1  0.24843803  0.12563670  0.37688917  1
  V  V53  1  0.74945713  0.12362468  0.37463009  1
  V  V54  1  0.25063865  0.74900513  -0.00066937  1
  V  V55  1  0.49969545  0.12532065  0.12589795  1
  V  V56  1  0.74950345  0.24987494  0.50053281  1
  V  V57  1  0.87689356  0.00662353  0.86916502  1
  V  V58  1  0.87753739  0.74579311  0.63508339  1
  V  V59  1  0.75112408  0.62660443  0.37452144  1
  V  V60  1  0.12454213  0.75138635  0.37330231  1
  V  V61  1  0.75349304  0.62787417  0.87164746  1
  V  V62  1  0.37300278  0.49858552  0.37576117  1
  V  V63  1  0.37300502  0.37397874  0.50113060  1
  V  V64  1  0.62600149  0.62715869  -0.00121333  1
  V  V65  1  0.62060321  0.86845769  0.24916525  1
  V  V66  1  0.12340699  0.37364716  0.74988227  1
  V  V67  1  -0.00150329  0.49829010  0.49715038  1
  V  V68  1  0.37503223  -0.00109732  0.37504103  1
  V  V69  1  0.38218351  0.74793172  0.13152208  1
  V  V70  1  -0.00026288  0.37553821  0.87491269  1
  V  V71  1  0.00216742  0.00132380  0.00041678  1
  V  V72  1  0.49913355  0.37378058  0.37479811  1
  V  V73  1  0.62333403  0.12448242  0.49993079  1
  V  V74  1  0.12325970  0.49922503  0.62534093  1
  V  V75  1  0.25048878  0.50020870  0.75086349  1
  V  V76  1  -0.00089708  -0.00139339  0.50039078  1
  V  V77  1  0.00131700  0.62531734  0.12509852  1
  V  V78  1  0.62557215  0.00077117  0.12503627  1
  V  V79  1  -0.00460643  0.12322319  0.63252958  1
  V  V80  1  0.37595944  0.12515683  0.75046015  1
  V  V81  1  0.37538106  0.12528720  0.24974142  1
  V  V82  1  0.24825800  0.87468032  0.62422486  1
  V  V83  1  0.37533872  0.87430847  0.49890527  1
  V  V84  1  0.87831368  0.24953157  0.13103862  1
  V  V85  1  0.62511805  0.25197623  0.87474082  1
  V  V86  1  0.62563159  0.49962714  0.62467369  1
  V  V87  1  0.87674907  0.62540941  0.25001029  1
  V  V88  1  0.37661049  0.87526216  -0.00006318  1
  V  V89  1  0.75030635  0.50120626  0.24830359  1
  V  V90  1  0.37528284  0.25085537  0.12584482  1
  V  V91  1  0.37502417  0.37642378  0.00196759  1
  V  V92  1  0.75248683  0.25245079  0.00097727  1
  Zn  Zn93  1  0.87536592  0.49691347  0.37352696  1
  Zn  Zn94  1  0.25034121  0.25032313  0.00161996  1
  Zn  Zn95  1  -0.00436258  0.36816984  0.37099088  1
  Zn  Zn96  1  0.24760101  0.24994708  0.50021018  1
  Zn  Zn97  1  0.49919066  0.62380034  0.62610104  1
  Zn  Zn98  1  0.87779761  0.75084310  0.12123821  1
  Zn  Zn99  1  0.12691120  0.12569226  0.00374182  1
  Zn  Zn100  1  -0.00613582  0.24555005  0.75431568  1
  Zn  Zn101  1  0.75081542  0.74984674  0.49860466  1
  Zn  Zn102  1  0.38300672  0.62845458  0.25623424  1
  Zn  Zn103  1  0.12269283  0.00013529  0.12751276  1
  Zn  Zn104  1  0.12343492  0.12728636  0.50291867  1
  Zn  Zn105  1  0.87547093  0.87021461  0.49878375  1
  Zn  Zn106  1  0.87585148  0.37615807  0.00162999  1
  Zn  Zn107  1  0.75260443  0.37557577  0.12597413  1
  Zn  Zn108  1  0.50000162  -0.00173134  0.49936505  1
  Zn  Zn109  1  0.12566921  0.62449866  -0.00074052  1
  Zn  Zn110  1  0.87436794  0.87401529  -0.00196397  1
  Zn  Zn111  1  0.75350892  0.75191683  -0.00194564  1
  Zn  Zn112  1  0.25031722  -0.00150995  0.75011100  1
  Zn  Zn113  1  0.61996216  0.74591194  0.36952429  1
  Zn  Zn114  1  0.62738887  0.75197087  0.87464501  1
  Zn  Zn115  1  0.87933779  0.12935353  0.25440804  1
  Zn  Zn116  1  0.50090775  0.25009091  0.24977183  1
  Zn  Zn117  1  0.50803316  0.63144761  0.13698037  1
  Zn  Zn118  1  0.50178753  0.25175628  0.74978959  1
  Zn  Zn119  1  0.37381045  0.62450090  0.74971664  1
  Zn  Zn120  1  0.62321265  0.37547164  0.75005982  1
  Zn  Zn121  1  0.25074101  0.62537664  0.87301541  1
  Zn  Zn122  1  0.18680411  0.18733524  0.18912984  1
  Zn  Zn123  1  0.18595940  0.18592459  0.68963705  1
  Zn  Zn124  1  0.18929520  0.68588762  0.18794494  1
  Zn  Zn125  1  0.18561912  0.68539029  0.68725913  1
  Zn  Zn126  1  0.68907596  0.18844479  0.18850423  1
  Zn  Zn127  1  0.68619104  0.18768547  0.68907563  1
  Zn  Zn128  1  0.69059404  0.68884746  0.18574158  1
  Zn  Zn129  1  0.68753430  0.68833829  0.68681072  1
  Zn  Zn130  1  0.30946337  0.31141786  0.31132489  1
  Zn  Zn131  1  0.31299804  0.31251807  0.81207670  1
  Zn  Zn132  1  0.31103284  0.81294831  0.31251423  1
  Zn  Zn133  1  0.31226801  0.81408444  0.81161488  1
  Zn  Zn134  1  0.81110630  0.31355584  0.31310980  1
  Zn  Zn135  1  0.81069393  0.31794065  0.81338243  1
  Zn  Zn136  1  0.81464042  0.81193328  0.30947330  1
  Zn  Zn137  1  0.81427114  0.81514981  0.81035108  1
  Zn  Zn138  1  0.18541577  0.43511221  0.43716270  1
  Zn  Zn139  1  0.18831918  0.43645135  0.93830799  1
  Zn  Zn140  1  0.18526463  0.93765622  0.43873465  1
  Zn  Zn141  1  0.18761167  0.93695224  0.93956302  1
  Zn  Zn142  1  0.68792911  0.43859154  0.43680579  1
  Zn  Zn143  1  0.68745860  0.43844962  0.93750996  1
  Zn  Zn144  1  0.68482146  0.93757246  0.43641919  1
  Zn  Zn145  1  0.68804897  0.93940585  0.93642691  1
  Zn  Zn146  1  0.31288218  0.06252644  0.06277462  1
  Zn  Zn147  1  0.31205854  0.05990243  0.56233337  1
  Zn  Zn148  1  0.31273869  0.56430255  0.06268990  1
  Zn  Zn149  1  0.31228647  0.56295421  0.56425335  1
  Zn  Zn150  1  0.81638948  0.06309592  0.06011579  1
  Zn  Zn151  1  0.81327685  0.06142290  0.56014367  1
  Zn  Zn152  1  0.81425789  0.56401240  0.06109485  1
  Zn  Zn153  1  0.81473233  0.56391082  0.56207695  1
  Zn  Zn154  1  0.44008923  0.44106452  0.18850565  1
  Zn  Zn155  1  0.43766262  0.43657248  0.68868460  1
  Zn  Zn156  1  0.43450130  0.93739046  0.18796663  1
  Zn  Zn157  1  0.43660656  0.93820237  0.68724335  1
  Zn  Zn158  1  0.93530448  0.43849444  0.18525534  1
  Zn  Zn159  1  0.93724962  0.43637222  0.68715985  1
  Zn  Zn160  1  0.93707089  0.93993022  0.18907715  1
  Zn  Zn161  1  0.93651339  0.93423274  0.68793365  1
  Zn  Zn162  1  0.06281422  0.06188489  0.31304731  1
  Zn  Zn163  1  0.06461468  0.06012665  0.81060687  1
  Zn  Zn164  1  0.06372007  0.56204345  0.31147728  1
  Zn  Zn165  1  0.06541259  0.56239865  0.81360471  1
  Zn  Zn166  1  0.56179360  0.05841235  0.31218691  1
  Zn  Zn167  1  0.56479598  0.06459253  0.81090790  1
  Zn  Zn168  1  0.56032398  0.56161332  0.31192638  1
  Zn  Zn169  1  0.56430682  0.56213395  0.81303890  1
  Zn  Zn170  1  0.43681321  0.18794503  0.43881761  1
  Zn  Zn171  1  0.43782606  0.19005960  0.93916321  1
  Zn  Zn172  1  0.43716464  0.68645794  0.43819491  1
  Zn  Zn173  1  0.43767126  0.68688535  0.93682594  1
  Zn  Zn174  1  0.93584744  0.18387395  0.44402751  1
  Zn  Zn175  1  0.93840520  0.18684309  0.94203075  1
  Zn  Zn176  1  0.93434090  0.68864669  0.44298192  1
  Zn  Zn177  1  0.93671871  0.68838545  0.93968227  1
  Zn  Zn178  1  0.06159101  0.31321150  0.06146827  1
  Zn  Zn179  1  0.06176881  0.30863796  0.56103591  1
  Zn  Zn180  1  0.06217406  0.81287883  0.05954085  1
  Zn  Zn181  1  0.05860787  0.81024367  0.56059934  1
  Zn  Zn182  1  0.56246544  0.31417353  0.06329771  1
  Zn  Zn183  1  0.56111915  0.31177135  0.56302672  1
  Zn  Zn184  1  0.56596446  0.81348634  0.06033190  1
  Zn  Zn185  1  0.56187418  0.81204165  0.56046434  1
  O  O186  1  0.11633467  0.12415860  0.12264389  1
  O  O187  1  0.11608773  0.11809576  0.62499759  1
  O  O188  1  0.11973974  0.61751451  0.12395747  1
  O  O189  1  0.11662771  0.61973237  0.61857133  1
  O  O190  1  0.62042997  0.12020570  0.11997623  1
  O  O191  1  0.61985675  0.12035257  0.61941200  1
  O  O192  1  0.62770716  0.62110001  0.11438584  1
  O  O193  1  0.62541783  0.61880601  0.61419598  1
  O  O194  1  0.37784393  0.37867231  0.38089974  1
  O  O195  1  0.37998318  0.38046026  0.88197872  1
  O  O196  1  0.38086075  0.87851244  0.37837451  1
  O  O197  1  0.38067715  0.88141174  0.88028624  1
  O  O198  1  0.87820468  0.37543188  0.38322326  1
  O  O199  1  0.88073263  0.38652618  0.87712678  1
  O  O200  1  0.88494782  0.87969191  0.37560608  1
  O  O201  1  0.88520841  0.88371533  0.87440008  1
  O  O202  1  0.25336531  0.00480214  0.36827826  1
  O  O203  1  0.25579600  0.00847735  0.87623935  1
  O  O204  1  0.25324346  0.50451931  0.37151251  1
  O  O205  1  0.25537082  0.50007294  0.86901835  1
  O  O206  1  0.75436515  0.00398370  0.37053179  1
  O  O207  1  0.75884774  0.00492741  0.87077953  1
  O  O208  1  0.75039497  0.51118778  0.36820236  1
  O  O209  1  0.75685848  0.50667245  0.86859010  1
  O  O210  1  0.24567656  0.49512797  0.13012338  1
  O  O211  1  0.24268762  0.49402248  0.62989481  1
  O  O212  1  0.25131536  0.99216968  0.13181323  1
  O  O213  1  0.24206945  0.99184138  0.62562992  1
  O  O214  1  0.74458352  0.49972563  0.13018824  1
  O  O215  1  0.74756536  0.49652987  0.63174599  1
  O  O216  1  0.74517960  0.99457580  0.12835329  1
  O  O217  1  0.74671146  0.99267169  0.62909682  1
  O  O218  1  0.01405972  0.38262295  0.25145212  1
  O  O219  1  0.00641242  0.37331170  0.75691067  1
  O  O220  1  -0.00413127  0.86564652  0.25923410  1
  O  O221  1  0.01079326  0.87992814  0.76158059  1
  O  O222  1  0.50730133  0.37479259  0.25758931  1
  O  O223  1  0.50259208  0.37306399  0.75945328  1
  O  O224  1  0.50942737  0.88310758  0.25764428  1
  O  O225  1  0.50473078  0.86825836  0.75399268  1
  O  O226  1  0.49364937  0.12403415  0.24341998  1
  O  O227  1  0.49380513  0.12692831  0.74336154  1
  O  O228  1  0.49592577  0.62557768  0.24910728  1
  O  O229  1  0.50076644  0.63756372  0.74934832  1
  O  O230  1  0.99817433  0.11733372  0.23563025  1
  O  O231  1  1.00187413  0.12415605  0.73685703  1
  O  O232  1  0.99624499  0.63194703  0.24560880  1
  O  O233  1  1.00445639  0.61741888  0.73457659  1
  O  O234  1  0.37395104  0.25843893  0.00785693  1
  O  O235  1  0.37083834  0.25614155  0.50682996  1
  O  O236  1  0.36708666  0.75553092  0.00625955  1
  O  O237  1  0.36836270  0.75499649  0.50532446  1
  O  O238  1  0.86552987  0.25055297  0.00745550  1
  O  O239  1  0.86836073  0.25483739  0.50990550  1
  O  O240  1  0.87162514  0.75655843  0.00346004  1
  O  O241  1  0.86856869  0.75268603  0.51094378  1
  O  O242  1  0.12943406  0.24748117  0.48942523  1
  O  O243  1  0.12717523  0.24932316  0.98634785  1
  O  O244  1  0.12998036  0.74417174  0.49377624  1
  O  O245  1  0.13516773  0.75185854  0.99091305  1
  O  O246  1  0.63056974  0.24463408  0.49458554  1
  O  O247  1  0.63400765  0.24521702  0.99637010  1
  O  O248  1  0.62702343  0.73725821  0.49737596  1
  O  O249  1  0.62903290  0.73995757  0.99647415  1
  O  O250  1  0.49433808  0.24301531  0.12640819  1
  O  O251  1  0.49212591  0.24273449  0.62586829  1
  O  O252  1  0.48443972  0.75337836  0.11813854  1
  O  O253  1  0.49432518  0.75112891  0.63446454  1
  O  O254  1  0.98969282  0.23974488  0.11507866  1
  O  O255  1  0.99120941  0.24090357  0.62646912  1
  O  O256  1  1.00262646  0.74645304  0.13337892  1
  O  O257  1  0.99109429  0.73887740  0.61792277  1
  O  O258  1  0.01192459  0.24705551  0.38095102  1
  O  O259  1  0.00674563  0.25386553  0.87453619  1
  O  O260  1  0.00370060  0.75584511  0.36897087  1
  O  O261  1  0.01139677  0.76173096  0.88382278  1
  O  O262  1  0.50638973  0.25605028  0.37396197  1
  O  O263  1  0.50725085  0.25696217  0.87633427  1
  O  O264  1  0.49887212  0.76369516  0.37690068  1
  O  O265  1  0.50047568  0.75767296  0.86572601  1
  O  O266  1  0.24808803  0.12268777  0.48619246  1
  O  O267  1  0.24908678  0.12685611  0.98846112  1
  O  O268  1  0.24264226  0.62964121  0.49555935  1
  O  O269  1  0.24804064  0.63832568  0.99832235  1
  O  O270  1  0.74331449  0.13014815  0.49441197  1
  O  O271  1  0.74582048  0.13342571  0.99351860  1
  O  O272  1  0.74097897  0.62179647  0.49079949  1
  O  O273  1  0.74208117  0.62468685  0.98951777  1
  O  O274  1  0.25723626  0.37457686  0.00847099  1
  O  O275  1  0.25555306  0.37506977  0.50743890  1
  O  O276  1  0.25660172  0.86795895  0.00699904  1
  O  O277  1  0.25430491  0.86806379  0.50394198  1
  O  O278  1  0.75100837  0.36306988  0.00093419  1
  O  O279  1  0.75502040  0.37000680  0.50530437  1
  O  O280  1  0.74887104  0.87622044  0.01075290  1
  O  O281  1  0.74811941  0.87446445  0.51206098  1
  O  O282  1  0.13161231  0.49223383  0.24497189  1
  O  O283  1  0.13015073  0.49273533  0.74472478  1
  O  O284  1  0.13997558  1.00304022  0.24853230  1
  O  O285  1  0.12776565  0.98742985  0.74434573  1
  O  O286  1  0.63116754  0.49570839  0.24416232  1
  O  O287  1  0.63504519  0.49902741  0.74358954  1
  O  O288  1  0.63150619  0.99130871  0.24384579  1
  O  O289  1  0.63156440  0.99458838  0.74348939  1
  O  O290  1  0.36509632  0.00572144  0.25534432  1
  O  O291  1  0.37306180  0.00605341  0.75785785  1
  O  O292  1  0.36711344  0.49885363  0.25855095  1
  O  O293  1  0.36815039  0.49995567  0.75630475  1
  O  O294  1  0.86788751  0.00268756  0.25809345  1
  O  O295  1  0.86960918  -0.00579801  0.76195220  1
  O  O296  1  0.86943256  0.50712629  0.25204284  1
  O  O297  1  0.86475781  0.49550671  0.75959861  1
  O  O298  1  0.12368996  0.36568306  0.36713034  1
  O  O299  1  0.12051985  0.36697571  0.87013748  1
  O  O300  1  0.11238642  0.86819111  0.37940643  1
  O  O301  1  0.11969488  0.86980425  0.86853939  1
  O  O302  1  0.61962770  0.37008828  0.37108303  1
  O  O303  1  0.61850523  0.36981126  0.87618792  1
  O  O304  1  0.61708835  0.87361944  0.36637384  1
  O  O305  1  0.61961862  0.87536825  0.86745174  1
  O  O306  1  0.38000751  0.13009815  0.12953409  1
  O  O307  1  0.37821231  0.12807744  0.63006163  1
  O  O308  1  0.37587665  0.64119066  0.12339984  1
  O  O309  1  0.37840193  0.63362876  0.62721621  1
  O  O310  1  0.88287818  0.13215655  0.12572563  1
  O  O311  1  0.88193088  0.13435546  0.61945970  1
  O  O312  1  0.88314317  0.62645334  0.13188272  1
  O  O313  1  0.88311033  0.63278702  0.62033173  1
  O  O314  1  0.25674148  0.25638395  0.12449365  1
  O  O315  1  0.25444484  0.25519666  0.62469333  1
  O  O316  1  0.25651649  0.75649019  0.11739752  1
  O  O317  1  0.25330713  0.75518938  0.61895618  1
  O  O318  1  0.75778628  0.24873221  0.11489246  1
  O  O319  1  0.75558090  0.25372299  0.61997041  1
  O  O320  1  0.75318848  0.76358793  0.12422385  1
  O  O321  1  0.75563189  0.75880665  0.62495868  1
  O  O322  1  0.24181900  0.23867200  0.37455365  1
  O  O323  1  0.24216504  0.24173753  0.87573414  1
  O  O324  1  0.24497962  0.74508544  0.38010228  1
  O  O325  1  0.24265468  0.75358812  0.88454050  1
  O  O326  1  0.74421809  0.24408340  0.38138258  1
  O  O327  1  0.74744231  0.24669017  0.88287024  1
  O  O328  1  0.74741312  0.73737432  0.37378984  1
  O  O329  1  0.75013520  0.73968474  0.87238325  1
  O  O330  1  0.00173611  0.11494380  0.00882814  1
  O  O331  1  0.00166167  0.11621083  0.51249661  1
  O  O332  1  0.00309416  0.61903577  0.00686665  1
  O  O333  1  0.00465804  0.61491076  0.50521760  1
  O  O334  1  0.50579370  0.11993222  0.00557997  1
  O  O335  1  0.50553494  0.12234173  0.50622577  1
  O  O336  1  0.51271340  0.62149869  -0.00059870  1
  O  O337  1  0.51023019  0.61836233  0.49920162  1
  O  O338  1  0.49336278  0.37977816  0.49493379  1
  O  O339  1  0.49486071  0.38286583  0.99566408  1
  O  O340  1  0.49395416  0.87628592  0.49041788  1
  O  O341  1  0.49708003  0.88173139  0.99387679  1
  O  O342  1  0.99503928  0.38408296  0.50128922  1
  O  O343  1  0.99941771  0.38338316  0.99201178  1
  O  O344  1  0.99801265  0.88028998  0.48916787  1
  O  O345  1  1.00151070  0.88510128  0.98954030  1
  O  O346  1  0.49326045  0.49245288  0.38244290  1
  O  O347  1  0.49508244  0.49553265  0.88113113  1
  O  O348  1  0.49276858  0.98931232  0.37676148  1
  O  O349  1  0.49585222  0.99651657  0.88034626  1
  O  O350  1  1.00023805  0.49847193  0.38792032  1
  O  O351  1  0.99355224  0.49757957  0.87858722  1
  O  O352  1  0.99633289  0.99255950  0.37812930  1
  O  O353  1  0.99521556  0.99472613  0.88024903  1
  O  O354  1  0.00043714  0.00553966  0.11631389  1
  O  O355  1  0.00214316  0.00442592  0.62143668  1
  O  O356  1  0.00595118  0.50530813  0.11951601  1
  O  O357  1  0.00304204  0.50551606  0.61597152  1
  O  O358  1  0.50467664  0.00478304  0.11890401  1
  O  O359  1  0.50697055  0.00553053  0.62348180  1
  O  O360  1  0.50773253  0.50399920  0.11716045  1
  O  O361  1  0.50653272  0.50085861  0.61868058  1
  O  O362  1  0.24071466  0.38114725  0.24509442  1
  O  O363  1  0.24353309  0.38015110  0.74426125  1
  O  O364  1  0.25687004  0.88474162  0.24027673  1
  O  O365  1  0.24045692  0.87632276  0.74347195  1
  O  O366  1  0.74311133  0.38351313  0.24995576  1
  O  O367  1  0.74676579  0.38745967  0.74420446  1
  O  O368  1  0.74249424  0.88114646  0.24252150  1
  O  O369  1  0.74463270  0.88221499  0.74045964  1
  O  O370  1  0.25536071  0.11686827  0.25870305  1
  O  O371  1  0.25534498  0.12214135  0.76179466  1
  O  O372  1  0.25382744  0.61861191  0.25773741  1
  O  O373  1  0.25082984  0.61608769  0.75163239  1
  O  O374  1  0.74986756  0.11791026  0.25760177  1
  O  O375  1  0.74393782  0.11613874  0.75830086  1
  O  O376  1  0.75494387  0.62143443  0.25643987  1
  O  O377  1  0.74345110  0.61441005  0.75956215  1
  O  O378  1  0.36688555  0.12017222  0.37070252  1
  O  O379  1  0.36808925  0.12177047  0.87191845  1
  O  O380  1  0.36680344  0.61729923  0.37809484  1
  O  O381  1  0.37220472  0.61708258  0.87247996  1
  O  O382  1  0.86802762  0.11882221  0.37522961  1
  O  O383  1  0.87047371  0.11395804  0.88025073  1
  O  O384  1  0.86596634  0.62346332  0.37034707  1
  O  O385  1  0.86615376  0.61451997  0.87959290  1
  O  O386  1  0.12977208  0.37872983  0.13203808  1
  O  O387  1  0.12836437  0.37912324  0.62994522  1
  O  O388  1  0.14034959  0.87680677  0.11859739  1
  O  O389  1  0.12661593  0.87649442  0.63192758  1
  O  O390  1  0.62774429  0.38197931  0.13129064  1
  O  O391  1  0.63249901  0.38161774  0.62371815  1
  O  O392  1  0.63149355  0.88119884  0.13060045  1
  O  O393  1  0.63281256  0.87959532  0.62881993  1
  O  O394  1  0.12990954  0.26039724  0.25936650  1
  O  O395  1  0.12252959  0.25478109  0.76182550  1
  O  O396  1  0.11306344  0.74307077  0.25696949  1
  O  O397  1  0.13164281  0.76084215  0.76081826  1
  O  O398  1  0.62466474  0.25705720  0.25677243  1
  O  O399  1  0.62402105  0.25398703  0.75930891  1
  O  O400  1  0.62807117  0.76490582  0.24851316  1
  O  O401  1  0.61544333  0.75656818  0.75012924  1
  O  O402  1  0.37657453  0.24328348  0.24415404  1
  O  O403  1  0.37648659  0.24275820  0.74359419  1
  O  O404  1  0.36906673  0.75098055  0.23369782  1
  O  O405  1  0.38429020  0.75153004  0.74502991  1
  O  O406  1  0.86727771  0.24807060  0.23584119  1
  O  O407  1  0.87339480  0.25604189  0.73658743  1
  O  O408  1  0.88845597  0.74367039  0.24788997  1
  O  O409  1  0.87318841  0.75439634  0.73465278  1
  O  O410  1  0.37920165  0.49380244  0.49586728  1
  O  O411  1  0.38029558  0.49601843  0.99581556  1
  O  O412  1  0.37480946  0.99124230  0.49265441  1
  O  O413  1  0.38198204  0.99518259  0.99547155  1
  O  O414  1  0.88346609  0.49310241  0.49955381  1
  O  O415  1  0.88087452  0.49873896  0.98934330  1
  O  O416  1  0.88137544  0.99609073  0.49228400  1
  O  O417  1  0.88552000  0.99699123  0.98899894  1
  O  O418  1  0.11340649  0.00219064  0.00040880  1
  O  O419  1  0.11675871  0.00075284  0.50760040  1
  O  O420  1  0.11946050  0.50123325  0.00605723  1
  O  O421  1  0.11711810  0.50351068  0.50587184  1
  O  O422  1  0.62036571  0.00677806  0.00494831  1
  O  O423  1  0.62395652  0.00713418  0.50679272  1
  O  O424  1  0.62171809  0.50898297  0.00401689  1
  O  O425  1  0.62013991  0.50744712  0.50425030  1
  O  O426  1  0.37090441  0.37145498  0.12179564  1
  O  O427  1  0.36873464  0.36942932  0.62052059  1
  O  O428  1  0.36724233  0.86578423  0.11951395  1
  O  O429  1  0.36857582  0.86988132  0.61932924  1
  O  O430  1  0.87345653  0.36508802  0.12139372  1
  O  O431  1  0.86921385  0.36651792  0.61953764  1
  O  O432  1  0.86335383  0.87743878  0.12430174  1
  O  O433  1  0.86622892  0.86846369  0.62354866  1
  O  O434  1  0.13259021  0.13131494  0.37435006  1
  O  O435  1  0.13250463  0.13181771  0.87416420  1
  O  O436  1  0.13035996  0.63029622  0.38105788  1
  O  O437  1  0.12670046  0.63801659  0.87641135  1
  O  O438  1  0.62904035  0.12915205  0.37981116  1
  O  O439  1  0.63163621  0.13092248  0.88189648  1
  O  O440  1  0.63282088  0.62437783  0.38242214  1
  O  O441  1  0.63564464  0.62495014  0.88315077  1
