# generated using pymatgen
data_V93Zn93O256
_symmetry_space_group_name_H-M   'P 1'
_cell_length_a   17.05712523
_cell_length_b   17.05849122
_cell_length_c   17.05112151
_cell_angle_alpha   89.93815903
_cell_angle_beta   89.98759352
_cell_angle_gamma   90.04443367
_symmetry_Int_Tables_number   1
_chemical_formula_structural   V93Zn93O256
_chemical_formula_sum   'V93 Zn93 O256'
_cell_volume   4961.34021980
_cell_formula_units_Z   1
loop_
 _symmetry_equiv_pos_site_id
 _symmetry_equiv_pos_as_xyz
  1  'x, y, z'
loop_
 _atom_site_type_symbol
 _atom_site_label
 _atom_site_symmetry_multiplicity
 _atom_site_fract_x
 _atom_site_fract_y
 _atom_site_fract_z
 _atom_site_occupancy
  V  V0  1  0.49776333  0.74963336  0.24874230  1
  V  V1  1  0.74965100  0.00454223  0.25651546  1
  V  V2  1  0.87456402  0.87384210  0.49998341  1
  V  V3  1  0.62389122  0.87570752  0.24906841  1
  V  V4  1  0.49817653  0.38062469  0.87426378  1
  V  V5  1  0.12430362  0.37575662  0.25019372  1
  V  V6  1  0.74878318  0.87382250  0.62616711  1
  V  V7  1  0.63168072  0.24542131  0.37409175  1
  V  V8  1  0.24983274  0.25097728  -0.00120653  1
  V  V9  1  0.49726097  0.87493586  0.37460440  1
  V  V10  1  0.75024815  0.25144323  -0.00179334  1
  V  V11  1  0.50045079  0.25091754  0.24938006  1
  V  V12  1  -0.00158428  0.74231646  0.75278411  1
  V  V13  1  0.37396107  0.74616758  0.62703986  1
  V  V14  1  0.87509394  0.00092602  0.87416725  1
  V  V15  1  0.62433063  0.00166959  0.12425692  1
  V  V16  1  0.50321098  0.24928432  0.74791884  1
  V  V17  1  0.87508173  0.74129520  0.63113210  1
  V  V18  1  0.24888654  0.12570968  0.87472520  1
  V  V19  1  0.87659322  0.50577146  0.86855378  1
  V  V20  1  -0.00069724  0.75174195  0.25131908  1
  V  V21  1  0.50039678  0.74847835  0.75069192  1
  V  V22  1  0.37498701  0.49768602  0.37716269  1
  V  V23  1  0.75045618  0.74916955  0.50076535  1
  V  V24  1  0.62400710  0.62341780  0.50006981  1
  V  V25  1  0.12438808  0.75002249  0.37759594  1
  V  V26  1  0.50085053  0.62515317  0.12415894  1
  V  V27  1  0.00054103  0.50022991  0.50099517  1
  V  V28  1  0.49990312  0.87413539  0.87478108  1
  V  V29  1  0.12449338  0.62459205  0.50334764  1
  V  V30  1  0.37473215  -0.00203400  0.37485479  1
  V  V31  1  0.00032348  0.62720549  0.12529705  1
  V  V32  1  0.12334320  -0.00925058  0.62760597  1
  V  V33  1  0.24586868  -0.00626245  0.75135287  1
  V  V34  1  -0.00207489  0.12345527  0.62631524  1
  V  V35  1  0.87432794  0.37775551  0.00008963  1
  V  V36  1  0.75110943  0.00074296  0.74982045  1
  V  V37  1  0.00042943  0.37517440  0.37364178  1
  V  V38  1  0.63161058  0.12329266  0.49547313  1
  V  V39  1  0.37225592  0.37312425  0.50540387  1
  V  V40  1  0.24884612  0.87111398  0.62803037  1
  V  V41  1  0.13238042  0.63493406  0.00254640  1
  V  V42  1  0.25322276  0.62153613  0.87113312  1
  V  V43  1  0.74878129  0.50071877  0.24863636  1
  V  V44  1  0.24818698  -0.00123560  0.24881663  1
  V  V45  1  0.12511714  0.50299599  0.12675107  1
  V  V46  1  0.37426701  0.25140433  0.12372423  1
  V  V47  1  -0.00031192  -0.00297931  0.49800611  1
  V  V48  1  0.87522439  0.25084436  0.12514476  1
  V  V49  1  0.12638906  0.25057484  0.37417111  1
  V  V50  1  -0.00133993  0.12644541  0.12443334  1
  V  V51  1  0.74904759  0.87592744  0.12455710  1
  V  V52  1  -0.00002979  0.00120164  -0.00098345  1
  V  V53  1  0.12987100  0.75452324  0.87349981  1
  V  V54  1  0.00486819  0.37048021  0.87028795  1
  V  V55  1  0.25026346  0.37542823  0.12429410  1
  V  V56  1  0.25074674  0.50048403  0.25076918  1
  V  V57  1  0.87436207  0.75150537  0.12556771  1
  V  V58  1  0.12465316  0.13123034  -0.00523997  1
  V  V59  1  0.62484850  0.37494031  0.24991587  1
  V  V60  1  0.00433278  0.87558309  0.86805461  1
  V  V61  1  0.37543665  0.24729292  0.62298423  1
  V  V62  1  0.74929114  0.62534429  0.37451996  1
  V  V63  1  0.25133760  0.24841891  0.49944463  1
  V  V64  1  0.37497065  0.62419377  0.25181645  1
  V  V65  1  0.62570500  0.12627601  -0.00053361  1
  V  V66  1  0.12476955  0.00075497  0.12568339  1
  V  V67  1  0.12393385  0.87564899  0.25060005  1
  V  V68  1  0.37424724  0.12508287  0.24875351  1
  V  V69  1  0.87414167  0.62648481  0.25000674  1
  V  V70  1  0.36807616  0.86897380  0.00287546  1
  V  V71  1  0.75551597  0.62666088  0.86840466  1
  V  V72  1  0.13046763  0.49555167  0.63429464  1
  V  V73  1  0.37591095  0.00093484  0.87552658  1
  V  V74  1  0.50005624  0.12620533  0.12282048  1
  V  V75  1  0.62383157  0.74985316  0.37490116  1
  V  V76  1  0.87161801  0.12544773  0.25681908  1
  V  V77  1  0.87354690  0.37415157  0.49987386  1
  V  V78  1  0.74971312  0.37747792  0.12416959  1
  V  V79  1  0.87551592  0.87637967  0.00011738  1
  V  V80  1  0.62546197  0.49891512  0.62297256  1
  V  V81  1  0.50063778  0.62366533  0.62524711  1
  V  V82  1  0.62599677  0.75041533  0.87509779  1
  V  V83  1  0.74933881  0.75069754  -0.00108306  1
  V  V84  1  0.62890605  0.37527129  0.75013360  1
  V  V85  1  0.87496043  0.50034917  0.37504439  1
  V  V86  1  0.75171648  0.37077948  0.62318718  1
  V  V87  1  0.75123112  0.12570487  0.87469631  1
  V  V88  1  0.24972370  0.12455704  0.37406907  1
  V  V89  1  0.62477702  -0.00152424  0.62448900  1
  V  V90  1  0.50142110  0.12284925  0.62392809  1
  V  V91  1  -0.00000641  0.50291420  0.00068124  1
  V  V92  1  0.49583040  0.50105751  -0.00393535  1
  Zn  Zn93  1  0.37295457  0.37934478  -0.00391574  1
  Zn  Zn94  1  0.62602841  0.62409109  -0.00100552  1
  Zn  Zn95  1  0.24991977  0.74904327  0.50151928  1
  Zn  Zn96  1  0.37708288  0.12289159  0.74809413  1
  Zn  Zn97  1  -0.00306346  0.87601118  0.37458050  1
  Zn  Zn98  1  0.75653793  0.50389583  0.74668858  1
  Zn  Zn99  1  0.62491498  0.50037668  0.12408070  1
  Zn  Zn100  1  0.25049130  0.62489342  0.37765083  1
  Zn  Zn101  1  0.75549537  0.24333436  0.49472068  1
  Zn  Zn102  1  0.62440237  0.87556099  0.74991593  1
  Zn  Zn103  1  -0.00441777  0.61933932  0.63399699  1
  Zn  Zn104  1  0.38077543  0.61332026  0.75859997  1
  Zn  Zn105  1  0.37512953  0.87361902  0.49971810  1
  Zn  Zn106  1  0.49936019  0.49703976  0.50035358  1
  Zn  Zn107  1  0.24366578  0.86790826  0.12057654  1
  Zn  Zn108  1  0.36648472  0.74596581  0.12308945  1
  Zn  Zn109  1  0.87095842  0.00243532  0.37804285  1
  Zn  Zn110  1  0.87743107  0.13050546  0.75169787  1
  Zn  Zn111  1  0.16477630  0.30163241  0.82952848  1
  Zn  Zn112  1  0.49860839  -0.00246501  0.50000619  1
  Zn  Zn113  1  0.50040154  0.00117036  -0.00075124  1
  Zn  Zn114  1  0.87757433  0.24902784  0.62578885  1
  Zn  Zn115  1  -0.00078906  0.24975185  0.25026970  1
  Zn  Zn116  1  0.00900477  0.25093985  0.74527921  1
  Zn  Zn117  1  0.25793480  0.48399344  0.75769054  1
  Zn  Zn118  1  0.62662405  0.25058159  0.87485516  1
  Zn  Zn119  1  0.50076702  0.37300105  0.37607202  1
  Zn  Zn120  1  0.12524203  0.12295180  0.49795635  1
  Zn  Zn121  1  0.19945622  0.33045051  0.66955258  1
  Zn  Zn122  1  0.18652044  0.18828006  0.18652132  1
  Zn  Zn123  1  0.18607495  0.16975330  0.68554406  1
  Zn  Zn124  1  0.19087634  0.69017009  0.19035848  1
  Zn  Zn125  1  0.18209820  0.68651320  0.69247606  1
  Zn  Zn126  1  0.68861911  0.18878375  0.18608072  1
  Zn  Zn127  1  0.68816537  0.18572033  0.68583116  1
  Zn  Zn128  1  0.68565491  0.68871989  0.18722165  1
  Zn  Zn129  1  0.68574598  0.68812303  0.68881636  1
  Zn  Zn130  1  0.31262132  0.31347357  0.31295776  1
  Zn  Zn131  1  0.32716513  0.31029634  0.81170750  1
  Zn  Zn132  1  0.30977070  0.81165309  0.31028496  1
  Zn  Zn133  1  0.31411467  0.80922496  0.81271599  1
  Zn  Zn134  1  0.81237707  0.31316638  0.31082334  1
  Zn  Zn135  1  0.81993117  0.31088397  0.81000123  1
  Zn  Zn136  1  0.81148425  0.81582965  0.31369780  1
  Zn  Zn137  1  0.81425449  0.81466504  0.81149941  1
  Zn  Zn138  1  0.18861843  0.43639705  0.44169846  1
  Zn  Zn139  1  0.18785978  0.44517772  0.94483847  1
  Zn  Zn140  1  0.18825171  0.93498491  0.43922008  1
  Zn  Zn141  1  0.18602253  0.93976805  0.93885207  1
  Zn  Zn142  1  0.68685754  0.43511372  0.43611048  1
  Zn  Zn143  1  0.68549041  0.44291906  0.93758263  1
  Zn  Zn144  1  0.68506805  0.93574936  0.43868163  1
  Zn  Zn145  1  0.68657804  0.93863650  0.93669058  1
  Zn  Zn146  1  0.31072223  0.06112514  0.06244975  1
  Zn  Zn147  1  0.31348603  0.06089521  0.56023096  1
  Zn  Zn148  1  0.31375518  0.56361209  0.06130562  1
  Zn  Zn149  1  0.31091458  0.56067413  0.56626056  1
  Zn  Zn150  1  0.81184269  0.06365272  0.06463111  1
  Zn  Zn151  1  0.81323522  0.06044899  0.56412292  1
  Zn  Zn152  1  0.81242393  0.56432300  0.05898081  1
  Zn  Zn153  1  0.81061916  0.56015531  0.56147331  1
  Zn  Zn154  1  0.43838823  0.43796039  0.18590928  1
  Zn  Zn155  1  0.43772119  0.43738058  0.68670114  1
  Zn  Zn156  1  0.43772131  0.93965319  0.18683680  1
  Zn  Zn157  1  0.43682551  0.93535296  0.68846200  1
  Zn  Zn158  1  0.93735208  0.43894924  0.18783111  1
  Zn  Zn159  1  0.94084786  0.43686639  0.68735696  1
  Zn  Zn160  1  0.93742101  0.93983679  0.18824602  1
  Zn  Zn161  1  0.93336261  0.93428673  0.68789122  1
  Zn  Zn162  1  0.06081223  0.06465760  0.31209791  1
  Zn  Zn163  1  0.06358903  0.06173376  0.81126934  1
  Zn  Zn164  1  0.06215354  0.56395518  0.31396680  1
  Zn  Zn165  1  0.06521983  0.56351912  0.81690221  1
  Zn  Zn166  1  0.56080270  0.06312745  0.31209508  1
  Zn  Zn167  1  0.56486279  0.06238944  0.81122790  1
  Zn  Zn168  1  0.56085039  0.56121601  0.31275564  1
  Zn  Zn169  1  0.56772628  0.56299575  0.81201294  1
  Zn  Zn170  1  0.44204709  0.18534285  0.43625952  1
  Zn  Zn171  1  0.43877369  0.19108361  0.93601197  1
  Zn  Zn172  1  0.43701596  0.68723534  0.43990476  1
  Zn  Zn173  1  0.43797960  0.68843508  0.93867052  1
  Zn  Zn174  1  0.93957505  0.18844599  0.43941885  1
  Zn  Zn175  1  0.93637941  0.18991600  0.93715588  1
  Zn  Zn176  1  0.93838086  0.68664395  0.44042371  1
  Zn  Zn177  1  0.93890582  0.68899183  0.93890485  1
  Zn  Zn178  1  0.06104046  0.31432932  0.06104628  1
  Zn  Zn179  1  0.06007422  0.31045015  0.55596182  1
  Zn  Zn180  1  0.06129377  0.81453144  0.06138650  1
  Zn  Zn181  1  0.05908907  0.81095120  0.56565517  1
  Zn  Zn182  1  0.56360073  0.31425241  0.06146406  1
  Zn  Zn183  1  0.56181744  0.31012260  0.55887128  1
  Zn  Zn184  1  0.55865303  0.81339120  0.06015385  1
  Zn  Zn185  1  0.56094750  0.81226841  0.56162821  1
  O  O186  1  0.11920504  0.12049993  0.11647798  1
  O  O187  1  0.11636163  0.10667016  0.61891739  1
  O  O188  1  0.12016420  0.62351932  0.12062176  1
  O  O189  1  0.12036490  0.61628731  0.61826318  1
  O  O190  1  0.61997138  0.12151903  0.11940240  1
  O  O191  1  0.62015156  0.11893957  0.61671647  1
  O  O192  1  0.61196390  0.62553210  0.12430073  1
  O  O193  1  0.62184014  0.61939491  0.61949755  1
  O  O194  1  0.37650316  0.38257686  0.38264573  1
  O  O195  1  0.39422397  0.37412260  0.87682964  1
  O  O196  1  0.37951310  0.87978084  0.37392930  1
  O  O197  1  0.37806453  0.88152546  0.88332918  1
  O  O198  1  0.87930221  0.38126837  0.37876002  1
  O  O199  1  0.88526101  0.38506749  0.88162691  1
  O  O200  1  0.87706249  0.87756215  0.38443913  1
  O  O201  1  0.88383042  0.88064971  0.88166373  1
  O  O202  1  0.25370640  0.00457411  0.36922720  1
  O  O203  1  0.25573067  0.00282543  0.86809079  1
  O  O204  1  0.26003162  0.49931643  0.37018898  1
  O  O205  1  0.24078445  0.51749933  0.87422887  1
  O  O206  1  0.74920122  -0.00577877  0.36001556  1
  O  O207  1  0.75590756  0.00547060  0.87056155  1
  O  O208  1  0.75552945  0.50593995  0.36910260  1
  O  O209  1  0.75946265  0.50900411  0.87485986  1
  O  O210  1  0.24476012  0.49581822  0.13018569  1
  O  O211  1  0.23255014  0.50137381  0.62689369  1
  O  O212  1  0.24217635  0.99739309  0.13138303  1
  O  O213  1  0.24414732  0.99214214  0.63155115  1
  O  O214  1  0.74992663  0.49613693  0.13065909  1
  O  O215  1  0.74542425  0.48948114  0.62694838  1
  O  O216  1  0.74424269  0.99428553  0.13320732  1
  O  O217  1  0.74494489  0.99304646  0.63001217  1
  O  O218  1  0.00612003  0.37511464  0.25591938  1
  O  O219  1  0.00063064  0.37739032  0.76771068  1
  O  O220  1  0.00502345  0.86962603  0.25210820  1
  O  O221  1  -0.00415378  0.86818624  0.76362312  1
  O  O222  1  0.50667135  0.36808141  0.24967140  1
  O  O223  1  0.51059083  0.37090615  0.75444510  1
  O  O224  1  0.50495929  0.86965327  0.25348672  1
  O  O225  1  0.49974919  0.86640009  0.75752790  1
  O  O226  1  0.49376673  0.13104158  0.24249656  1
  O  O227  1  0.50189662  0.13096160  0.74170844  1
  O  O228  1  0.49519841  0.62891082  0.24264650  1
  O  O229  1  0.50106683  0.63083544  0.74394951  1
  O  O230  1  0.99000062  0.12589692  0.24219373  1
  O  O231  1  1.00157398  0.12381955  0.73801491  1
  O  O232  1  0.99365867  0.63099711  0.24511751  1
  O  O233  1  1.00013347  0.63793636  0.75411083  1
  O  O234  1  0.36719906  0.25208607  0.00594299  1
  O  O235  1  0.37143638  0.25419149  0.50231607  1
  O  O236  1  0.37828322  0.76706120  -0.00018503  1
  O  O237  1  0.37087732  0.75082282  0.51258134  1
  O  O238  1  0.86923269  0.25731294  0.00580688  1
  O  O239  1  0.87251969  0.25740843  0.50258266  1
  O  O240  1  0.87041297  0.75696613  0.00649839  1
  O  O241  1  0.87017644  0.75392753  0.50856173  1
  O  O242  1  0.13359081  0.24789948  0.49188782  1
  O  O243  1  0.13104600  0.23825379  1.00570086  1
  O  O244  1  0.12216865  0.74202914  0.49477940  1
  O  O245  1  0.11703479  0.74166768  0.99060291  1
  O  O246  1  0.62683415  0.24138671  0.49065192  1
  O  O247  1  0.63335731  0.24444162  0.99884437  1
  O  O248  1  0.63107534  0.74354515  0.49477005  1
  O  O249  1  0.63188159  0.75055415  0.99328584  1
  O  O250  1  0.49435737  0.24553849  0.12916066  1
  O  O251  1  0.49677749  0.24197426  0.62866032  1
  O  O252  1  0.49532322  0.74134625  0.12981785  1
  O  O253  1  0.49263692  0.74480129  0.63012740  1
  O  O254  1  0.99269291  0.24495454  0.12571628  1
  O  O255  1  1.00196873  0.23423819  0.61920991  1
  O  O256  1  0.99377218  0.74642221  0.13120634  1
  O  O257  1  0.99254471  0.74847319  0.63588774  1
  O  O258  1  0.00778860  0.25759827  0.37379872  1
  O  O259  1  -0.00155106  0.26749684  0.87737738  1
  O  O260  1  0.00895802  0.75016220  0.37076119  1
  O  O261  1  0.00461383  0.75749670  0.87033129  1
  O  O262  1  0.51033535  0.25006757  0.36619257  1
  O  O263  1  0.50529560  0.25971059  0.86751215  1
  O  O264  1  0.50509643  0.75379476  0.36887546  1
  O  O265  1  0.50567764  0.75356941  0.87028398  1
  O  O266  1  0.24885660  0.12998970  0.49175000  1
  O  O267  1  0.24191590  0.12960686  0.99543173  1
  O  O268  1  0.23612751  0.62672863  0.50009773  1
  O  O269  1  0.23886637  0.62216143  0.99210493  1
  O  O270  1  0.73660639  0.12481122  0.50564095  1
  O  O271  1  0.74592209  0.13109359  0.99538462  1
  O  O272  1  0.74434508  0.62991126  0.49343365  1
  O  O273  1  0.74882733  0.63341930  0.99054662  1
  O  O274  1  0.25092996  0.37058264  0.00559816  1
  O  O275  1  0.26256983  0.36468804  0.49575206  1
  O  O276  1  0.26470631  0.88179987  -0.00073338  1
  O  O277  1  0.25156798  0.87161189  0.51539568  1
  O  O278  1  0.75490507  0.37256291  0.00389916  1
  O  O279  1  0.75518525  0.37433707  0.50871539  1
  O  O280  1  0.75604898  0.87120530  0.00495375  1
  O  O281  1  0.75411157  0.86791528  0.50563741  1
  O  O282  1  0.12996544  0.49648036  0.24581115  1
  O  O283  1  0.12329192  0.50462069  0.73591582  1
  O  O284  1  0.12786112  0.99582625  0.24545704  1
  O  O285  1  0.13591413  1.00164007  0.74101858  1
  O  O286  1  0.63176784  0.49399039  0.24989113  1
  O  O287  1  0.62894535  0.48835843  0.74291209  1
  O  O288  1  0.63140725  0.99635998  0.24438897  1
  O  O289  1  0.63294618  0.99762388  0.74266136  1
  O  O290  1  0.36833793  0.00591025  0.25406663  1
  O  O291  1  0.36623330  -0.00081731  0.76065778  1
  O  O292  1  0.37065241  0.50314105  0.25863916  1
  O  O293  1  0.36648360  0.50477384  0.73679373  1
  O  O294  1  0.86657423  0.00773711  0.25044919  1
  O  O295  1  0.86880051  0.00128484  0.75727331  1
  O  O296  1  0.86955336  0.50726220  0.25552619  1
  O  O297  1  0.87584950  0.49616945  0.76445177  1
  O  O298  1  0.12053646  0.37144403  0.37002993  1
  O  O299  1  0.10894887  0.38174601  0.88734661  1
  O  O300  1  0.12175090  0.86521325  0.37144326  1
  O  O301  1  0.11417726  0.86761204  0.88487161  1
  O  O302  1  0.62256189  0.36557855  0.36847205  1
  O  O303  1  0.62089470  0.37462492  0.86411486  1
  O  O304  1  0.61905906  0.86855382  0.36843756  1
  O  O305  1  0.61787016  0.86937236  0.87411405  1
  O  O306  1  0.37902495  0.13051373  0.12923242  1
  O  O307  1  0.38359883  0.12871080  0.62430548  1
  O  O308  1  0.38537920  0.62422385  0.13167441  1
  O  O309  1  0.38031903  0.63490814  0.62367052  1
  O  O310  1  0.88006987  0.13086488  0.13180113  1
  O  O311  1  0.88693312  0.12277718  0.62676050  1
  O  O312  1  0.87990589  0.63186160  0.13007280  1
  O  O313  1  0.87558612  0.63719047  0.61971941  1
  O  O314  1  0.25471805  0.25598179  0.11944258  1
  O  O315  1  0.25623654  0.24297999  0.61820238  1
  O  O316  1  0.25458029  0.75581577  0.12879748  1
  O  O317  1  0.25520789  0.75602864  0.63064132  1
  O  O318  1  0.75628510  0.25764680  0.11845960  1
  O  O319  1  0.75156727  0.26190895  0.62204140  1
  O  O320  1  0.75482051  0.75618585  0.12045503  1
  O  O321  1  0.75650838  0.75289320  0.62068375  1
  O  O322  1  0.24595920  0.24352843  0.37829673  1
  O  O323  1  0.25285786  0.24352406  0.88063771  1
  O  O324  1  0.23589392  0.74784717  0.37782914  1
  O  O325  1  0.23666679  0.74364622  0.86963513  1
  O  O326  1  0.73617023  0.25328378  0.37426890  1
  O  O327  1  0.75190138  0.24464380  0.88081473  1
  O  O328  1  0.74397093  0.74492262  0.37988350  1
  O  O329  1  0.74819974  0.74537689  0.87913288  1
  O  O330  1  0.00704016  0.12159508  0.00267395  1
  O  O331  1  0.00078101  0.11231535  0.50777920  1
  O  O332  1  0.00865372  0.62279331  0.00653498  1
  O  O333  1  0.00964709  0.61851151  0.50223267  1
  O  O334  1  0.50672768  0.12500567  0.00519027  1
  O  O335  1  0.51138135  0.12188352  0.50691020  1
  O  O336  1  0.50001238  0.61965600  0.00760522  1
  O  O337  1  0.50756079  0.62340187  0.50735155  1
  O  O338  1  0.48784275  0.37550073  0.49642143  1
  O  O339  1  0.50201512  0.38304136  0.99128631  1
  O  O340  1  0.49754919  0.87593733  0.49004717  1
  O  O341  1  0.48908466  0.88041978  0.99235357  1
  O  O342  1  0.99283218  0.38112783  0.49242730  1
  O  O343  1  0.99338353  0.38349823  0.99476581  1
  O  O344  1  0.99340098  0.88323232  0.50206447  1
  O  O345  1  0.99403884  0.88163880  0.99168740  1
  O  O346  1  0.48656372  0.49807647  0.37719671  1
  O  O347  1  0.50895034  0.49240578  0.88309277  1
  O  O348  1  0.49239975  0.99229766  0.37249057  1
  O  O349  1  0.48969270  0.99522123  0.87286624  1
  O  O350  1  0.99414927  0.49526599  0.37996218  1
  O  O351  1  0.99440220  0.49589969  0.88165172  1
  O  O352  1  0.99987110  0.99881021  0.38795646  1
  O  O353  1  0.99677150  0.99306415  0.87920102  1
  O  O354  1  0.00428779  0.00661075  0.11815607  1
  O  O355  1  0.00546901  0.00083206  0.61948034  1
  O  O356  1  0.00490858  0.50786318  0.12134545  1
  O  O357  1  0.00798695  0.50195664  0.61932517  1
  O  O358  1  0.50709886  0.00881204  0.12435517  1
  O  O359  1  0.50605626  0.00447890  0.62537294  1
  O  O360  1  0.50209052  0.50960312  0.11851432  1
  O  O361  1  0.50901759  0.50609732  0.62222128  1
  O  O362  1  0.24395762  0.38088796  0.24406319  1
  O  O363  1  0.24277966  0.37059323  0.76606683  1
  O  O364  1  0.24069455  0.88308760  0.24978268  1
  O  O365  1  0.25539748  0.88396167  0.74093556  1
  O  O366  1  0.74570215  0.38195097  0.24378813  1
  O  O367  1  0.74357465  0.37511197  0.74186382  1
  O  O368  1  0.74391557  0.88248799  0.24340346  1
  O  O369  1  0.74886291  0.88199897  0.74352279  1
  O  O370  1  0.25481749  0.11934845  0.25393281  1
  O  O371  1  0.25445008  0.11019540  0.75594556  1
  O  O372  1  0.25666639  0.61656388  0.25358469  1
  O  O373  1  0.24691822  0.62450746  0.76597482  1
  O  O374  1  0.75945989  0.11492556  0.24114439  1
  O  O375  1  0.75229409  0.11874408  0.75590194  1
  O  O376  1  0.75478410  0.62180692  0.25499241  1
  O  O377  1  0.74764852  0.62411969  0.76365262  1
  O  O378  1  0.37022398  0.11942499  0.36763755  1
  O  O379  1  0.36892556  0.11572649  0.87462604  1
  O  O380  1  0.37331793  0.61479782  0.37216499  1
  O  O381  1  0.35604617  0.63532522  0.87794832  1
  O  O382  1  0.88029449  0.12437504  0.36089186  1
  O  O383  1  0.87012208  0.11798144  0.87534733  1
  O  O384  1  0.86928934  0.62086314  0.37020793  1
  O  O385  1  0.86762236  0.61751315  0.88233016  1
  O  O386  1  0.12953651  0.38300989  0.12930334  1
  O  O387  1  0.11963521  0.39058223  0.61615842  1
  O  O388  1  0.12249433  0.88316004  0.13102878  1
  O  O389  1  0.13284789  0.88272952  0.62311981  1
  O  O390  1  0.63289058  0.37588440  0.13229914  1
  O  O391  1  0.63249331  0.37801103  0.63008388  1
  O  O392  1  0.62874044  0.88029494  0.12984105  1
  O  O393  1  0.63152557  0.87959794  0.62505578  1
  O  O394  1  0.12376704  0.25808208  0.25543540  1
  O  O395  1  0.12538461  0.25240857  0.73590938  1
  O  O396  1  0.11808167  0.75416902  0.25961218  1
  O  O397  1  0.11262273  0.74917239  0.76267001  1
  O  O398  1  0.62109908  0.25352611  0.25552934  1
  O  O399  1  0.62184741  0.26122257  0.74846704  1
  O  O400  1  0.61897198  0.75613359  0.25533025  1
  O  O401  1  0.61817167  0.75313006  0.75677089  1
  O  O402  1  0.37915426  0.24457633  0.24397085  1
  O  O403  1  0.38577357  0.24443779  0.74063965  1
  O  O404  1  0.38209078  0.74179006  0.25185128  1
  O  O405  1  0.38106528  0.74410701  0.74143262  1
  O  O406  1  0.87454185  0.24199163  0.24364660  1
  O  O407  1  0.88803962  0.24795427  0.74376039  1
  O  O408  1  0.87838068  0.74584766  0.24550813  1
  O  O409  1  0.88363427  0.75615351  0.74005982  1
  O  O410  1  0.37250579  0.49081556  0.49432505  1
  O  O411  1  0.39027652  0.49807668  1.00393666  1
  O  O412  1  0.37720504  0.99574131  0.49035653  1
  O  O413  1  0.37574187  0.99444436  0.98808020  1
  O  O414  1  0.87984209  0.49524652  0.49349958  1
  O  O415  1  0.88081604  0.49690580  0.99202297  1
  O  O416  1  0.88293753  0.99330181  0.49961429  1
  O  O417  1  0.88041112  0.99595307  0.99521915  1
  O  O418  1  0.11956658  0.01053426  0.00532708  1
  O  O419  1  0.11577804  -0.00272448  0.50889580  1
  O  O420  1  0.11898202  0.51409793  0.00894197  1
  O  O421  1  0.12034383  0.50775139  0.50611007  1
  O  O422  1  0.62426752  0.00749027  0.00686297  1
  O  O423  1  0.62315762  0.00691083  0.50508376  1
  O  O424  1  0.61344377  0.50418337  0.00448576  1
  O  O425  1  0.62442385  0.50588539  0.50416659  1
  O  O426  1  0.36763099  0.36874900  0.12378409  1
  O  O427  1  0.38036226  0.36388120  0.61370239  1
  O  O428  1  0.37649693  0.87944962  0.10906190  1
  O  O429  1  0.36700648  0.86369252  0.62573199  1
  O  O430  1  0.86970510  0.37187856  0.12046076  1
  O  O431  1  0.86711069  0.37698742  0.61886591  1
  O  O432  1  0.86961295  0.87088642  0.12031473  1
  O  O433  1  0.86849725  0.86466330  0.61865195  1
  O  O434  1  0.13158676  0.13171566  0.37483299  1
  O  O435  1  0.13083274  0.11919425  0.88690066  1
  O  O436  1  0.12480739  0.63277867  0.38426736  1
  O  O437  1  0.13184358  0.63485197  0.88430970  1
  O  O438  1  0.61923681  0.13269559  0.38350239  1
  O  O439  1  0.63291434  0.12667028  0.88119534  1
  O  O440  1  0.62973536  0.63042845  0.37906351  1
  O  O441  1  0.63640870  0.63232910  0.87723294  1
