# generated using pymatgen
data_V93Zn93O256
_symmetry_space_group_name_H-M   'P 1'
_cell_length_a   17.06716016
_cell_length_b   17.06393255
_cell_length_c   17.06750490
_cell_angle_alpha   90.08936050
_cell_angle_beta   89.98920913
_cell_angle_gamma   90.00751768
_symmetry_Int_Tables_number   1
_chemical_formula_structural   V93Zn93O256
_chemical_formula_sum   'V93 Zn93 O256'
_cell_volume   4970.61225805
_cell_formula_units_Z   1
loop_
 _symmetry_equiv_pos_site_id
 _symmetry_equiv_pos_as_xyz
  1  'x, y, z'
loop_
 _atom_site_type_symbol
 _atom_site_label
 _atom_site_symmetry_multiplicity
 _atom_site_fract_x
 _atom_site_fract_y
 _atom_site_fract_z
 _atom_site_occupancy
  V  V0  1  0.62342055  0.25216027  0.37792745  1
  V  V1  1  0.74887968  0.37485899  0.12643776  1
  V  V2  1  0.74908321  -0.00034069  0.74901090  1
  V  V3  1  -0.00150029  0.38509362  0.38159872  1
  V  V4  1  0.50001127  0.24952405  0.75052845  1
  V  V5  1  -0.00020996  0.24869620  0.75151141  1
  V  V6  1  0.75095794  -0.00052377  0.25022093  1
  V  V7  1  0.11992261  0.61883151  0.50486480  1
  V  V8  1  0.74763325  0.62548355  0.87549928  1
  V  V9  1  0.49824722  0.62543640  0.62440587  1
  V  V10  1  0.62085640  0.37547258  0.25591888  1
  V  V11  1  0.62536749  0.87485951  0.74974813  1
  V  V12  1  0.37535945  0.12639989  0.25084148  1
  V  V13  1  0.25027324  0.37517849  0.62601898  1
  V  V14  1  0.37537701  0.75041717  0.62400410  1
  V  V15  1  0.37841014  0.88048475  0.50066345  1
  V  V16  1  0.37455608  0.37389033  -0.00130983  1
  V  V17  1  0.62499333  0.12541843  0.00070170  1
  V  V18  1  0.37530660  0.24986588  0.62446428  1
  V  V19  1  0.12301097  0.50701557  0.12746082  1
  V  V20  1  0.62466344  0.75012629  0.87437111  1
  V  V21  1  0.74910771  0.12481439  0.87460532  1
  V  V22  1  0.25093532  0.75131959  0.49983976  1
  V  V23  1  0.87487405  0.24972858  0.12555946  1
  V  V24  1  0.87463891  0.12481352  0.74836739  1
  V  V25  1  -0.00059783  0.87376699  0.87465782  1
  V  V26  1  0.00015262  -0.00044015  -0.00009256  1
  V  V27  1  0.62326615  0.25076564  0.87595820  1
  V  V28  1  0.12513665  0.37344727  0.75245673  1
  V  V29  1  0.87417063  0.87465333  0.50102858  1
  V  V30  1  0.75133381  0.87324515  0.12427009  1
  V  V31  1  0.24927115  -0.00028484  0.75063175  1
  V  V32  1  -0.00209955  0.50732266  0.00615828  1
  V  V33  1  0.25396166  0.62312986  0.37101115  1
  V  V34  1  0.37504593  0.12413413  0.74963923  1
  V  V35  1  0.24653099  0.62628097  0.87266265  1
  V  V36  1  0.37729821  0.00201940  0.37770853  1
  V  V37  1  -0.00076815  0.25129796  0.24998955  1
  V  V38  1  0.37438937  0.25137006  0.12548358  1
  V  V39  1  0.62186717  -0.00076886  0.61775742  1
  V  V40  1  0.24837561  0.49954228  0.74921525  1
  V  V41  1  0.12394653  0.74995570  0.87384063  1
  V  V42  1  0.12606908  0.87760687  0.25089719  1
  V  V43  1  0.49943579  -0.00049399  -0.00003115  1
  V  V44  1  0.88148021  0.62260769  0.74546874  1
  V  V45  1  0.87310287  0.49959389  0.87789358  1
  V  V46  1  0.12474113  0.12556740  0.00069980  1
  V  V47  1  0.49833911  0.49686350  0.49390673  1
  V  V48  1  0.75321990  0.49973261  0.25241526  1
  V  V49  1  0.00106084  0.87790375  0.37438562  1
  V  V50  1  0.87556378  0.12580314  0.24979799  1
  V  V51  1  0.12364926  0.00128118  0.62464738  1
  V  V52  1  0.24985060  0.12463626  0.87659571  1
  V  V53  1  0.49997661  0.12526857  0.12572627  1
  V  V54  1  0.24952756  0.12697795  0.37547162  1
  V  V55  1  0.50018238  0.12050732  0.61759690  1
  V  V56  1  0.13164822  0.38079311  0.24893894  1
  V  V57  1  0.25510965  0.74985869  0.00177856  1
  V  V58  1  0.50084012  0.25142778  0.25300242  1
  V  V59  1  0.12517327  0.00185509  0.12506056  1
  V  V60  1  0.37546247  -0.00137763  0.87587518  1
  V  V61  1  0.12601592  0.75202058  0.37668848  1
  V  V62  1  0.25075283  0.00077876  0.25015139  1
  V  V63  1  0.75003000  0.12669374  0.37640681  1
  V  V64  1  0.74890189  0.74957625  -0.00009324  1
  V  V65  1  0.62508006  0.87460880  0.25011269  1
  V  V66  1  0.48776658  0.74378838  0.24450224  1
  V  V67  1  0.74981072  0.25009161  0.00061070  1
  V  V68  1  0.62240672  0.62609080  0.49878425  1
  V  V69  1  0.87484895  0.87416110  -0.00064252  1
  V  V70  1  -0.00090765  0.74609657  0.24293965  1
  V  V71  1  0.74923480  0.37205790  0.62419235  1
  V  V72  1  0.37201629  0.50140437  0.37135825  1
  V  V73  1  0.12393479  0.87539265  0.75035881  1
  V  V74  1  0.62108153  0.50690968  0.12587882  1
  V  V75  1  0.50043539  0.88000605  0.37732542  1
  V  V76  1  0.74710322  0.49931543  0.75193201  1
  V  V77  1  0.75098795  0.62568817  0.37229066  1
  V  V78  1  0.24928407  0.25014526  0.00143791  1
  V  V79  1  0.62549320  0.00018530  0.12545687  1
  V  V80  1  0.37644851  0.37495580  0.49616886  1
  V  V81  1  0.88039019  0.74612794  0.62239129  1
  V  V82  1  0.00055652  0.00211700  0.50029595  1
  V  V83  1  0.49999705  0.87475536  0.87507958  1
  V  V84  1  0.37483862  0.49870391  0.87257208  1
  V  V85  1  0.87539324  0.00148322  0.37553389  1
  V  V86  1  0.12496410  0.25095261  0.37700735  1
  V  V87  1  0.37333726  0.62561819  0.74763220  1
  V  V88  1  0.87452654  0.37573262  0.00029838  1
  V  V89  1  0.25704608  0.87165309  0.12457967  1
  V  V90  1  0.62197381  0.49950560  0.62603514  1
  V  V91  1  0.49921915  0.37512214  0.87527306  1
  V  V92  1  0.62469710  0.75041866  0.37430985  1
  Zn  Zn93  1  0.87443125  -0.00174044  0.87428949  1
  Zn  Zn94  1  0.11905705  0.62922106  0.00473452  1
  Zn  Zn95  1  -0.04190079  0.55547308  0.55706572  1
  Zn  Zn96  1  0.75473953  0.25116292  0.49951960  1
  Zn  Zn97  1  0.61888891  0.62676849  0.00147255  1
  Zn  Zn98  1  0.11819456  0.50134232  0.62723184  1
  Zn  Zn99  1  0.12447266  0.24933221  0.87782511  1
  Zn  Zn100  1  0.88587170  0.61769624  0.24470275  1
  Zn  Zn101  1  0.37810413  0.87136506  0.00335965  1
  Zn  Zn102  1  0.87949804  0.38124298  0.50713526  1
  Zn  Zn103  1  0.00183104  0.74671346  0.74657826  1
  Zn  Zn104  1  0.74964507  0.75124340  0.50037047  1
  Zn  Zn105  1  -0.00024518  0.12580788  0.12410803  1
  Zn  Zn106  1  0.49995610  0.74974653  0.75012278  1
  Zn  Zn107  1  0.87913256  0.50588640  0.38378042  1
  Zn  Zn108  1  0.47146779  0.63031067  0.12176325  1
  Zn  Zn109  1  0.12483794  0.12651809  0.50100116  1
  Zn  Zn110  1  0.24953589  0.24982047  0.50121043  1
  Zn  Zn111  1  0.00018482  0.37434974  0.87868657  1
  Zn  Zn112  1  0.25119324  0.87624526  0.62502167  1
  Zn  Zn113  1  0.62531260  0.12410477  0.49873257  1
  Zn  Zn114  1  0.30470783  0.55295986  0.20849719  1
  Zn  Zn115  1  0.25118973  0.37976407  0.12631491  1
  Zn  Zn116  1  0.49834030  0.50466545  0.00082647  1
  Zn  Zn117  1  0.87473219  0.25046136  0.62179883  1
  Zn  Zn118  1  -0.00113254  0.12715172  0.62246358  1
  Zn  Zn119  1  0.74933679  0.87245842  0.62416272  1
  Zn  Zn120  1  0.87922741  0.74216021  0.12006986  1
  Zn  Zn121  1  0.62362696  0.37454110  0.75094294  1
  Zn  Zn122  1  0.18712140  0.18997458  0.18795194  1
  Zn  Zn123  1  0.18811638  0.18769139  0.68811775  1
  Zn  Zn124  1  0.18491230  0.69143397  0.18630631  1
  Zn  Zn125  1  0.18852566  0.69055505  0.68577491  1
  Zn  Zn126  1  0.68837254  0.18763564  0.18946306  1
  Zn  Zn127  1  0.68509916  0.18704909  0.68781692  1
  Zn  Zn128  1  0.68695965  0.68982572  0.18900890  1
  Zn  Zn129  1  0.69043690  0.68809542  0.68713357  1
  Zn  Zn130  1  0.31247266  0.31391184  0.31345080  1
  Zn  Zn131  1  0.31194741  0.31033142  0.81322204  1
  Zn  Zn132  1  0.31146050  0.81326746  0.31478017  1
  Zn  Zn133  1  0.31204591  0.81308336  0.81260675  1
  Zn  Zn134  1  0.81306558  0.31333721  0.31464410  1
  Zn  Zn135  1  0.81127100  0.31294755  0.81199031  1
  Zn  Zn136  1  0.81437743  0.81326011  0.31278121  1
  Zn  Zn137  1  0.81263543  0.81065867  0.81027416  1
  Zn  Zn138  1  0.19036427  0.43789173  0.43735572  1
  Zn  Zn139  1  0.18635665  0.43853812  0.93957497  1
  Zn  Zn140  1  0.19009998  0.93910854  0.43877277  1
  Zn  Zn141  1  0.18743879  0.93629251  0.93868585  1
  Zn  Zn142  1  0.68801222  0.43832973  0.43962598  1
  Zn  Zn143  1  0.68497875  0.43826591  0.94009215  1
  Zn  Zn144  1  0.68965041  0.93680719  0.43794399  1
  Zn  Zn145  1  0.68786041  0.93730277  0.93653697  1
  Zn  Zn146  1  0.31260103  0.06194168  0.06300607  1
  Zn  Zn147  1  0.30961925  0.06358903  0.56186713  1
  Zn  Zn148  1  0.30688958  0.56064075  0.04914053  1
  Zn  Zn149  1  0.30817516  0.56218620  0.56115954  1
  Zn  Zn150  1  0.81380753  0.06154644  0.06244591  1
  Zn  Zn151  1  0.80924709  0.06258504  0.56258429  1
  Zn  Zn152  1  0.81102036  0.56610175  0.06580636  1
  Zn  Zn153  1  0.79930250  0.56180083  0.56277410  1
  Zn  Zn154  1  0.44180107  0.43485517  0.18490316  1
  Zn  Zn155  1  0.43746569  0.43700624  0.68654363  1
  Zn  Zn156  1  0.43905334  0.93716510  0.19116737  1
  Zn  Zn157  1  0.43941692  0.93730836  0.68863927  1
  Zn  Zn158  1  0.94078016  0.43485547  0.18859104  1
  Zn  Zn159  1  0.93632331  0.43418344  0.69291915  1
  Zn  Zn160  1  0.93771278  0.93508361  0.18534992  1
  Zn  Zn161  1  0.93742619  0.93541255  0.68652977  1
  Zn  Zn162  1  0.06209984  0.06517146  0.31164159  1
  Zn  Zn163  1  0.06164924  0.06181283  0.81460474  1
  Zn  Zn164  1  0.07074883  0.56501737  0.31440273  1
  Zn  Zn165  1  0.06083805  0.55837853  0.81663501  1
  Zn  Zn166  1  0.56370473  0.06435135  0.31282614  1
  Zn  Zn167  1  0.56237538  0.06209709  0.80973936  1
  Zn  Zn168  1  0.56112055  0.56451679  0.31148478  1
  Zn  Zn169  1  0.56078090  0.56310589  0.81198689  1
  Zn  Zn170  1  0.43879655  0.18986582  0.43693340  1
  Zn  Zn171  1  0.43660682  0.18705918  0.93793662  1
  Zn  Zn172  1  0.43770100  0.68926046  0.43494365  1
  Zn  Zn173  1  0.43796452  0.68543885  0.93573640  1
  Zn  Zn174  1  0.93746602  0.19152616  0.44036057  1
  Zn  Zn175  1  0.93744053  0.18641598  0.93637364  1
  Zn  Zn176  1  0.93697625  0.69267110  0.43027232  1
  Zn  Zn177  1  0.93505682  0.68771384  0.93432322  1
  Zn  Zn178  1  0.06191643  0.31608177  0.06405694  1
  Zn  Zn179  1  0.06184668  0.31439459  0.56536409  1
  Zn  Zn180  1  0.06784228  0.81587423  0.06109041  1
  Zn  Zn181  1  0.06169600  0.81297538  0.56179386  1
  Zn  Zn182  1  0.56155512  0.31556581  0.06432361  1
  Zn  Zn183  1  0.56196712  0.31248414  0.56281172  1
  Zn  Zn184  1  0.56252479  0.81121483  0.06328524  1
  Zn  Zn185  1  0.56201936  0.81197595  0.56261967  1
  O  O186  1  0.12410434  0.11912185  0.11950388  1
  O  O187  1  0.12372884  0.11267638  0.62513616  1
  O  O188  1  0.12784748  0.61213967  0.12500442  1
  O  O189  1  0.13019441  0.62721890  0.60775686  1
  O  O190  1  0.62023220  0.12011759  0.12098781  1
  O  O191  1  0.61656166  0.11722361  0.62454892  1
  O  O192  1  0.62949691  0.61195682  0.12662967  1
  O  O193  1  0.61985137  0.61971358  0.61878825  1
  O  O194  1  0.36655686  0.38371092  0.38925632  1
  O  O195  1  0.38000323  0.37871842  0.87823730  1
  O  O196  1  0.38189225  0.88120164  0.38186683  1
  O  O197  1  0.38163610  0.88212334  0.87601558  1
  O  O198  1  0.89130521  0.37688627  0.37412634  1
  O  O199  1  0.87237076  0.38215977  0.88297331  1
  O  O200  1  0.88059548  0.88258271  0.38034829  1
  O  O201  1  0.88086949  0.87544039  0.88068624  1
  O  O202  1  0.25624237  0.00641198  0.36881346  1
  O  O203  1  0.25510290  0.00515222  0.87056357  1
  O  O204  1  0.25995408  0.51025902  0.38030592  1
  O  O205  1  0.25476513  0.50573320  0.86903046  1
  O  O206  1  0.75559763  0.00557260  0.36901650  1
  O  O207  1  0.74972354  0.00780190  0.86762877  1
  O  O208  1  0.74925250  0.50763958  0.36734061  1
  O  O209  1  0.75293674  0.50493702  0.87186688  1
  O  O210  1  0.23735610  0.49671033  0.12486210  1
  O  O211  1  0.24537900  0.49322459  0.63201469  1
  O  O212  1  0.24497916  0.99375132  0.13117354  1
  O  O213  1  0.24063913  0.99892090  0.63139134  1
  O  O214  1  0.74191320  0.49383650  0.13575688  1
  O  O215  1  0.74033868  0.49236009  0.63232085  1
  O  O216  1  0.74483810  0.99444473  0.13071141  1
  O  O217  1  0.73921147  0.99917128  0.63213426  1
  O  O218  1  0.00930613  0.36946198  0.26032279  1
  O  O219  1  0.00828672  0.36468164  0.75479065  1
  O  O220  1  0.00752504  0.87043356  0.25574383  1
  O  O221  1  0.00629214  0.87378728  0.75729401  1
  O  O222  1  0.51438735  0.36775347  0.24590809  1
  O  O223  1  0.49996274  0.36738974  0.75596623  1
  O  O224  1  0.50522693  0.86718682  0.25833410  1
  O  O225  1  0.50716279  0.87346810  0.75752415  1
  O  O226  1  0.49453655  0.13027323  0.24431589  1
  O  O227  1  0.49348555  0.13029989  0.74211043  1
  O  O228  1  0.50210149  0.64150601  0.25079291  1
  O  O229  1  0.49088433  0.62540592  0.74196605  1
  O  O230  1  0.99281847  0.13282074  0.24851900  1
  O  O231  1  0.99137770  0.13136095  0.75074839  1
  O  O232  1  1.00442881  0.64328060  0.25915935  1
  O  O233  1  0.98406883  0.62407816  0.75680506  1
  O  O234  1  0.36981835  0.25354904  0.00627585  1
  O  O235  1  0.37593328  0.26057522  0.50470968  1
  O  O236  1  0.35869234  0.75159767  -0.00702888  1
  O  O237  1  0.37080471  0.75944627  0.50332764  1
  O  O238  1  0.86876634  0.25448637  0.00492942  1
  O  O239  1  0.87317988  0.25995207  0.50451128  1
  O  O240  1  0.86771445  0.75669014  -0.00017374  1
  O  O241  1  0.87495486  0.75495070  0.50571769  1
  O  O242  1  0.12569293  0.25097977  0.48787138  1
  O  O243  1  0.13033792  0.24457254  1.00032010  1
  O  O244  1  0.13092517  0.74551269  0.49503979  1
  O  O245  1  0.13357138  0.74952175  0.99228825  1
  O  O246  1  0.62613790  0.25115689  0.48749571  1
  O  O247  1  0.63010010  0.24473091  0.99702944  1
  O  O248  1  0.62518331  0.74382037  0.49233510  1
  O  O249  1  0.63134970  0.74960591  0.99248680  1
  O  O250  1  0.49484858  0.24424720  0.13168919  1
  O  O251  1  0.49515777  0.24194852  0.63080800  1
  O  O252  1  0.50259474  0.75052963  0.14048322  1
  O  O253  1  0.49305601  0.74243321  0.62568712  1
  O  O254  1  0.99206562  0.25049029  0.13198609  1
  O  O255  1  0.99921611  0.24826358  0.63899614  1
  O  O256  1  1.00538310  0.75703964  0.14039828  1
  O  O257  1  0.98561257  0.75370984  0.62678458  1
  O  O258  1  0.00921163  0.25930946  0.36969700  1
  O  O259  1  0.00210512  0.25156064  0.86431722  1
  O  O260  1  0.00712700  0.76055062  0.36619102  1
  O  O261  1  0.00665244  0.75645724  0.87304776  1
  O  O262  1  0.51333494  0.24343986  0.36710222  1
  O  O263  1  0.50375651  0.25408356  0.87045209  1
  O  O264  1  0.50476609  0.75962632  0.36610682  1
  O  O265  1  0.50622797  0.75672511  0.87309993  1
  O  O266  1  0.24664516  0.12921487  0.49110239  1
  O  O267  1  0.24495807  0.12982648  0.99603068  1
  O  O268  1  0.24148745  0.63240779  0.49170304  1
  O  O269  1  0.24281465  0.63468614  0.98936401  1
  O  O270  1  0.74746732  0.12897752  0.49128393  1
  O  O271  1  0.74447815  0.13016379  0.99558438  1
  O  O272  1  0.74103839  0.62602830  0.48680692  1
  O  O273  1  0.74720054  0.63194302  0.99175980  1
  O  O274  1  0.25697057  0.36745120  -0.00025699  1
  O  O275  1  0.25883235  0.37417457  0.50789910  1
  O  O276  1  0.25111399  0.86818484  0.00816889  1
  O  O277  1  0.26182259  0.86940839  0.49919560  1
  O  O278  1  0.75426750  0.36915557  0.00683253  1
  O  O279  1  0.75044174  0.37628099  0.51303614  1
  O  O280  1  0.75474763  0.87037127  0.00429951  1
  O  O281  1  0.75921516  0.87171497  0.50074624  1
  O  O282  1  0.11746804  0.49121552  0.24048275  1
  O  O283  1  0.13093659  0.48942395  0.75244263  1
  O  O284  1  0.13154222  0.99702523  0.24616846  1
  O  O285  1  0.12905211  0.99583940  0.74314862  1
  O  O286  1  0.63101245  0.49258583  0.24761940  1
  O  O287  1  0.62937701  0.49896749  0.74359197  1
  O  O288  1  0.63105607  0.99510429  0.24490868  1
  O  O289  1  0.63006357  0.99499136  0.74176081  1
  O  O290  1  0.37008344  0.00707492  0.25686059  1
  O  O291  1  0.36932978  0.00494011  0.75528642  1
  O  O292  1  0.37952615  0.48764204  0.26730048  1
  O  O293  1  0.36777735  0.50495636  0.75310543  1
  O  O294  1  0.87047854  0.00448684  0.25537050  1
  O  O295  1  0.86916314  0.00895744  0.75026505  1
  O  O296  1  0.86193726  0.49690477  0.25278799  1
  O  O297  1  0.86718212  0.50577449  0.75731723  1
  O  O298  1  0.11838818  0.37116530  0.36956121  1
  O  O299  1  0.12569282  0.37193659  0.86306107  1
  O  O300  1  0.12196444  0.87247889  0.37035243  1
  O  O301  1  0.11970399  0.86997064  0.86961812  1
  O  O302  1  0.63244357  0.36672892  0.36470795  1
  O  O303  1  0.61783540  0.36807784  0.87538471  1
  O  O304  1  0.61775452  0.87238873  0.37112591  1
  O  O305  1  0.61944222  0.87052968  0.86957481  1
  O  O306  1  0.38062478  0.13049083  0.13152484  1
  O  O307  1  0.38139449  0.12840156  0.62942872  1
  O  O308  1  0.36191685  0.61149276  0.13146733  1
  O  O309  1  0.37796651  0.63009301  0.62761082  1
  O  O310  1  0.87517496  0.13189794  0.13196335  1
  O  O311  1  0.87479476  0.12686570  0.63800378  1
  O  O312  1  0.86678703  0.63165687  0.13567229  1
  O  O313  1  0.87370633  0.62816176  0.62974475  1
  O  O314  1  0.25773021  0.25193982  0.11951765  1
  O  O315  1  0.25795233  0.25552522  0.62415939  1
  O  O316  1  0.24075058  0.76151585  0.11490873  1
  O  O317  1  0.25793146  0.75447669  0.61748174  1
  O  O318  1  0.75415397  0.25493201  0.12030004  1
  O  O319  1  0.74684074  0.26097968  0.62484049  1
  O  O320  1  0.74693951  0.75884013  0.11830302  1
  O  O321  1  0.76317921  0.75012337  0.62087876  1
  O  O322  1  0.23984325  0.24594062  0.37526540  1
  O  O323  1  0.25002490  0.24119896  0.88264196  1
  O  O324  1  0.24605220  0.74402654  0.38069759  1
  O  O325  1  0.24288507  0.74682047  0.88110556  1
  O  O326  1  0.74013791  0.24474355  0.37326669  1
  O  O327  1  0.74361426  0.24470732  0.88134156  1
  O  O328  1  0.74426358  0.74063545  0.37229219  1
  O  O329  1  0.74387819  0.74537150  0.87973807  1
  O  O330  1  0.00594016  0.11849295  0.00122640  1
  O  O331  1  0.00331230  0.11799140  0.50217744  1
  O  O332  1  -0.00057176  0.61176346  -0.00514712  1
  O  O333  1  0.01521009  0.62999254  0.49126359  1
  O  O334  1  0.50576968  0.12019964  0.00647520  1
  O  O335  1  0.50118003  0.12965556  0.51439958  1
  O  O336  1  0.50101152  0.62369270  0.00721994  1
  O  O337  1  0.50304954  0.61757388  0.50493648  1
  O  O338  1  0.48884546  0.38652432  0.50683022  1
  O  O339  1  0.49208391  0.37560942  0.99305499  1
  O  O340  1  0.49006005  0.86822608  0.48766627  1
  O  O341  1  0.49853508  0.88152577  0.99493642  1
  O  O342  1  1.00444501  0.37473593  0.48418324  1
  O  O343  1  0.99157560  0.38353923  0.99892137  1
  O  O344  1  0.99444957  0.88199555  0.49315265  1
  O  O345  1  0.99547802  0.87960619  0.99475315  1
  O  O346  1  0.49071550  0.50826765  0.38797835  1
  O  O347  1  0.49220196  0.49321332  0.87459292  1
  O  O348  1  0.49471144  0.98777222  0.36714294  1
  O  O349  1  0.49592059  0.99564840  0.88052687  1
  O  O350  1  1.00142997  0.48780250  0.36915667  1
  O  O351  1  0.99114704  0.49556475  0.88596456  1
  O  O352  1  0.99507035  0.99675274  0.37936851  1
  O  O353  1  0.99860410  0.99187256  0.88239571  1
  O  O354  1  0.00759397  0.00044699  0.11864496  1
  O  O355  1  0.00902163  0.00089161  0.61969931  1
  O  O356  1  0.00754032  0.49423798  0.11581431  1
  O  O357  1  0.00684892  0.49325485  0.63167011  1
  O  O358  1  0.50564072  0.00535710  0.12137551  1
  O  O359  1  0.50944026  0.01057179  0.63249902  1
  O  O360  1  0.51088675  0.50459035  0.12665098  1
  O  O361  1  0.50225763  0.50594821  0.61545137  1
  O  O362  1  0.23549907  0.37209795  0.25052541  1
  O  O363  1  0.24388028  0.37832644  0.74612522  1
  O  O364  1  0.24567283  0.88005876  0.24452458  1
  O  O365  1  0.24272101  0.88268294  0.74862811  1
  O  O366  1  0.74190090  0.38240565  0.24692342  1
  O  O367  1  0.74603212  0.38106497  0.74281662  1
  O  O368  1  0.74525739  0.88050415  0.24598578  1
  O  O369  1  0.74321636  0.88192783  0.74877243  1
  O  O370  1  0.25643232  0.12088870  0.25528675  1
  O  O371  1  0.25597137  0.11939173  0.75589834  1
  O  O372  1  0.24064040  0.62896821  0.26693605  1
  O  O373  1  0.25396425  0.61976760  0.75310819  1
  O  O374  1  0.75571286  0.11877457  0.25562568  1
  O  O375  1  0.75654447  0.12134949  0.75491089  1
  O  O376  1  0.74342398  0.61449827  0.26111573  1
  O  O377  1  0.75850414  0.61804261  0.75470000  1
  O  O378  1  0.37103751  0.12197275  0.37012345  1
  O  O379  1  0.37048372  0.11849459  0.86929201  1
  O  O380  1  0.36482342  0.61544143  0.38283281  1
  O  O381  1  0.36735519  0.61916990  0.86693194  1
  O  O382  1  0.87024875  0.12077718  0.36902362  1
  O  O383  1  0.86783429  0.12346920  0.86454612  1
  O  O384  1  0.86454407  0.62503891  0.36707443  1
  O  O385  1  0.86647545  0.61939026  0.86646986  1
  O  O386  1  0.12604007  0.38294385  0.13445774  1
  O  O387  1  0.13229545  0.37279229  0.63787748  1
  O  O388  1  0.13594515  0.88336872  0.13122419  1
  O  O389  1  0.12582061  0.88578644  0.63017604  1
  O  O390  1  0.63016023  0.38218316  0.13514510  1
  O  O391  1  0.63067812  0.38154564  0.62726287  1
  O  O392  1  0.63059668  0.88226815  0.13043806  1
  O  O393  1  0.62407599  0.88263309  0.63033012  1
  O  O394  1  0.12009702  0.25822076  0.25847694  1
  O  O395  1  0.11803258  0.25591395  0.75254565  1
  O  O396  1  0.11702307  0.75821209  0.25642972  1
  O  O397  1  0.12348849  0.75671357  0.75459336  1
  O  O398  1  0.62200095  0.25726609  0.25662323  1
  O  O399  1  0.61742047  0.24991246  0.75896877  1
  O  O400  1  0.61871741  0.75791571  0.25684661  1
  O  O401  1  0.62459301  0.75651077  0.75557397  1
  O  O402  1  0.38064356  0.24634456  0.24684372  1
  O  O403  1  0.37990266  0.24329441  0.74400237  1
  O  O404  1  0.38950774  0.75516394  0.25625153  1
  O  O405  1  0.37468174  0.74364747  0.74238630  1
  O  O406  1  0.87862903  0.24579129  0.24529127  1
  O  O407  1  0.88233524  0.24153720  0.75036709  1
  O  O408  1  0.89343327  0.75506569  0.25069714  1
  O  O409  1  0.87448628  0.73882403  0.74082281  1
  O  O410  1  0.38056651  0.49361529  0.49458496  1
  O  O411  1  0.37534452  0.49067612  0.98849599  1
  O  O412  1  0.36944022  0.98858912  0.49437518  1
  O  O413  1  0.38228089  0.99984613  0.99359564  1
  O  O414  1  0.87442639  0.50034146  0.49973301  1
  O  O415  1  0.87894048  0.49536233  0.99849181  1
  O  O416  1  0.88044939  0.99575769  0.49484625  1
  O  O417  1  0.88124379  0.99302751  0.99814068  1
  O  O418  1  0.12041168  0.00535455  0.00569414  1
  O  O419  1  0.12017163  -0.00015935  0.50885390  1
  O  O420  1  0.11532006  0.50032422  0.00846841  1
  O  O421  1  0.12948487  0.51631632  0.49952183  1
  O  O422  1  0.61975051  0.00610332  0.00593811  1
  O  O423  1  0.62896115  0.00056392  0.51386202  1
  O  O424  1  0.62243312  0.50113442  0.01319074  1
  O  O425  1  0.61494788  0.50478532  0.50364283  1
  O  O426  1  0.37399543  0.36872208  0.11841849  1
  O  O427  1  0.36982205  0.37012819  0.61726078  1
  O  O428  1  0.36064371  0.88243704  0.12484601  1
  O  O429  1  0.37718003  0.87117119  0.61539460  1
  O  O430  1  0.86789482  0.36909899  0.12101896  1
  O  O431  1  0.86090997  0.37332846  0.62895959  1
  O  O432  1  0.86831657  0.87055664  0.11796138  1
  O  O433  1  0.87272595  0.86636939  0.61872379  1
  O  O434  1  0.13010627  0.13640071  0.37339878  1
  O  O435  1  0.13263995  0.12507099  0.88240986  1
  O  O436  1  0.13443800  0.63132746  0.38626251  1
  O  O437  1  0.13055628  0.63217683  0.87318384  1
  O  O438  1  0.63128224  0.13345086  0.37541897  1
  O  O439  1  0.62868774  0.13052015  0.88143281  1
  O  O440  1  0.63136719  0.62992959  0.37961652  1
  O  O441  1  0.63050268  0.63169957  0.87456417  1
