# generated using pymatgen
data_V93Zn93O256
_symmetry_space_group_name_H-M   'P 1'
_cell_length_a   17.05247502
_cell_length_b   17.04547319
_cell_length_c   17.04681913
_cell_angle_alpha   90.03095062
_cell_angle_beta   89.97972589
_cell_angle_gamma   90.01888539
_symmetry_Int_Tables_number   1
_chemical_formula_structural   V93Zn93O256
_chemical_formula_sum   'V93 Zn93 O256'
_cell_volume   4954.95509663
_cell_formula_units_Z   1
loop_
 _symmetry_equiv_pos_site_id
 _symmetry_equiv_pos_as_xyz
  1  'x, y, z'
loop_
 _atom_site_type_symbol
 _atom_site_label
 _atom_site_symmetry_multiplicity
 _atom_site_fract_x
 _atom_site_fract_y
 _atom_site_fract_z
 _atom_site_occupancy
  V  V0  1  0.62414294  0.74888515  0.87879876  1
  V  V1  1  0.49858759  0.24558458  0.25248296  1
  V  V2  1  0.87419343  0.74957955  0.12345631  1
  V  V3  1  0.87542459  0.12670347  0.75001772  1
  V  V4  1  0.74898369  0.87290444  0.12387289  1
  V  V5  1  0.74509646  0.75179908  0.49127905  1
  V  V6  1  0.25124557  0.25009078  0.00265252  1
  V  V7  1  0.37269329  0.75068994  0.62572217  1
  V  V8  1  -0.00675324  0.74720074  0.75070845  1
  V  V9  1  0.12459441  0.62732537  0.50033300  1
  V  V10  1  0.37253113  0.24914899  0.12695331  1
  V  V11  1  0.12541546  0.50178364  0.62602414  1
  V  V12  1  -0.00027027  0.25017165  0.25272261  1
  V  V13  1  0.62515235  0.24917778  0.37584395  1
  V  V14  1  0.50020249  0.12458001  0.62499925  1
  V  V15  1  0.62453409  0.87099676  0.25246159  1
  V  V16  1  0.12327058  0.12492147  0.50252636  1
  V  V17  1  -0.00726387  0.62675175  0.62990272  1
  V  V18  1  0.12285690  0.25072151  0.37740389  1
  V  V19  1  0.75152266  0.87411440  0.62444499  1
  V  V20  1  0.24901161  -0.00246631  0.25100635  1
  V  V21  1  0.12976220  0.74953364  0.88097283  1
  V  V22  1  -0.00097837  -0.00010408  0.50170354  1
  V  V23  1  0.25097139  0.49984219  0.24997549  1
  V  V24  1  0.75034834  0.00180840  0.75002589  1
  V  V25  1  0.38011822  0.48864259  0.88363964  1
  V  V26  1  0.00325637  0.37672877  0.87648288  1
  V  V27  1  0.62729799  0.25672076  0.87352966  1
  V  V28  1  0.49971676  0.75143639  0.75036913  1
  V  V29  1  0.37401051  0.37614208  0.49985630  1
  V  V30  1  -0.00063506  0.87468519  0.37645376  1
  V  V31  1  0.74838098  0.50025103  0.24763114  1
  V  V32  1  0.37403454  -0.00219988  0.37654364  1
  V  V33  1  0.75308598  0.62483448  0.86581160  1
  V  V34  1  -0.00074433  0.50252720  0.49920819  1
  V  V35  1  0.24922294  0.25054382  0.50107711  1
  V  V36  1  0.74989572  0.12573946  0.37734474  1
  V  V37  1  0.63454165  0.37866166  0.74406929  1
  V  V38  1  0.62418530  0.00118155  0.62536848  1
  V  V39  1  0.25187892  0.12573879  0.87684611  1
  V  V40  1  0.37571793  0.12654677  0.75231560  1
  V  V41  1  0.37513123  0.25077959  0.62502910  1
  V  V42  1  0.24902495  0.12338019  0.37648320  1
  V  V43  1  0.37517515  0.62324941  0.24909429  1
  V  V44  1  -0.00139851  0.75039643  0.25065968  1
  V  V45  1  0.24967134  0.87142784  0.12333185  1
  V  V46  1  0.50438703  0.74774697  0.25212734  1
  V  V47  1  0.49926331  0.50045019  0.49879292  1
  V  V48  1  0.24943299  0.00104372  0.75084998  1
  V  V49  1  0.00003761  0.87504408  0.87653897  1
  V  V50  1  0.87910124  0.37645123  -0.00020966  1
  V  V51  1  0.12364756  0.75020624  0.37566416  1
  V  V52  1  0.74951865  0.25800021  0.50410250  1
  V  V53  1  0.25145730  0.49879136  0.74931136  1
  V  V54  1  0.12396625  0.00048961  0.62696606  1
  V  V55  1  0.75160680  0.37480913  0.12434957  1
  V  V56  1  0.62008336  0.49519731  0.11854367  1
  V  V57  1  0.75109945  0.12665326  0.87357367  1
  V  V58  1  0.12539143  0.49983887  0.12370676  1
  V  V59  1  0.50246483  0.25845098  0.75081961  1
  V  V60  1  0.12463466  0.12377036  0.00182351  1
  V  V61  1  0.12634573  0.25131198  0.87593966  1
  V  V62  1  0.63355694  0.49782165  0.62158151  1
  V  V63  1  0.75328537  0.24877444  -0.00148714  1
  V  V64  1  0.87246500  0.50376854  0.37263325  1
  V  V65  1  0.25214106  0.62850117  0.88233664  1
  V  V66  1  0.49993691  0.61797501  0.11560486  1
  V  V67  1  0.87501242  0.12494835  0.25168049  1
  V  V68  1  0.87203348  0.25906745  0.62593227  1
  V  V69  1  0.74954767  -0.00124452  0.25111464  1
  V  V70  1  0.12554748  0.87587260  0.75111112  1
  V  V71  1  0.25299801  0.37368538  0.12276044  1
  V  V72  1  0.50012671  0.00003666  0.50018667  1
  V  V73  1  -0.00007397  0.12428662  0.12572576  1
  V  V74  1  0.87445407  0.87484450  0.00052468  1
  V  V75  1  0.87567119  0.25045908  0.12603491  1
  V  V76  1  0.37502071  0.87338088  0.50085966  1
  V  V77  1  -0.00030445  0.62498054  0.12358502  1
  V  V78  1  0.37504693  0.87650266  -0.00053985  1
  V  V79  1  0.37185211  0.74790227  0.11842123  1
  V  V80  1  0.62460507  0.87507339  0.75140044  1
  V  V81  1  0.37630329  0.62552790  0.75018246  1
  V  V82  1  0.87507937  -0.00004899  0.37762453  1
  V  V83  1  0.24889503  0.62523752  0.37425073  1
  V  V84  1  -0.00107452  0.37667849  0.37618809  1
  V  V85  1  0.62458006  0.37299608  0.25039169  1
  V  V86  1  0.87838850  0.50589561  0.86824127  1
  V  V87  1  0.37629570  0.00237316  0.87583253  1
  V  V88  1  -0.00053581  -0.00003292  0.00115215  1
  V  V89  1  0.62333272  0.62944781  0.49163951  1
  V  V90  1  0.00117117  0.25058760  0.75104600  1
  V  V91  1  0.62177711  0.00196332  0.12384337  1
  V  V92  1  0.50278374  0.87149541  0.37367162  1
  Zn  Zn93  1  0.87406561  0.00015937  0.87514189  1
  Zn  Zn94  1  0.76095548  0.50230986  0.73946598  1
  Zn  Zn95  1  0.49648394  0.12330285  0.12281407  1
  Zn  Zn96  1  0.50043012  0.62632117  0.62303579  1
  Zn  Zn97  1  0.49928866  0.01055902  -0.00359727  1
  Zn  Zn98  1  0.74826859  0.74552804  -0.00070031  1
  Zn  Zn99  1  0.62527343  0.12673114  0.50168321  1
  Zn  Zn100  1  0.12695387  0.37448330  0.74927213  1
  Zn  Zn101  1  0.13161917  0.63099657  0.00415544  1
  Zn  Zn102  1  0.12535242  0.37397347  0.25169485  1
  Zn  Zn103  1  0.87045768  0.38104476  0.50485767  1
  Zn  Zn104  1  0.37356314  0.49979306  0.37462333  1
  Zn  Zn105  1  0.50177233  0.87885219  0.87723190  1
  Zn  Zn106  1  0.24942473  0.75106306  0.49962347  1
  Zn  Zn107  1  0.12422536  0.87357822  0.25059119  1
  Zn  Zn108  1  0.49831961  0.37407476  0.37429818  1
  Zn  Zn109  1  0.12413871  -0.00228351  0.12669906  1
  Zn  Zn110  1  0.86960454  0.62582089  0.24627248  1
  Zn  Zn111  1  0.24909998  0.87599421  0.62477454  1
  Zn  Zn112  1  0.00230598  0.50250509  -0.00129257  1
  Zn  Zn113  1  0.62533897  0.12558730  -0.00092359  1
  Zn  Zn114  1  0.37531495  0.12243922  0.25278281  1
  Zn  Zn115  1  0.62226050  0.60855968  -0.00824031  1
  Zn  Zn116  1  0.86961220  0.74586564  0.62746258  1
  Zn  Zn117  1  0.74315828  0.63234574  0.36718045  1
  Zn  Zn118  1  0.53087498  0.42683682  -0.05741780  1
  Zn  Zn119  1  -0.00131817  0.12645578  0.62612577  1
  Zn  Zn120  1  0.24668825  0.37505658  0.62451410  1
  Zn  Zn121  1  0.87415299  0.87300949  0.50101486  1
  Zn  Zn122  1  0.18514590  0.18475516  0.19106547  1
  Zn  Zn123  1  0.18749899  0.18699916  0.68772759  1
  Zn  Zn124  1  0.18652673  0.68799750  0.19064992  1
  Zn  Zn125  1  0.18551250  0.68664805  0.69235904  1
  Zn  Zn126  1  0.68896310  0.18629498  0.18894672  1
  Zn  Zn127  1  0.68880183  0.18830767  0.68604758  1
  Zn  Zn128  1  0.68442665  0.68322358  0.18106110  1
  Zn  Zn129  1  0.68356899  0.68600909  0.68409740  1
  Zn  Zn130  1  0.31048885  0.31313018  0.31286712  1
  Zn  Zn131  1  0.31234403  0.31198101  0.81241698  1
  Zn  Zn132  1  0.31497899  0.80971810  0.31078085  1
  Zn  Zn133  1  0.31197984  0.81454476  0.81281997  1
  Zn  Zn134  1  0.81226862  0.31481815  0.31503827  1
  Zn  Zn135  1  0.81532020  0.31694777  0.81151804  1
  Zn  Zn136  1  0.81486281  0.81394123  0.31078429  1
  Zn  Zn137  1  0.81106720  0.81351962  0.81443901  1
  Zn  Zn138  1  0.18586257  0.43899829  0.43786023  1
  Zn  Zn139  1  0.19142099  0.43836437  0.93890804  1
  Zn  Zn140  1  0.18635065  0.93466279  0.44058339  1
  Zn  Zn141  1  0.18822303  0.93795453  0.93920982  1
  Zn  Zn142  1  0.68610514  0.43818737  0.43382421  1
  Zn  Zn143  1  0.69931079  0.43751794  0.93442947  1
  Zn  Zn144  1  0.68427429  0.93750715  0.43728709  1
  Zn  Zn145  1  0.68819452  0.93795963  0.93853828  1
  Zn  Zn146  1  0.31343852  0.06274363  0.06434854  1
  Zn  Zn147  1  0.31206868  0.06256884  0.56435895  1
  Zn  Zn148  1  0.31556446  0.55807833  0.06101178  1
  Zn  Zn149  1  0.31143562  0.56560048  0.56280988  1
  Zn  Zn150  1  0.81156157  0.06152429  0.06262590  1
  Zn  Zn151  1  0.81298324  0.06754217  0.56372027  1
  Zn  Zn152  1  0.81053002  0.56334021  0.05537581  1
  Zn  Zn153  1  0.81136438  0.56828137  0.55566155  1
  Zn  Zn154  1  0.43752477  0.43446874  0.18663083  1
  Zn  Zn155  1  0.43958450  0.43926450  0.68618907  1
  Zn  Zn156  1  0.43700915  0.93604023  0.18780908  1
  Zn  Zn157  1  0.43746680  0.93673506  0.68902129  1
  Zn  Zn158  1  0.93852749  0.43764244  0.18962665  1
  Zn  Zn159  1  0.94332346  0.43658463  0.68887735  1
  Zn  Zn160  1  0.93660247  0.93648131  0.18854468  1
  Zn  Zn161  1  0.93769765  0.93775079  0.68966334  1
  Zn  Zn162  1  0.06317574  0.06195819  0.31425838  1
  Zn  Zn163  1  0.06173883  0.06394944  0.81474191  1
  Zn  Zn164  1  0.06223230  0.56403891  0.30994372  1
  Zn  Zn165  1  0.06541437  0.56470110  0.81281101  1
  Zn  Zn166  1  0.56385651  0.06081328  0.31359879  1
  Zn  Zn167  1  0.56233401  0.06725423  0.81278581  1
  Zn  Zn168  1  0.56044522  0.55960976  0.30919866  1
  Zn  Zn169  1  0.56234189  0.56404360  0.80717503  1
  Zn  Zn170  1  0.43631968  0.18584340  0.43792517  1
  Zn  Zn171  1  0.46079036  0.22647241  0.95896429  1
  Zn  Zn172  1  0.43576845  0.68684895  0.43607026  1
  Zn  Zn173  1  0.43655540  0.68696447  0.93504461  1
  Zn  Zn174  1  0.93565635  0.18814271  0.44158213  1
  Zn  Zn175  1  0.93858140  0.18781127  0.93676065  1
  Zn  Zn176  1  0.93305126  0.68922981  0.44051118  1
  Zn  Zn177  1  0.93846150  0.68773441  0.93825476  1
  Zn  Zn178  1  0.06422826  0.31297713  0.06352848  1
  Zn  Zn179  1  0.05934321  0.31557839  0.56392469  1
  Zn  Zn180  1  0.06216134  0.81327442  0.06327330  1
  Zn  Zn181  1  0.06219311  0.81319992  0.56400152  1
  Zn  Zn182  1  0.56613912  0.30776228  0.06862098  1
  Zn  Zn183  1  0.56283780  0.31443026  0.56309943  1
  Zn  Zn184  1  0.55832871  0.81339290  0.06351162  1
  Zn  Zn185  1  0.56208165  0.81311993  0.56290612  1
  O  O186  1  0.11756017  0.12321385  0.11958585  1
  O  O187  1  0.12245062  0.11891749  0.61973846  1
  O  O188  1  0.11944144  0.61894403  0.12443022  1
  O  O189  1  0.11696345  0.62128676  0.62046917  1
  O  O190  1  0.62767982  0.11180756  0.12631527  1
  O  O191  1  0.61826489  0.11863508  0.62539272  1
  O  O192  1  0.61578992  0.61420899  0.11733724  1
  O  O193  1  0.62074426  0.61649407  0.61246069  1
  O  O194  1  0.37483883  0.37636705  0.38836244  1
  O  O195  1  0.37121741  0.38989208  0.87058607  1
  O  O196  1  0.38169420  0.87818142  0.38040467  1
  O  O197  1  0.37355030  0.88146023  0.88469912  1
  O  O198  1  0.88039788  0.38844187  0.37537992  1
  O  O199  1  0.88302242  0.38325563  0.88037794  1
  O  O200  1  0.88107928  0.88312430  0.37733471  1
  O  O201  1  0.88186343  0.87607038  0.88216230  1
  O  O202  1  0.25384905  0.00199339  0.36950528  1
  O  O203  1  0.25514890  0.00620445  0.87027990  1
  O  O204  1  0.24917415  0.50709150  0.36770795  1
  O  O205  1  0.25929607  0.50694200  0.86734326  1
  O  O206  1  0.75435374  0.00496083  0.37072446  1
  O  O207  1  0.74999731  0.00757843  0.86766018  1
  O  O208  1  0.75790803  0.50091736  0.36706780  1
  O  O209  1  0.76095371  0.50771209  0.86945875  1
  O  O210  1  0.24550206  0.49260245  0.12883300  1
  O  O211  1  0.24517219  0.50245368  0.63479021  1
  O  O212  1  0.25072350  0.99033051  0.13548855  1
  O  O213  1  0.24280235  1.00062252  0.63358552  1
  O  O214  1  0.74260512  0.49330120  0.12642810  1
  O  O215  1  0.73842894  0.50884714  0.62312132  1
  O  O216  1  0.74310013  0.99365511  0.13166806  1
  O  O217  1  0.74426071  0.99389610  0.62901326  1
  O  O218  1  0.00187393  0.36780006  0.25735186  1
  O  O219  1  0.00510537  0.36816201  0.75926983  1
  O  O220  1  0.00105306  0.86865666  0.25712700  1
  O  O221  1  0.00622821  0.86814957  0.75638523  1
  O  O222  1  0.50480655  0.36275301  0.25152930  1
  O  O223  1  0.51017883  0.36405790  0.74250207  1
  O  O224  1  0.50340449  0.86542298  0.25285603  1
  O  O225  1  0.50713830  0.86923440  0.75246974  1
  O  O226  1  0.49909596  0.13527607  0.24994992  1
  O  O227  1  0.49527741  0.13489041  0.74268622  1
  O  O228  1  0.49589999  0.63020499  0.24016062  1
  O  O229  1  0.49343121  0.63389831  0.74555046  1
  O  O230  1  0.99410786  0.12964605  0.24658618  1
  O  O231  1  0.99346138  0.13316680  0.75150820  1
  O  O232  1  0.99787182  0.63046936  0.23703558  1
  O  O233  1  1.00799347  0.63566054  0.74092437  1
  O  O234  1  0.36310119  0.24137867  0.01874229  1
  O  O235  1  0.37020513  0.25729374  0.50486575  1
  O  O236  1  0.37993037  0.75862368  0.01109940  1
  O  O237  1  0.37489305  0.75421458  0.50977417  1
  O  O238  1  0.87236152  0.25580242  0.00635634  1
  O  O239  1  0.86775392  0.25377234  0.50855069  1
  O  O240  1  0.87431224  0.75742399  0.00628255  1
  O  O241  1  0.86140299  0.75237945  0.50593507  1
  O  O242  1  0.12901446  0.24564234  0.49697137  1
  O  O243  1  0.13103058  0.24336507  0.99610870  1
  O  O244  1  0.12585630  0.74438871  0.49419335  1
  O  O245  1  0.12174116  0.75154533  0.98494946  1
  O  O246  1  0.63213218  0.24954648  0.49552075  1
  O  O247  1  0.63753594  0.25020947  0.98922588  1
  O  O248  1  0.63158924  0.74051098  0.50591064  1
  O  O249  1  0.62226415  0.75198817  0.98571856  1
  O  O250  1  0.49012072  0.24764675  0.13851629  1
  O  O251  1  0.49553687  0.24513471  0.63184945  1
  O  O252  1  0.49116621  0.74072813  0.13173505  1
  O  O253  1  0.48867017  0.75084316  0.63100218  1
  O  O254  1  0.99464672  0.24470238  0.13172331  1
  O  O255  1  0.99114396  0.24898177  0.63178720  1
  O  O256  1  0.99588887  0.74330357  0.12985850  1
  O  O257  1  0.99898296  0.74344547  0.63364109  1
  O  O258  1  0.00286262  0.25553206  0.37239646  1
  O  O259  1  0.00669167  0.25636923  0.87127286  1
  O  O260  1  0.00258291  0.75427031  0.37095087  1
  O  O261  1  0.00821900  0.75359379  0.86827120  1
  O  O262  1  0.50476180  0.24972538  0.36786616  1
  O  O263  1  0.51560756  0.24275766  0.85766966  1
  O  O264  1  0.49209088  0.75394748  0.35926136  1
  O  O265  1  0.50806658  0.75182373  0.86857388  1
  O  O266  1  0.24393782  0.13024400  0.49577044  1
  O  O267  1  0.24363697  0.12936396  0.99670853  1
  O  O268  1  0.24259108  0.62703152  0.49278581  1
  O  O269  1  0.25174191  0.62149673  0.98630189  1
  O  O270  1  0.74868341  0.13686334  0.49410147  1
  O  O271  1  0.75062663  0.13160129  0.99230525  1
  O  O272  1  0.74018239  0.63541840  0.49509961  1
  O  O273  1  0.74228215  0.62582138  0.98511893  1
  O  O274  1  0.24418521  0.36700590  0.01539107  1
  O  O275  1  0.25800409  0.37029116  0.50140154  1
  O  O276  1  0.26193678  0.88151582  0.01242923  1
  O  O277  1  0.25874026  0.87136359  0.50399159  1
  O  O278  1  0.76000373  0.36826801  0.00537576  1
  O  O279  1  0.75142206  0.36214842  0.49325439  1
  O  O280  1  0.75647853  0.87251487  0.00653116  1
  O  O281  1  0.74584345  0.86846886  0.50905793  1
  O  O282  1  0.13153642  0.50063717  0.23792628  1
  O  O283  1  0.13673937  0.50111338  0.74576081  1
  O  O284  1  0.13652039  0.99617433  0.25004169  1
  O  O285  1  0.12936824  0.99619176  0.74737485  1
  O  O286  1  0.62858620  0.49187881  0.24187267  1
  O  O287  1  0.62277676  0.49325054  0.73801081  1
  O  O288  1  0.63054842  0.99261548  0.24311232  1
  O  O289  1  0.63067369  0.99576075  0.74477696  1
  O  O290  1  0.36458307  -0.00184289  0.25730120  1
  O  O291  1  0.36973410  0.00594105  0.75497552  1
  O  O292  1  0.36909795  0.50511943  0.25060286  1
  O  O293  1  0.36846905  0.50552327  0.75399623  1
  O  O294  1  0.86882394  0.00534136  0.25643017  1
  O  O295  1  0.86811945  0.00767598  0.75135588  1
  O  O296  1  0.86793831  0.50160851  0.25614049  1
  O  O297  1  0.87709848  0.49447870  0.76334731  1
  O  O298  1  0.11760126  0.36908560  0.37475416  1
  O  O299  1  0.12167179  0.36927970  0.87580567  1
  O  O300  1  0.11712276  0.86783193  0.37503598  1
  O  O301  1  0.12115671  0.86825480  0.87143597  1
  O  O302  1  0.62212542  0.36708091  0.36699257  1
  O  O303  1  0.62796905  0.36747792  0.86529883  1
  O  O304  1  0.61573913  0.87995223  0.36502229  1
  O  O305  1  0.62569090  0.86621274  0.86906633  1
  O  O306  1  0.37346119  0.13457877  0.13406662  1
  O  O307  1  0.37973666  0.13097302  0.63198844  1
  O  O308  1  0.38011577  0.62951336  0.12778724  1
  O  O309  1  0.37661908  0.63492634  0.63079300  1
  O  O310  1  0.87957472  0.13061583  0.13185341  1
  O  O311  1  0.87703549  0.13716210  0.63278365  1
  O  O312  1  0.88348742  0.62940559  0.12256949  1
  O  O313  1  0.88911185  0.62481733  0.62198269  1
  O  O314  1  0.25322898  0.25545150  0.12552417  1
  O  O315  1  0.25688625  0.25133861  0.61905041  1
  O  O316  1  0.26161480  0.75849685  0.13339865  1
  O  O317  1  0.26231546  0.75035114  0.62785199  1
  O  O318  1  0.75656877  0.25496494  0.12064175  1
  O  O319  1  0.75928550  0.24587393  0.61532682  1
  O  O320  1  0.75484393  0.75481787  0.12182093  1
  O  O321  1  0.74871506  0.75948912  0.61946256  1
  O  O322  1  0.24328071  0.24427035  0.38159569  1
  O  O323  1  0.24695039  0.24554390  0.88205312  1
  O  O324  1  0.24293280  0.74276378  0.37344659  1
  O  O325  1  0.24104229  0.73985181  0.86559571  1
  O  O326  1  0.74580162  0.24515330  0.38170100  1
  O  O327  1  0.74491170  0.24787069  0.87723156  1
  O  O328  1  0.75283422  0.75223840  0.38662766  1
  O  O329  1  0.74117407  0.74259011  0.87414674  1
  O  O330  1  0.00439764  0.12043210  0.00600547  1
  O  O331  1  0.00637127  0.11818768  0.50169397  1
  O  O332  1  0.00509067  0.62501699  0.01351097  1
  O  O333  1  0.00506689  0.62196054  0.50890225  1
  O  O334  1  0.50797711  0.12993642  0.00587291  1
  O  O335  1  0.50009624  0.11808328  0.50734720  1
  O  O336  1  0.50004151  0.62815759  0.01249558  1
  O  O337  1  0.50565652  0.61753453  0.49915237  1
  O  O338  1  0.49105600  0.38260981  0.49860296  1
  O  O339  1  0.49363230  0.33668240  0.99113667  1
  O  O340  1  0.49526299  0.87999023  0.49431797  1
  O  O341  1  0.48548754  0.87992237  1.00012612  1
  O  O342  1  0.99664577  0.38521224  0.49361269  1
  O  O343  1  0.99622895  0.37703430  0.99452592  1
  O  O344  1  0.99709506  0.88166596  0.49525576  1
  O  O345  1  0.99461045  0.88047553  0.99631397  1
  O  O346  1  0.49702258  0.49662758  0.38685666  1
  O  O347  1  0.48629873  0.50191238  0.86933893  1
  O  O348  1  0.49327252  0.99380585  0.37976906  1
  O  O349  1  0.49270705  0.99940353  0.87552131  1
  O  O350  1  0.99280124  0.49794584  0.37812857  1
  O  O351  1  0.99576896  0.49762224  0.87712034  1
  O  O352  1  0.99491961  0.99506120  0.38122938  1
  O  O353  1  0.99869926  0.99304042  0.88257743  1
  O  O354  1  0.00081554  0.00639568  0.12049410  1
  O  O355  1  0.00605059  0.00195463  0.62052644  1
  O  O356  1  0.00866547  0.50725275  0.12568036  1
  O  O357  1  0.00517909  0.50878719  0.62127617  1
  O  O358  1  0.51001810  0.00138055  0.12669413  1
  O  O359  1  0.50427408  0.00446932  0.62062234  1
  O  O360  1  0.50436826  0.50769495  0.12924676  1
  O  O361  1  0.50786252  0.50210882  0.61156644  1
  O  O362  1  0.24631172  0.38046273  0.24173128  1
  O  O363  1  0.24985157  0.38739253  0.74708040  1
  O  O364  1  0.25073978  0.88177742  0.24225003  1
  O  O365  1  0.24310026  0.88379338  0.75013431  1
  O  O366  1  0.74474698  0.37943093  0.24311014  1
  O  O367  1  0.73840264  0.38029744  0.75075538  1
  O  O368  1  0.74451549  0.87934894  0.24410110  1
  O  O369  1  0.74484694  0.88020165  0.74245609  1
  O  O370  1  0.24881266  0.11330490  0.25820581  1
  O  O371  1  0.25575806  0.12098211  0.75671315  1
  O  O372  1  0.25608644  0.61914367  0.25359961  1
  O  O373  1  0.25539979  0.61567830  0.75893608  1
  O  O374  1  0.75638650  0.11928827  0.25700762  1
  O  O375  1  0.75605170  0.12131265  0.75391209  1
  O  O376  1  0.74889492  0.61717514  0.24995235  1
  O  O377  1  0.74491706  0.62290221  0.76118974  1
  O  O378  1  0.36657412  0.11633241  0.37560523  1
  O  O379  1  0.36741007  0.11970497  0.86781254  1
  O  O380  1  0.36756351  0.62322174  0.36680613  1
  O  O381  1  0.36844430  0.61954726  0.86880889  1
  O  O382  1  0.86989267  0.12001205  0.37033190  1
  O  O383  1  0.86832408  0.12592288  0.86768983  1
  O  O384  1  0.87298010  0.61327084  0.37174450  1
  O  O385  1  0.86746396  0.61668993  0.88056725  1
  O  O386  1  0.13268267  0.38289438  0.12901242  1
  O  O387  1  0.12652385  0.38566469  0.62748646  1
  O  O388  1  0.13722699  0.87434440  0.12713089  1
  O  O389  1  0.12677445  0.88176792  0.63311526  1
  O  O390  1  0.63221319  0.37630567  0.13155400  1
  O  O391  1  0.62245912  0.38653321  0.63075202  1
  O  O392  1  0.62868941  0.88240570  0.13062928  1
  O  O393  1  0.63336530  0.88059950  0.63094103  1
  O  O394  1  0.11718683  0.24915746  0.25981925  1
  O  O395  1  0.12086077  0.25065301  0.75819982  1
  O  O396  1  0.11638236  0.75086038  0.25801623  1
  O  O397  1  0.11654869  0.75598103  0.75960656  1
  O  O398  1  0.61783307  0.25326029  0.25422143  1
  O  O399  1  0.62253406  0.25979309  0.75243389  1
  O  O400  1  0.61162228  0.75436995  0.23892040  1
  O  O401  1  0.61962922  0.75482809  0.75761633  1
  O  O402  1  0.38148411  0.24750960  0.24655396  1
  O  O403  1  0.38381567  0.24774447  0.74581992  1
  O  O404  1  0.38411116  0.74394383  0.23798895  1
  O  O405  1  0.37958361  0.74673254  0.74438073  1
  O  O406  1  0.87951742  0.24481769  0.24628202  1
  O  O407  1  0.87959674  0.24753969  0.74377422  1
  O  O408  1  0.88079716  0.74731399  0.24198505  1
  O  O409  1  0.88954811  0.75616338  0.74957376  1
  O  O410  1  0.38211123  0.49358768  0.50136324  1
  O  O411  1  0.37308942  0.49882191  0.98302475  1
  O  O412  1  0.38057771  0.99379852  0.49657758  1
  O  O413  1  0.37649798  0.99362557  0.99521523  1
  O  O414  1  0.87941649  0.50062833  0.49021150  1
  O  O415  1  0.87804037  0.49332393  0.98922492  1
  O  O416  1  0.88020477  1.00002864  0.49486687  1
  O  O417  1  0.88126405  0.99329328  0.99915843  1
  O  O418  1  0.11838699  0.00622148  0.00302068  1
  O  O419  1  0.11947095  0.00528199  0.50656638  1
  O  O420  1  0.12639869  0.50327350  0.01409215  1
  O  O421  1  0.11870540  0.50798593  0.50558106  1
  O  O422  1  0.62332344  0.00064556  0.01136148  1
  O  O423  1  0.61728908  0.00234355  0.50720062  1
  O  O424  1  0.61755526  0.48742208  0.00065124  1
  O  O425  1  0.61850392  0.50496269  0.50399082  1
  O  O426  1  0.36248943  0.36260646  0.13383063  1
  O  O427  1  0.37414049  0.37001750  0.61408372  1
  O  O428  1  0.36928112  0.86728809  0.11956448  1
  O  O429  1  0.37371319  0.86645603  0.62044200  1
  O  O430  1  0.87118641  0.36993642  0.12083631  1
  O  O431  1  0.87897370  0.36366598  0.62548895  1
  O  O432  1  0.86895922  0.86912101  0.12064327  1
  O  O433  1  0.86028694  0.87590287  0.62478094  1
  O  O434  1  0.12952822  0.13037995  0.38308872  1
  O  O435  1  0.13184355  0.13125583  0.88196582  1
  O  O436  1  0.12812434  0.63056086  0.38014071  1
  O  O437  1  0.13458146  0.63242901  0.87767207  1
  O  O438  1  0.63210099  0.13112366  0.37702598  1
  O  O439  1  0.63471734  0.13879358  0.87133331  1
  O  O440  1  0.62441187  0.61855748  0.38725626  1
  O  O441  1  0.63037778  0.63212621  0.87431756  1
