# generated using pymatgen
data_V93Zn93O256
_symmetry_space_group_name_H-M   'P 1'
_cell_length_a   17.05876574
_cell_length_b   17.05432096
_cell_length_c   17.05951604
_cell_angle_alpha   90.02933176
_cell_angle_beta   89.97623423
_cell_angle_gamma   89.94716633
_symmetry_Int_Tables_number   1
_chemical_formula_structural   V93Zn93O256
_chemical_formula_sum   'V93 Zn93 O256'
_cell_volume   4963.04787848
_cell_formula_units_Z   1
loop_
 _symmetry_equiv_pos_site_id
 _symmetry_equiv_pos_as_xyz
  1  'x, y, z'
loop_
 _atom_site_type_symbol
 _atom_site_label
 _atom_site_symmetry_multiplicity
 _atom_site_fract_x
 _atom_site_fract_y
 _atom_site_fract_z
 _atom_site_occupancy
  V  V0  1  0.37434492  0.62845815  0.24356736  1
  V  V1  1  0.37422312  0.25054588  0.62658938  1
  V  V2  1  0.12871718  0.87716570  0.25122980  1
  V  V3  1  0.62286101  0.37622261  0.25059662  1
  V  V4  1  0.49642581  0.75070192  0.24435772  1
  V  V5  1  0.00512158  0.86982132  0.87459655  1
  V  V6  1  0.74940129  0.50020064  0.75024681  1
  V  V7  1  0.87613941  0.87426465  0.00173527  1
  V  V8  1  0.12443671  0.24754767  0.87538108  1
  V  V9  1  0.24916598  0.62397437  0.37285454  1
  V  V10  1  0.75094739  0.62496282  0.87550307  1
  V  V11  1  0.24866695  0.24914155  0.50039775  1
  V  V12  1  0.12284780  0.62369667  0.49631702  1
  V  V13  1  0.74759444  0.50063059  0.24982052  1
  V  V14  1  0.49637468  0.24893328  0.24948335  1
  V  V15  1  0.12850064  0.00148888  0.12499702  1
  V  V16  1  0.74970934  0.37471735  0.62532534  1
  V  V17  1  0.24887008  0.37548913  0.62737156  1
  V  V18  1  0.12897123  0.24568821  0.37468468  1
  V  V19  1  0.25085819  0.49873879  0.25066160  1
  V  V20  1  0.49900843  0.12460959  0.62516557  1
  V  V21  1  0.62465619  0.25023627  0.37514885  1
  V  V22  1  -0.00032986  0.24835190  0.75097617  1
  V  V23  1  -0.00059948  0.62824050  0.13049650  1
  V  V24  1  0.87372676  0.50029677  0.37543833  1
  V  V25  1  0.24982791  0.24825321  -0.00041797  1
  V  V26  1  0.12871102  0.63709603  -0.00295965  1
  V  V27  1  0.12539521  0.37448954  0.75046244  1
  V  V28  1  0.50044375  -0.00324376  0.49279138  1
  V  V29  1  0.62377809  0.25043779  0.87420974  1
  V  V30  1  -0.00045282  0.49941519  0.00077908  1
  V  V31  1  0.37819200  0.87490537  0.48877542  1
  V  V32  1  0.50278320  0.74792074  0.74507206  1
  V  V33  1  0.00049305  0.12376131  0.62523003  1
  V  V34  1  0.74977153  0.12509684  0.87542852  1
  V  V35  1  0.12142790  0.74967012  0.36886562  1
  V  V36  1  0.87608112  0.62552101  0.74931553  1
  V  V37  1  0.12850061  0.12466879  0.49797045  1
  V  V38  1  0.12536775  0.00044268  0.62313757  1
  V  V39  1  0.12297862  0.49881539  0.62463027  1
  V  V40  1  0.62280235  0.37542753  0.75032743  1
  V  V41  1  0.49889038  -0.00051432  0.00103823  1
  V  V42  1  0.00250991  -0.00143829  0.00125348  1
  V  V43  1  0.25192244  -0.00132783  0.74993771  1
  V  V44  1  0.49891099  0.25041957  0.75043219  1
  V  V45  1  0.00170107  0.74781704  0.74990406  1
  V  V46  1  0.74923331  0.00073194  0.25102388  1
  V  V47  1  0.63002409  0.75172538  0.87398519  1
  V  V48  1  0.74962764  0.12569189  0.37493308  1
  V  V49  1  0.61927984  0.75332453  0.37442725  1
  V  V50  1  -0.00210447  0.37585591  0.37758548  1
  V  V51  1  0.25896837  0.86596299  0.12561422  1
  V  V52  1  0.61997831  0.87499659  0.25431252  1
  V  V53  1  0.49711811  0.37560186  0.37574526  1
  V  V54  1  0.24912584  0.37339387  0.12479065  1
  V  V55  1  -0.00011541  0.87228820  0.37117890  1
  V  V56  1  -0.00297177  0.24796812  0.24869664  1
  V  V57  1  0.12547683  0.87248797  0.74695890  1
  V  V58  1  0.62295830  0.50236682  0.12525609  1
  V  V59  1  0.37600636  -0.00384657  0.87687134  1
  V  V60  1  0.24898818  0.11899697  0.87616366  1
  V  V61  1  0.62289600  0.50135784  0.62476616  1
  V  V62  1  0.75133853  0.87568858  0.12562044  1
  V  V63  1  0.62659478  0.87590220  0.75038733  1
  V  V64  1  0.87491304  0.62691607  0.24995446  1
  V  V65  1  0.12451465  0.37534963  0.25040748  1
  V  V66  1  0.87776868  0.75088903  0.13064103  1
  V  V67  1  0.87531187  0.12361637  0.74983636  1
  V  V68  1  0.49477400  0.12475728  0.13058879  1
  V  V69  1  0.12406053  0.12204932  0.00068403  1
  V  V70  1  0.37371181  0.24594721  0.12789262  1
  V  V71  1  0.25418382  0.87500580  0.61972803  1
  V  V72  1  0.74921176  0.25026151  0.50000564  1
  V  V73  1  0.75234498  0.87471075  0.62347118  1
  V  V74  1  0.74841461  0.62508151  0.37449522  1
  V  V75  1  0.62444097  0.00060512  0.12584940  1
  V  V76  1  0.12346470  0.49979249  0.12513485  1
  V  V77  1  0.62427736  0.00072306  0.62404586  1
  V  V78  1  0.87607487  -0.00012441  0.37555780  1
  V  V79  1  0.87526743  0.49908826  0.87589732  1
  V  V80  1  0.75033713  -0.00022582  0.74945456  1
  V  V81  1  0.87388415  0.24980226  0.62469189  1
  V  V82  1  0.36746576  0.01727685  0.37214478  1
  V  V83  1  0.61977064  0.62446246  0.50153094  1
  V  V84  1  -0.00082776  0.37359959  0.87641566  1
  V  V85  1  0.49949090  0.49842824  -0.00151035  1
  V  V86  1  0.74990568  0.25069621  0.00107172  1
  V  V87  1  0.37438225  0.37489630  -0.00389510  1
  V  V88  1  0.62751558  0.62444018  0.00072071  1
  V  V89  1  0.37398429  0.37593676  0.49979542  1
  V  V90  1  0.75024246  0.75151002  0.50024918  1
  V  V91  1  0.87572874  -0.00138920  0.87573589  1
  V  V92  1  0.74918212  0.37428941  0.12521841  1
  Zn  Zn93  1  0.24702059  0.51234641  0.75924904  1
  Zn  Zn94  1  0.37806002  0.74742673  0.61911615  1
  Zn  Zn95  1  -0.00292042  0.62539191  0.62240033  1
  Zn  Zn96  1  0.75078946  0.74978102  0.00079510  1
  Zn  Zn97  1  0.36120983  0.52082329  0.87881203  1
  Zn  Zn98  1  0.36169726  0.63204946  0.75439590  1
  Zn  Zn99  1  0.49027230  0.62097798  0.62782725  1
  Zn  Zn100  1  0.00055420  -0.00118985  0.49951797  1
  Zn  Zn101  1  0.87617534  0.74967860  0.62231091  1
  Zn  Zn102  1  0.49664350  0.37612541  0.87260220  1
  Zn  Zn103  1  0.29864265  0.70602360  -0.04659058  1
  Zn  Zn104  1  0.62496666  0.12516438  0.00040007  1
  Zn  Zn105  1  0.87825786  0.87238630  0.50056002  1
  Zn  Zn106  1  0.50361594  0.87632512  0.87636045  1
  Zn  Zn107  1  0.87331049  0.37708046  0.50149894  1
  Zn  Zn108  1  -0.00445666  0.50050375  0.50135926  1
  Zn  Zn109  1  0.37489495  0.12450018  0.75075863  1
  Zn  Zn110  1  0.25333225  0.75011853  0.49513583  1
  Zn  Zn111  1  0.25494005  0.02703064  0.25169372  1
  Zn  Zn112  1  0.87407677  0.24859227  0.12567757  1
  Zn  Zn113  1  0.49222585  0.63232566  0.11854752  1
  Zn  Zn114  1  0.87561142  0.37497623  0.00276661  1
  Zn  Zn115  1  0.38128528  0.85932120  0.01222217  1
  Zn  Zn116  1  0.37528010  0.49999586  0.37574959  1
  Zn  Zn117  1  -0.00276327  0.12423942  0.12523217  1
  Zn  Zn118  1  0.62403728  0.12512934  0.49986023  1
  Zn  Zn119  1  0.49565899  0.49987943  0.50118624  1
  Zn  Zn120  1  0.18460388  0.69805529  0.83173716  1
  Zn  Zn121  1  0.87383740  0.12569448  0.24793681  1
  Zn  Zn122  1  0.18643749  0.18690195  0.18697451  1
  Zn  Zn123  1  0.18862243  0.18599578  0.68817884  1
  Zn  Zn124  1  0.18709620  0.68728957  0.18696751  1
  Zn  Zn125  1  0.18748744  0.68787458  0.67080877  1
  Zn  Zn126  1  0.68383777  0.18635705  0.18778395  1
  Zn  Zn127  1  0.68586986  0.18685801  0.68724105  1
  Zn  Zn128  1  0.68770349  0.68876403  0.18583457  1
  Zn  Zn129  1  0.68808472  0.68755470  0.68599236  1
  Zn  Zn130  1  0.31204276  0.30696157  0.31208194  1
  Zn  Zn131  1  0.30975793  0.31252129  0.81212505  1
  Zn  Zn132  1  0.31024687  0.81377647  0.31097743  1
  Zn  Zn133  1  0.32234294  0.81566155  0.80690823  1
  Zn  Zn134  1  0.81170757  0.31366972  0.31265696  1
  Zn  Zn135  1  0.81214211  0.31302814  0.81297762  1
  Zn  Zn136  1  0.80966588  0.81279633  0.31291657  1
  Zn  Zn137  1  0.81544233  0.81184464  0.81142441  1
  Zn  Zn138  1  0.18761821  0.43639336  0.43805619  1
  Zn  Zn139  1  0.18512281  0.44032285  0.93827457  1
  Zn  Zn140  1  0.19057029  0.94013577  0.43619014  1
  Zn  Zn141  1  0.20796832  0.89064387  0.92317143  1
  Zn  Zn142  1  0.68587879  0.43721366  0.43829876  1
  Zn  Zn143  1  0.68663661  0.43607440  0.93684479  1
  Zn  Zn144  1  0.68843281  0.93727311  0.43842384  1
  Zn  Zn145  1  0.68848816  0.93781161  0.93933242  1
  Zn  Zn146  1  0.31147478  0.05791241  0.06305523  1
  Zn  Zn147  1  0.31457350  0.06256431  0.56035073  1
  Zn  Zn148  1  0.31008994  0.55951159  0.06360951  1
  Zn  Zn149  1  0.31113148  0.56212467  0.56483074  1
  Zn  Zn150  1  0.81460234  0.06450361  0.06414780  1
  Zn  Zn151  1  0.81189458  0.06246539  0.56016104  1
  Zn  Zn152  1  0.81213319  0.56141695  0.06265413  1
  Zn  Zn153  1  0.81108069  0.56404184  0.56242661  1
  Zn  Zn154  1  0.43553340  0.43777944  0.18626162  1
  Zn  Zn155  1  0.43284643  0.44398516  0.69186372  1
  Zn  Zn156  1  0.43828968  0.94083929  0.19450288  1
  Zn  Zn157  1  0.43911764  0.93590592  0.68554464  1
  Zn  Zn158  1  0.93482581  0.43707109  0.18755355  1
  Zn  Zn159  1  0.93782979  0.43690007  0.68886085  1
  Zn  Zn160  1  0.94026954  0.93741440  0.19069460  1
  Zn  Zn161  1  0.93762072  0.93618690  0.68619792  1
  Zn  Zn162  1  0.06322713  0.06216425  0.31143346  1
  Zn  Zn163  1  0.06364471  0.05786900  0.81254842  1
  Zn  Zn164  1  0.06104107  0.56050630  0.31148412  1
  Zn  Zn165  1  0.06224245  0.56013929  0.81392492  1
  Zn  Zn166  1  0.56085552  0.06392235  0.31393455  1
  Zn  Zn167  1  0.56278335  0.06485537  0.81209411  1
  Zn  Zn168  1  0.55781005  0.56377889  0.31326284  1
  Zn  Zn169  1  0.56166153  0.56338199  0.81480797  1
  Zn  Zn170  1  0.43956984  0.18947718  0.44091161  1
  Zn  Zn171  1  0.43734140  0.18487351  0.93878017  1
  Zn  Zn172  1  0.43568602  0.68871792  0.43190603  1
  Zn  Zn173  1  0.45246646  0.68902351  0.93221901  1
  Zn  Zn174  1  0.93767611  0.18635589  0.43844701  1
  Zn  Zn175  1  0.93620963  0.18571454  0.93887572  1
  Zn  Zn176  1  0.93736949  0.68879344  0.43552214  1
  Zn  Zn177  1  0.93858776  0.68745518  0.94034862  1
  Zn  Zn178  1  0.06249695  0.31176972  0.06241046  1
  Zn  Zn179  1  0.06087372  0.31129282  0.56254723  1
  Zn  Zn180  1  0.06240951  0.81498553  0.06823666  1
  Zn  Zn181  1  0.06275872  0.81152578  0.55926449  1
  Zn  Zn182  1  0.56269073  0.31265949  0.06319985  1
  Zn  Zn183  1  0.56143542  0.31319747  0.56262607  1
  Zn  Zn184  1  0.56507609  0.81289926  0.06270757  1
  Zn  Zn185  1  0.56274576  0.81499948  0.56299508  1
  O  O186  1  0.12148704  0.11651566  0.11878743  1
  O  O187  1  0.11938668  0.12059837  0.61838205  1
  O  O188  1  0.11593202  0.62097763  0.12054892  1
  O  O189  1  0.12067865  0.61619087  0.61216647  1
  O  O190  1  0.61430682  0.11818574  0.12293404  1
  O  O191  1  0.61837667  0.11770932  0.62363841  1
  O  O192  1  0.62522038  0.61834528  0.11847342  1
  O  O193  1  0.62604611  0.61995040  0.61380537  1
  O  O194  1  0.37947032  0.37309334  0.38226546  1
  O  O195  1  0.37500118  0.36937129  0.89085548  1
  O  O196  1  0.37016097  0.88176427  0.38631216  1
  O  O197  1  0.38109133  0.88872876  0.87928876  1
  O  O198  1  0.88300296  0.38121639  0.37535650  1
  O  O199  1  0.88150451  0.38133498  0.87590234  1
  O  O200  1  0.88333708  0.88102944  0.37252756  1
  O  O201  1  0.88434614  0.87958254  0.88028831  1
  O  O202  1  0.26420315  0.00103697  0.37460783  1
  O  O203  1  0.25866982  -0.00278211  0.87024600  1
  O  O204  1  0.24788018  0.50568822  0.36686217  1
  O  O205  1  0.24900933  0.49846487  0.87243886  1
  O  O206  1  0.75701954  0.00407382  0.37051298  1
  O  O207  1  0.75633402  0.00472636  0.86996370  1
  O  O208  1  0.75316669  0.50528210  0.36905314  1
  O  O209  1  0.75478437  0.50456740  0.86915207  1
  O  O210  1  0.24294242  0.49212610  0.13131141  1
  O  O211  1  0.23498031  0.49412876  0.62693546  1
  O  O212  1  0.23989586  0.99536904  0.13134237  1
  O  O213  1  0.24607708  0.99272815  0.62838717  1
  O  O214  1  0.74372130  0.49483331  0.13082926  1
  O  O215  1  0.74382520  0.49476408  0.63152486  1
  O  O216  1  0.74491230  0.99560569  0.13116109  1
  O  O217  1  0.74504859  0.99601802  0.63002867  1
  O  O218  1  0.00385542  0.36928851  0.25902229  1
  O  O219  1  0.00529730  0.36728326  0.75617564  1
  O  O220  1  0.01436836  0.88011695  0.26131204  1
  O  O221  1  0.00438408  0.86745110  0.75591221  1
  O  O222  1  0.50481650  0.37041087  0.25440968  1
  O  O223  1  0.50481956  0.36905166  0.75154655  1
  O  O224  1  0.51362434  0.86797215  0.24609443  1
  O  O225  1  0.50979032  0.86798767  0.74912104  1
  O  O226  1  0.50553771  0.13211154  0.23799804  1
  O  O227  1  0.49776664  0.13183473  0.74299775  1
  O  O228  1  0.49108631  0.63230115  0.24724835  1
  O  O229  1  0.50571601  0.63963728  0.74921333  1
  O  O230  1  0.99993106  0.13762252  0.25049818  1
  O  O231  1  0.99533471  0.12858701  0.74585377  1
  O  O232  1  0.99289676  0.61837037  0.23726803  1
  O  O233  1  0.99639697  0.63423292  0.75154257  1
  O  O234  1  0.36975135  0.25565334  0.00665205  1
  O  O235  1  0.36805758  0.25568954  0.50698903  1
  O  O236  1  0.38880365  0.74818177  0.00537276  1
  O  O237  1  0.37472975  0.76048649  0.49815475  1
  O  O238  1  0.86145420  0.25178071  -0.00016672  1
  O  O239  1  0.86820104  0.25114426  0.50720331  1
  O  O240  1  0.87403685  0.75572465  0.01184937  1
  O  O241  1  0.86561258  0.75073392  0.50024933  1
  O  O242  1  0.12763595  0.24359219  0.49379585  1
  O  O243  1  0.12976522  0.24308749  0.99459080  1
  O  O244  1  0.12629235  0.74013605  0.48912283  1
  O  O245  1  0.11863692  0.73574465  1.00664552  1
  O  O246  1  0.63104768  0.24932594  0.49317518  1
  O  O247  1  0.63488087  0.24990109  0.99434271  1
  O  O248  1  0.62825567  0.74507089  0.49176814  1
  O  O249  1  0.62735813  0.74406035  0.99311183  1
  O  O250  1  0.49573003  0.24211712  0.12828102  1
  O  O251  1  0.49415472  0.24503532  0.63041875  1
  O  O252  1  0.50806661  0.74834939  0.14013398  1
  O  O253  1  0.50302311  0.74761936  0.63357214  1
  O  O254  1  0.99994360  0.25096741  0.13746159  1
  O  O255  1  0.99434238  0.24438668  0.63175916  1
  O  O256  1  0.98903036  0.74082344  0.12279151  1
  O  O257  1  0.99948449  0.74976720  0.63691868  1
  O  O258  1  0.00657654  0.25798864  0.36919943  1
  O  O259  1  0.00458833  0.25263387  0.87035729  1
  O  O260  1  0.01013788  0.75968839  0.37719726  1
  O  O261  1  -0.00589674  0.76057818  0.86520984  1
  O  O262  1  0.50471768  0.25519443  0.36952402  1
  O  O263  1  0.50576018  0.24948655  0.86953558  1
  O  O264  1  0.51399899  0.74561065  0.36402079  1
  O  O265  1  0.51388829  0.75672115  0.86226081  1
  O  O266  1  0.23534149  0.13249447  0.50824151  1
  O  O267  1  0.24397830  0.12819766  0.99518710  1
  O  O268  1  0.23690716  0.62455748  0.49251884  1
  O  O269  1  0.23301847  0.62690935  1.00948941  1
  O  O270  1  0.74727915  0.13186355  0.49307057  1
  O  O271  1  0.74849548  0.13340861  0.99421467  1
  O  O272  1  0.73900012  0.63101677  0.49423009  1
  O  O273  1  0.74486335  0.62485455  0.99303396  1
  O  O274  1  0.25544471  0.36852321  0.00579479  1
  O  O275  1  0.25310017  0.36868200  0.50751505  1
  O  O276  1  0.25747696  0.88141678  0.02186221  1
  O  O277  1  0.25856277  0.87679658  0.50607862  1
  O  O278  1  0.74986740  0.36618928  0.00556283  1
  O  O279  1  0.75033177  0.36859751  0.50727925  1
  O  O280  1  0.75861855  0.87532972  0.00799023  1
  O  O281  1  0.75089515  0.86831791  0.50552274  1
  O  O282  1  0.13006119  0.49434859  0.24434214  1
  O  O283  1  0.12196025  0.49301649  0.73999757  1
  O  O284  1  0.12685040  0.99381801  0.24258007  1
  O  O285  1  0.13115663  0.99304153  0.74239307  1
  O  O286  1  0.62856381  0.49648151  0.24571665  1
  O  O287  1  0.62988224  0.49565753  0.74578192  1
  O  O288  1  0.62775842  0.99197907  0.24746807  1
  O  O289  1  0.63121119  0.99588592  0.74476730  1
  O  O290  1  0.37861118  0.00031200  0.27016148  1
  O  O291  1  0.37147739  -0.00003727  0.75923226  1
  O  O292  1  0.36830023  0.50804320  0.25187459  1
  O  O293  1  0.36888511  0.50988642  0.75784832  1
  O  O294  1  0.86891604  -0.00101931  0.26079433  1
  O  O295  1  0.87022132  0.00447687  0.75552631  1
  O  O296  1  0.86695823  0.50653243  0.25538597  1
  O  O297  1  0.86991923  0.50517519  0.75610231  1
  O  O298  1  0.11541262  0.36770540  0.37094689  1
  O  O299  1  0.11797381  0.36637529  0.87099502  1
  O  O300  1  0.12108705  0.87015386  0.36993829  1
  O  O301  1  0.11094788  0.88207471  0.86501848  1
  O  O302  1  0.61866837  0.36979537  0.36943051  1
  O  O303  1  0.62263885  0.36847197  0.86732952  1
  O  O304  1  0.63249193  0.86494295  0.36474180  1
  O  O305  1  0.62763606  0.87056308  0.86794504  1
  O  O306  1  0.38696808  0.13002512  0.11756505  1
  O  O307  1  0.38033570  0.13213133  0.62634088  1
  O  O308  1  0.37272066  0.62172983  0.13991053  1
  O  O309  1  0.37381666  0.63085046  0.62959211  1
  O  O310  1  0.87998347  0.12940308  0.13039599  1
  O  O311  1  0.88002925  0.12891245  0.63065055  1
  O  O312  1  0.88068514  0.63148531  0.12906040  1
  O  O313  1  0.87802224  0.62642037  0.63311309  1
  O  O314  1  0.25319317  0.25535524  0.11711866  1
  O  O315  1  0.25373635  0.25539642  0.62039756  1
  O  O316  1  0.24691634  0.76717192  0.13254591  1
  O  O317  1  0.25070523  0.76554849  0.61678296  1
  O  O318  1  0.74676438  0.25498229  0.11645930  1
  O  O319  1  0.75459262  0.25463658  0.62113964  1
  O  O320  1  0.75956485  0.75677037  0.12316642  1
  O  O321  1  0.75022702  0.75718742  0.61773986  1
  O  O322  1  0.23395470  0.25985993  0.38329444  1
  O  O323  1  0.24371710  0.24123206  0.88057660  1
  O  O324  1  0.23863309  0.74338654  0.37533471  1
  O  O325  1  0.24446360  0.78014516  0.88262667  1
  O  O326  1  0.74447941  0.24601829  0.37944257  1
  O  O327  1  0.74485667  0.24547813  0.88167236  1
  O  O328  1  0.73979626  0.74425890  0.37884730  1
  O  O329  1  0.74736475  0.74328989  0.87625323  1
  O  O330  1  0.00632968  0.11685152  -0.00014251  1
  O  O331  1  0.01045459  0.12465141  0.50745306  1
  O  O332  1  0.00713798  0.61993663  0.01132687  1
  O  O333  1  0.01144641  0.62281581  0.49749336  1
  O  O334  1  0.50304839  0.11526804  0.00937633  1
  O  O335  1  0.50204556  0.11559942  0.50787128  1
  O  O336  1  0.50949631  0.61402568  0.00212132  1
  O  O337  1  0.51199600  0.62593828  0.49827717  1
  O  O338  1  0.49189734  0.37446089  0.49360283  1
  O  O339  1  0.49110052  0.38150249  1.00081573  1
  O  O340  1  0.49066751  0.88695976  0.50658309  1
  O  O341  1  0.50028626  0.88878832  1.00239537  1
  O  O342  1  0.99794826  0.37468025  0.48751088  1
  O  O343  1  0.99907672  0.38035753  0.99409879  1
  O  O344  1  1.00040318  0.87792759  0.48605294  1
  O  O345  1  0.99712871  0.87803931  0.99275580  1
  O  O346  1  0.49719026  0.49093660  0.37849510  1
  O  O347  1  0.49879438  0.49804167  0.88993922  1
  O  O348  1  0.49102326  1.00607662  0.38713827  1
  O  O349  1  0.49437566  1.00218509  0.88418945  1
  O  O350  1  0.99401619  0.48973628  0.37382399  1
  O  O351  1  0.99484423  0.49304319  0.88050862  1
  O  O352  1  0.99184311  0.99238118  0.37493084  1
  O  O353  1  0.99419925  0.99039921  0.87940922  1
  O  O354  1  0.01120969  -0.00250696  0.12077998  1
  O  O355  1  0.00709010  0.00533182  0.62341582  1
  O  O356  1  0.00307379  0.50749541  0.12127334  1
  O  O357  1  0.01080311  0.49986243  0.62257070  1
  O  O358  1  0.50314802  0.00689760  0.12074216  1
  O  O359  1  0.50460288  0.00528233  0.61680699  1
  O  O360  1  0.50459363  0.50085565  0.11372547  1
  O  O361  1  0.50823096  0.50258153  0.62208866  1
  O  O362  1  0.24363783  0.37796057  0.24423237  1
  O  O363  1  0.24003839  0.37174595  0.74238310  1
  O  O364  1  0.23961094  0.88082275  0.24425780  1
  O  O365  1  0.24627829  0.88006933  0.73787550  1
  O  O366  1  0.74215413  0.38101614  0.24607517  1
  O  O367  1  0.74370007  0.38057691  0.74495843  1
  O  O368  1  0.74039245  0.88059068  0.24509991  1
  O  O369  1  0.74696165  0.88129458  0.74451380  1
  O  O370  1  0.24974296  0.13685572  0.25788491  1
  O  O371  1  0.25065848  0.11630313  0.75779470  1
  O  O372  1  0.25520816  0.61987399  0.25329620  1
  O  O373  1  0.24045507  0.63357326  0.75363990  1
  O  O374  1  0.74916663  0.11812527  0.25710284  1
  O  O375  1  0.75605563  0.11942079  0.75509153  1
  O  O376  1  0.75393056  0.61981206  0.25509439  1
  O  O377  1  0.75514883  0.61914308  0.75564277  1
  O  O378  1  0.37412562  0.11595073  0.38384779  1
  O  O379  1  0.36762744  0.11288800  0.87608425  1
  O  O380  1  0.36681617  0.62278305  0.36474751  1
  O  O381  1  0.36704777  0.63710168  0.87606505  1
  O  O382  1  0.87001524  0.11541554  0.37291553  1
  O  O383  1  0.87004323  0.11823441  0.86917590  1
  O  O384  1  0.86888989  0.62092027  0.36897375  1
  O  O385  1  0.87115863  0.61886985  0.87020915  1
  O  O386  1  0.12942435  0.37967032  0.13043993  1
  O  O387  1  0.12751487  0.38064655  0.62887365  1
  O  O388  1  0.13230993  0.88198871  0.13327354  1
  O  O389  1  0.13351629  0.88057339  0.62604120  1
  O  O390  1  0.62908944  0.38184328  0.13149002  1
  O  O391  1  0.63017381  0.38073830  0.63084835  1
  O  O392  1  0.63169231  0.88064074  0.13449233  1
  O  O393  1  0.63272441  0.88222400  0.63031812  1
  O  O394  1  0.11533457  0.25686941  0.25812696  1
  O  O395  1  0.11868291  0.25292005  0.75595550  1
  O  O396  1  0.12907263  0.75992720  0.26110208  1
  O  O397  1  0.11611448  0.75491617  0.74785797  1
  O  O398  1  0.61776825  0.25740121  0.25523836  1
  O  O399  1  0.61940330  0.25599374  0.75420006  1
  O  O400  1  0.62029993  0.75589490  0.25664630  1
  O  O401  1  0.62290842  0.75667645  0.75378060  1
  O  O402  1  0.38456741  0.25928487  0.23889136  1
  O  O403  1  0.38025774  0.24871261  0.74434853  1
  O  O404  1  0.38641746  0.74254570  0.25976144  1
  O  O405  1  0.39069108  0.75349926  0.74314551  1
  O  O406  1  0.88570594  0.24975508  0.25149483  1
  O  O407  1  0.87978039  0.24304219  0.74551831  1
  O  O408  1  0.86805921  0.74382330  0.23874620  1
  O  O409  1  0.88483361  0.74379380  0.74781229  1
  O  O410  1  0.37401092  0.49130131  0.49745086  1
  O  O411  1  0.38183379  0.49168033  1.00113565  1
  O  O412  1  0.38105481  0.99512232  0.49076834  1
  O  O413  1  0.38498109  0.99854101  0.99346658  1
  O  O414  1  0.87593638  0.49866413  0.49164284  1
  O  O415  1  0.88156467  0.49914105  0.99357422  1
  O  O416  1  0.87609481  0.99733475  0.48624443  1
  O  O417  1  0.88195360  0.99360574  0.99584142  1
  O  O418  1  0.11984181  0.00382393  0.01232998  1
  O  O419  1  0.12507032  0.00975384  0.50364534  1
  O  O420  1  0.11764328  0.50855975  0.00835299  1
  O  O421  1  0.12197985  0.50661247  0.50605707  1
  O  O422  1  0.61627748  0.00063114  0.00690333  1
  O  O423  1  0.61603182  -0.00059557  0.50430520  1
  O  O424  1  0.61812404  0.50264823  0.00500155  1
  O  O425  1  0.62482988  0.51041219  0.50489924  1
  O  O426  1  0.36881792  0.36902121  0.11445114  1
  O  O427  1  0.36818276  0.37018889  0.62046222  1
  O  O428  1  0.36120007  0.88187283  0.13435699  1
  O  O429  1  0.36583036  0.87757571  0.61365260  1
  O  O430  1  0.86495097  0.37142684  0.12347451  1
  O  O431  1  0.86816763  0.36815626  0.62566452  1
  O  O432  1  0.87316092  0.86844734  0.12333755  1
  O  O433  1  0.86769584  0.87341869  0.62123394  1
  O  O434  1  0.11533514  0.13614883  0.38626099  1
  O  O435  1  0.12983113  0.12719891  0.88025457  1
  O  O436  1  0.12697096  0.63112606  0.37692705  1
  O  O437  1  0.11704199  0.62634443  0.89301330  1
  O  O438  1  0.63133935  0.13241736  0.37622323  1
  O  O439  1  0.63293485  0.13179458  0.87618377  1
  O  O440  1  0.62927140  0.63257190  0.38157073  1
  O  O441  1  0.63259458  0.63053951  0.88095755  1
