# generated using pymatgen
data_V93Zn93O256
_symmetry_space_group_name_H-M   'P 1'
_cell_length_a   17.05390421
_cell_length_b   17.05635725
_cell_length_c   17.05005077
_cell_angle_alpha   90.03737451
_cell_angle_beta   89.89568997
_cell_angle_gamma   89.96355086
_symmetry_Int_Tables_number   1
_chemical_formula_structural   V93Zn93O256
_chemical_formula_sum   'V93 Zn93 O256'
_cell_volume   4959.46556837
_cell_formula_units_Z   1
loop_
 _symmetry_equiv_pos_site_id
 _symmetry_equiv_pos_as_xyz
  1  'x, y, z'
loop_
 _atom_site_type_symbol
 _atom_site_label
 _atom_site_symmetry_multiplicity
 _atom_site_fract_x
 _atom_site_fract_y
 _atom_site_fract_z
 _atom_site_occupancy
  V  V0  1  0.25282965  0.12516507  0.87412326  1
  V  V1  1  0.75062839  0.12532136  0.37468644  1
  V  V2  1  0.37307912  0.62394995  0.25122916  1
  V  V3  1  0.37303713  0.87593933  0.49980833  1
  V  V4  1  0.00013722  0.25113558  0.75053470  1
  V  V5  1  0.75030122  0.24436522  -0.00500986  1
  V  V6  1  0.12514835  0.00021263  0.62588166  1
  V  V7  1  0.37522738  0.24963752  0.12494002  1
  V  V8  1  0.49998645  0.74985208  0.25138356  1
  V  V9  1  0.24584537  0.75124820  0.49866206  1
  V  V10  1  0.86732494  0.12736990  0.75711528  1
  V  V11  1  0.50132797  0.12490228  0.12277721  1
  V  V12  1  0.87594514  0.24966780  0.12438496  1
  V  V13  1  0.75098552  0.37439702  0.12514641  1
  V  V14  1  0.12285003  0.12077123  -0.00114664  1
  V  V15  1  0.50127147  0.12433642  0.62344254  1
  V  V16  1  0.75276444  0.87385837  0.12280986  1
  V  V17  1  0.49994719  0.62383981  0.12593522  1
  V  V18  1  0.74927457  0.62619514  0.37580739  1
  V  V19  1  0.37326474  0.00102673  0.37358459  1
  V  V20  1  0.87396298  0.49628376  0.38387772  1
  V  V21  1  0.75753695  0.37687524  0.61884055  1
  V  V22  1  0.12089840  0.63136898  0.49652425  1
  V  V23  1  0.49907373  0.00129889  0.49837676  1
  V  V24  1  0.13006972  0.49758430  0.62774374  1
  V  V25  1  0.62596444  0.74959367  0.87400930  1
  V  V26  1  0.37333370  0.74950986  0.62582392  1
  V  V27  1  0.12443076  0.37451956  0.25047322  1
  V  V28  1  0.24887722  0.62394631  0.87384465  1
  V  V29  1  0.37831855  0.87561563  -0.00024463  1
  V  V30  1  0.62561294  0.62403582  -0.00005807  1
  V  V31  1  0.37536206  0.50048901  0.87486871  1
  V  V32  1  0.12129674  0.75420626  0.87786152  1
  V  V33  1  0.24857763  0.49986885  0.25069152  1
  V  V34  1  0.87040381  0.75866487  0.62656892  1
  V  V35  1  0.62556638  0.00005682  0.12328585  1
  V  V36  1  0.24788688  0.00136195  0.24863714  1
  V  V37  1  0.75076262  -0.00108837  0.24957927  1
  V  V38  1  0.62589857  0.25016109  0.37440677  1
  V  V39  1  0.49873749  0.87417999  0.37301339  1
  V  V40  1  0.87525360  0.49955251  0.87530858  1
  V  V41  1  -0.00030131  -0.00032026  0.50075455  1
  V  V42  1  0.75011428  0.50039443  0.25084273  1
  V  V43  1  0.00169069  0.37504691  0.87452770  1
  V  V44  1  0.37282225  0.62533220  0.75008293  1
  V  V45  1  0.62878475  0.24446024  0.87415993  1
  V  V46  1  0.50020991  0.49895802  -0.00068191  1
  V  V47  1  0.00091688  0.24998261  0.25080432  1
  V  V48  1  0.24921292  0.25968544  0.50334485  1
  V  V49  1  0.87483534  0.62499667  0.25131689  1
  V  V50  1  0.24979748  0.37347491  0.12629865  1
  V  V51  1  0.24908550  0.87568626  0.62557555  1
  V  V52  1  0.62531887  0.49936130  0.12503429  1
  V  V53  1  0.24433404  0.63022425  0.37430182  1
  V  V54  1  0.00044429  0.62166524  0.12640660  1
  V  V55  1  -0.00458182  0.37459038  0.38167111  1
  V  V56  1  0.12304853  0.87713178  0.75483808  1
  V  V57  1  0.12768274  0.12583033  0.49757706  1
  V  V58  1  0.49689741  0.37655734  0.37881292  1
  V  V59  1  0.50386258  0.87508874  0.87279011  1
  V  V60  1  0.50000029  0.24970527  0.24913718  1
  V  V61  1  0.25064733  0.24920186  0.00028991  1
  V  V62  1  0.00128572  0.87207963  0.37800305  1
  V  V63  1  0.49873853  0.74904151  0.74940956  1
  V  V64  1  0.00339534  0.74694373  0.25782441  1
  V  V65  1  0.25101239  0.74853956  0.00033351  1
  V  V66  1  0.62175145  0.62632172  0.49995753  1
  V  V67  1  -0.00226819  0.62730543  0.62547412  1
  V  V68  1  0.87518258  0.25249893  0.62274789  1
  V  V69  1  0.75436819  0.25242721  0.49971752  1
  V  V70  1  0.12588393  0.87227585  0.25313923  1
  V  V71  1  0.12584939  0.25077529  0.87419257  1
  V  V72  1  -0.00075801  0.12614628  0.62579273  1
  V  V73  1  0.75120899  0.50041640  0.74967494  1
  V  V74  1  0.62489242  0.12551789  0.49859469  1
  V  V75  1  0.87650780  0.37474850  -0.00057976  1
  V  V76  1  0.50123599  0.24977102  0.74958521  1
  V  V77  1  0.62429538  0.49962417  0.62436252  1
  V  V78  1  0.37549350  0.74870075  0.12444155  1
  V  V79  1  0.87619890  -0.00375222  0.88111723  1
  V  V80  1  0.37240208  0.25725788  0.62458925  1
  V  V81  1  0.25264187  0.00171910  0.74962176  1
  V  V82  1  -0.00094824  0.75661197  0.75592893  1
  V  V83  1  0.75054441  0.62355944  0.87519670  1
  V  V84  1  0.50085043  0.37487114  0.87465991  1
  V  V85  1  0.12443942  0.62395463  0.00070732  1
  V  V86  1  0.00163680  0.11726355  0.12078052  1
  V  V87  1  0.87537823  0.00011523  0.37583304  1
  V  V88  1  0.87648892  0.12465402  0.24970284  1
  V  V89  1  0.75083126  0.75076265  0.00029481  1
  V  V90  1  0.74853329  -0.00564485  0.74793329  1
  V  V91  1  0.74843838  0.75794061  0.50450893  1
  V  V92  1  0.62505613  0.37484325  0.24981662  1
  Zn  Zn93  1  0.37323885  0.12456740  0.25005247  1
  Zn  Zn94  1  0.49625052  0.62369714  0.62411177  1
  Zn  Zn95  1  0.00144704  0.49886998  -0.00055838  1
  Zn  Zn96  1  0.13160955  0.37075948  0.74481955  1
  Zn  Zn97  1  0.25245330  0.12853344  0.37398335  1
  Zn  Zn98  1  0.63012635  0.12168107  -0.00477849  1
  Zn  Zn99  1  0.12565104  0.49749404  0.12292636  1
  Zn  Zn100  1  0.36797716  0.38054084  0.50341512  1
  Zn  Zn101  1  0.87536861  0.74961949  0.12483653  1
  Zn  Zn102  1  0.12695934  0.25241767  0.37582189  1
  Zn  Zn103  1  0.12250695  -0.00624506  0.11685489  1
  Zn  Zn104  1  0.62549203  0.87184215  0.25065580  1
  Zn  Zn105  1  0.62534131  0.75192675  0.37476951  1
  Zn  Zn106  1  0.25036870  0.87440244  0.12599144  1
  Zn  Zn107  1  0.25456312  0.49159984  0.74695432  1
  Zn  Zn108  1  0.49496360  0.50026427  0.50111640  1
  Zn  Zn109  1  0.87486537  0.62761552  0.75202694  1
  Zn  Zn110  1  0.37639438  0.12479657  0.75028268  1
  Zn  Zn111  1  0.50244751  0.00108876  -0.00251086  1
  Zn  Zn112  1  0.37269481  0.50045269  0.37908042  1
  Zn  Zn113  1  0.38046943  0.00284360  0.87226825  1
  Zn  Zn114  1  0.04072902  -0.05919823  -0.05684908  1
  Zn  Zn115  1  0.62717963  0.37290346  0.74888702  1
  Zn  Zn116  1  0.63879281  -0.00781263  0.61641311  1
  Zn  Zn117  1  0.86813917  0.88020991  0.50430069  1
  Zn  Zn118  1  0.88465804  0.87058098  -0.00280703  1
  Zn  Zn119  1  -0.00493782  0.49584945  0.50549538  1
  Zn  Zn120  1  0.37428516  0.37515853  -0.00023344  1
  Zn  Zn121  1  0.63463433  0.86671878  0.73928902  1
  Zn  Zn122  1  0.18485548  0.18646934  0.18635599  1
  Zn  Zn123  1  0.18945871  0.18810531  0.68703650  1
  Zn  Zn124  1  0.18608572  0.68849953  0.18671818  1
  Zn  Zn125  1  0.18576968  0.68708219  0.68896724  1
  Zn  Zn126  1  0.68828500  0.18715047  0.18611482  1
  Zn  Zn127  1  0.68766903  0.18630374  0.68633731  1
  Zn  Zn128  1  0.68631322  0.68795755  0.18828649  1
  Zn  Zn129  1  0.68754819  0.68563633  0.68773837  1
  Zn  Zn130  1  0.31215984  0.31048758  0.31406255  1
  Zn  Zn131  1  0.31255158  0.31460637  0.81000582  1
  Zn  Zn132  1  0.31282423  0.81158896  0.31308638  1
  Zn  Zn133  1  0.31170504  0.81273289  0.81378513  1
  Zn  Zn134  1  0.81389670  0.31279317  0.31208128  1
  Zn  Zn135  1  0.81167745  0.31570008  0.81015609  1
  Zn  Zn136  1  0.81376770  0.81190165  0.31352604  1
  Zn  Zn137  1  0.81449157  0.81504706  0.81478222  1
  Zn  Zn138  1  0.18117824  0.44300500  0.43738891  1
  Zn  Zn139  1  0.18801982  0.43720517  0.93737331  1
  Zn  Zn140  1  0.18678012  0.93883642  0.43550347  1
  Zn  Zn141  1  0.20092014  0.93752378  0.93578306  1
  Zn  Zn142  1  0.68584506  0.43773014  0.43817243  1
  Zn  Zn143  1  0.68766077  0.43305270  0.93689038  1
  Zn  Zn144  1  0.68383717  0.93764776  0.43428687  1
  Zn  Zn145  1  0.69354991  0.93960820  0.93328193  1
  Zn  Zn146  1  0.31256575  0.06165280  0.06300242  1
  Zn  Zn147  1  0.31358250  0.06642499  0.56296294  1
  Zn  Zn148  1  0.31182090  0.56051980  0.06237541  1
  Zn  Zn149  1  0.31087325  0.56405748  0.56002296  1
  Zn  Zn150  1  0.81395221  0.06306335  0.06331165  1
  Zn  Zn151  1  0.81419837  0.06637757  0.56482420  1
  Zn  Zn152  1  0.81409059  0.56229365  0.06236553  1
  Zn  Zn153  1  0.80986282  0.56969328  0.56391214  1
  Zn  Zn154  1  0.43513006  0.43716555  0.18940415  1
  Zn  Zn155  1  0.43998131  0.43733868  0.69051393  1
  Zn  Zn156  1  0.43718878  0.93731987  0.18754665  1
  Zn  Zn157  1  0.44001639  0.93721652  0.68611703  1
  Zn  Zn158  1  0.93648047  0.43713560  0.19144868  1
  Zn  Zn159  1  0.93941079  0.43842789  0.69091837  1
  Zn  Zn160  1  0.93766945  0.93467625  0.18813323  1
  Zn  Zn161  1  0.93615081  0.94038403  0.69115782  1
  Zn  Zn162  1  0.06248054  0.06041157  0.31141737  1
  Zn  Zn163  1  0.06144651  0.06718401  0.81047664  1
  Zn  Zn164  1  0.06196565  0.55735402  0.31376650  1
  Zn  Zn165  1  0.06102336  0.56536692  0.81231437  1
  Zn  Zn166  1  0.56246142  0.06165396  0.31033766  1
  Zn  Zn167  1  0.56371292  0.06314992  0.81059657  1
  Zn  Zn168  1  0.56161832  0.56208524  0.31373765  1
  Zn  Zn169  1  0.56208138  0.56316756  0.81045532  1
  Zn  Zn170  1  0.43419097  0.18947200  0.43738856  1
  Zn  Zn171  1  0.43827092  0.18882433  0.93754070  1
  Zn  Zn172  1  0.43407456  0.68844645  0.43672012  1
  Zn  Zn173  1  0.43817131  0.68687765  0.93668884  1
  Zn  Zn174  1  0.93813847  0.18787309  0.43821695  1
  Zn  Zn175  1  0.93860746  0.18601073  0.93709437  1
  Zn  Zn176  1  0.93195994  0.68790571  0.43993497  1
  Zn  Zn177  1  0.93599292  0.68702606  0.93984796  1
  Zn  Zn178  1  0.06343471  0.30944368  0.06203395  1
  Zn  Zn179  1  0.06145582  0.31193263  0.56208002  1
  Zn  Zn180  1  0.06379955  0.80613927  0.07060617  1
  Zn  Zn181  1  0.06048835  0.81348475  0.56639445  1
  Zn  Zn182  1  0.56377870  0.31248124  0.05982614  1
  Zn  Zn183  1  0.56514879  0.31248237  0.56220499  1
  Zn  Zn184  1  0.56392547  0.81151644  0.06287588  1
  Zn  Zn185  1  0.56019635  0.81392226  0.56343093  1
  O  O186  1  0.11664291  0.12187017  0.11771791  1
  O  O187  1  0.11963445  0.11990036  0.61661553  1
  O  O188  1  0.11564549  0.62410615  0.12035311  1
  O  O189  1  0.11504936  0.62016223  0.61839464  1
  O  O190  1  0.61891603  0.11659842  0.12377663  1
  O  O191  1  0.61550968  0.12342380  0.61734759  1
  O  O192  1  0.61989646  0.61830780  0.11988119  1
  O  O193  1  0.62521296  0.61612881  0.61606929  1
  O  O194  1  0.38662628  0.37537806  0.37623408  1
  O  O195  1  0.38381506  0.38198295  0.87673985  1
  O  O196  1  0.37857790  0.88089210  0.38090393  1
  O  O197  1  0.38509830  0.87275787  0.88487560  1
  O  O198  1  0.88281969  0.38545808  0.36836841  1
  O  O199  1  0.88119722  0.37968501  0.87958636  1
  O  O200  1  0.88572958  0.88176919  0.37667250  1
  O  O201  1  0.87487706  0.89076406  0.87734267  1
  O  O202  1  0.25474139  0.00129999  0.36541780  1
  O  O203  1  0.25590485  0.00755988  0.86648324  1
  O  O204  1  0.24891207  0.51220997  0.36971824  1
  O  O205  1  0.25731938  0.50799859  0.87568497  1
  O  O206  1  0.75506720  0.00574478  0.36987812  1
  O  O207  1  0.76361880  0.00234179  0.86186956  1
  O  O208  1  0.75545853  0.50411453  0.37035791  1
  O  O209  1  0.75417032  0.50306717  0.87030334  1
  O  O210  1  0.24896535  0.49268704  0.13240477  1
  O  O211  1  0.23223779  0.50814670  0.62454856  1
  O  O212  1  0.24824879  0.99569136  0.13632792  1
  O  O213  1  0.24498181  0.99510646  0.62892963  1
  O  O214  1  0.74515786  0.49453571  0.13064360  1
  O  O215  1  0.74518683  0.49524167  0.62758585  1
  O  O216  1  0.74440792  0.99390481  0.12875938  1
  O  O217  1  0.75437262  1.00433454  0.64052184  1
  O  O218  1  0.00421631  0.36936714  0.25754388  1
  O  O219  1  0.00416615  0.36793958  0.75661975  1
  O  O220  1  0.00525976  0.86725032  0.25745922  1
  O  O221  1  0.00711228  0.86370565  0.74363313  1
  O  O222  1  0.50604957  0.36988655  0.25724016  1
  O  O223  1  0.50519107  0.36753157  0.75686182  1
  O  O224  1  0.49943989  0.86779016  0.25530351  1
  O  O225  1  0.49552696  0.86783973  0.76290092  1
  O  O226  1  0.50101820  0.13066871  0.23798646  1
  O  O227  1  0.50065610  0.13007031  0.73866318  1
  O  O228  1  0.49371280  0.62867143  0.24521444  1
  O  O229  1  0.49164471  0.63228582  0.74895540  1
  O  O230  1  0.99578883  0.13031603  0.24384034  1
  O  O231  1  0.99153130  0.13240351  0.74327304  1
  O  O232  1  0.99714413  0.63000148  0.24767047  1
  O  O233  1  0.99926421  0.63772767  0.74056000  1
  O  O234  1  0.36833847  0.25141001  0.00732826  1
  O  O235  1  0.36557540  0.25303767  0.50656337  1
  O  O236  1  0.37177363  0.75599308  0.00443539  1
  O  O237  1  0.36644945  0.75621491  0.50574777  1
  O  O238  1  0.86848884  0.25493006  0.00394322  1
  O  O239  1  0.86664411  0.24109329  0.50996460  1
  O  O240  1  0.86541482  0.75080307  0.00436063  1
  O  O241  1  0.86483426  0.75248184  0.50893178  1
  O  O242  1  0.13172118  0.24124715  0.50244580  1
  O  O243  1  0.13172428  0.24190904  0.99401601  1
  O  O244  1  0.12934921  0.73898415  0.50856621  1
  O  O245  1  0.13127843  0.74404606  0.99705766  1
  O  O246  1  0.63312680  0.24432737  0.49327049  1
  O  O247  1  0.63449538  0.25030369  0.99228125  1
  O  O248  1  0.63084627  0.74159502  0.50150512  1
  O  O249  1  0.63057871  0.74310674  0.99446325  1
  O  O250  1  0.49758182  0.24347006  0.12888991  1
  O  O251  1  0.49666060  0.24185052  0.62752134  1
  O  O252  1  0.49563368  0.74259591  0.12992971  1
  O  O253  1  0.49009536  0.74760154  0.63144869  1
  O  O254  1  0.99452849  0.24109693  0.13128512  1
  O  O255  1  0.99477084  0.24619267  0.63018302  1
  O  O256  1  0.99731704  0.73664926  0.13933811  1
  O  O257  1  0.99282512  0.74376910  0.63329021  1
  O  O258  1  -0.00087875  0.25842800  0.36942915  1
  O  O259  1  0.00572130  0.25473082  0.86970385  1
  O  O260  1  -0.00733933  0.75851251  0.36757526  1
  O  O261  1  0.00428695  0.74364576  0.86379113  1
  O  O262  1  0.50624563  0.25638754  0.36955647  1
  O  O263  1  0.50760553  0.25542829  0.87028515  1
  O  O264  1  0.49849273  0.75642236  0.36889935  1
  O  O265  1  0.50641356  0.75586345  0.87032039  1
  O  O266  1  0.23972314  0.13183432  0.49949653  1
  O  O267  1  0.24411898  0.12895420  0.99508026  1
  O  O268  1  0.24028934  0.63125803  0.49261503  1
  O  O269  1  0.24510492  0.63019037  0.99477331  1
  O  O270  1  0.74455687  0.13029310  0.49367172  1
  O  O271  1  0.75011410  0.14127022  1.00629343  1
  O  O272  1  0.74022490  0.63489333  0.49567813  1
  O  O273  1  0.74403236  0.62942468  0.99575235  1
  O  O274  1  0.25088517  0.36704385  0.00751051  1
  O  O275  1  0.24547684  0.36338570  0.49508963  1
  O  O276  1  0.26258054  0.86701530  0.00155978  1
  O  O277  1  0.25258683  0.87133306  0.50478296  1
  O  O278  1  0.75648450  0.36662643  0.00660620  1
  O  O279  1  0.74515688  0.36904789  0.51052322  1
  O  O280  1  0.75146782  0.86936884  0.00860646  1
  O  O281  1  0.74809314  0.86230177  0.49506923  1
  O  O282  1  0.13133554  0.49272333  0.24729543  1
  O  O283  1  0.12301188  0.50449915  0.73456377  1
  O  O284  1  0.13248852  0.99028263  0.24966309  1
  O  O285  1  0.13067795  0.99687840  0.74475663  1
  O  O286  1  0.63086084  0.49524369  0.24446250  1
  O  O287  1  0.63165492  0.50132060  0.73868233  1
  O  O288  1  0.63205434  0.99899512  0.23848030  1
  O  O289  1  0.64387260  1.00429498  0.75262626  1
  O  O290  1  0.36415007  -0.00117240  0.25442906  1
  O  O291  1  0.36767670  0.00237632  0.74986985  1
  O  O292  1  0.36673708  0.50733035  0.25262395  1
  O  O293  1  0.37562463  0.50776067  0.75602302  1
  O  O294  1  0.87002402  0.00545127  0.25595984  1
  O  O295  1  0.86740435  0.00760267  0.75664208  1
  O  O296  1  0.86825284  0.50559821  0.25979026  1
  O  O297  1  0.86863746  0.50347283  0.75717144  1
  O  O298  1  0.11303311  0.37601258  0.36844787  1
  O  O299  1  0.11774485  0.36717148  0.87609831  1
  O  O300  1  0.11171553  0.88023830  0.36611611  1
  O  O301  1  0.12445016  0.87179652  0.87267547  1
  O  O302  1  0.61890337  0.36961742  0.36898364  1
  O  O303  1  0.61876814  0.36480676  0.87276713  1
  O  O304  1  0.61444969  0.87272505  0.37098005  1
  O  O305  1  0.61714676  0.86871294  0.87294146  1
  O  O306  1  0.38561217  0.12942590  0.12634732  1
  O  O307  1  0.38640740  0.13677588  0.62286341  1
  O  O308  1  0.38065995  0.62913685  0.13042024  1
  O  O309  1  0.37336086  0.63201504  0.63102629  1
  O  O310  1  0.88258797  0.12970945  0.13006147  1
  O  O311  1  0.88152745  0.13245007  0.63472761  1
  O  O312  1  0.88331881  0.62441788  0.13293854  1
  O  O313  1  0.88331090  0.63626591  0.62648384  1
  O  O314  1  0.25535123  0.25320892  0.12061873  1
  O  O315  1  0.26116096  0.24369112  0.61587431  1
  O  O316  1  0.25765455  0.75073389  0.11877295  1
  O  O317  1  0.25335520  0.75666239  0.62031839  1
  O  O318  1  0.75580394  0.25586255  0.11830834  1
  O  O319  1  0.75417740  0.25895469  0.62045507  1
  O  O320  1  0.74872596  0.75891887  0.12030693  1
  O  O321  1  0.75928136  0.74356011  0.61733835  1
  O  O322  1  0.24701511  0.24627708  0.38601799  1
  O  O323  1  0.24579587  0.24396202  0.88064236  1
  O  O324  1  0.25205961  0.73808549  0.38080771  1
  O  O325  1  0.24245411  0.74472938  0.88103496  1
  O  O326  1  0.74616308  0.24491276  0.37850991  1
  O  O327  1  0.74152859  0.25898988  0.88392426  1
  O  O328  1  0.74964183  0.74371084  0.38474847  1
  O  O329  1  0.74534249  0.74479102  0.87964820  1
  O  O330  1  0.00700699  0.13083369  0.01135675  1
  O  O331  1  0.00791075  0.12013364  0.50585497  1
  O  O332  1  0.00468341  0.62565430  0.01175315  1
  O  O333  1  0.00513738  0.62856298  0.50908688  1
  O  O334  1  0.50401672  0.12382389  0.01258691  1
  O  O335  1  0.50541411  0.12227041  0.50454793  1
  O  O336  1  0.50632447  0.61948603  0.00581920  1
  O  O337  1  0.51051262  0.62495440  0.50060952  1
  O  O338  1  0.50251720  0.37469536  0.48721572  1
  O  O339  1  0.49929930  0.38210410  0.99373800  1
  O  O340  1  0.49124056  0.88109300  0.49297395  1
  O  O341  1  0.49433016  0.87265429  0.99039501  1
  O  O342  1  1.00262156  0.37611692  0.48588685  1
  O  O343  1  0.99346457  0.37431360  0.99426992  1
  O  O344  1  1.00106830  0.88040402  0.49175427  1
  O  O345  1  0.99529377  0.87455758  1.01725943  1
  O  O346  1  0.49895462  0.48859456  0.37623850  1
  O  O347  1  0.49652065  0.49573722  0.87979041  1
  O  O348  1  0.49381541  0.99526814  0.37854166  1
  O  O349  1  0.50167931  0.98931469  0.87668840  1
  O  O350  1  0.98983615  0.49238991  0.37710922  1
  O  O351  1  0.99346891  0.49455110  0.87540396  1
  O  O352  1  0.99446576  0.99226733  0.38000116  1
  O  O353  1  0.98509420  1.00262574  0.86715453  1
  O  O354  1  0.00049859  0.01408211  0.13288435  1
  O  O355  1  0.00501996  0.00576008  0.62084138  1
  O  O356  1  0.00066233  0.51185227  0.12708917  1
  O  O357  1  0.00253299  0.51328500  0.62477394  1
  O  O358  1  0.50937637  0.00671032  0.12465316  1
  O  O359  1  0.49425597  0.01416457  0.61634477  1
  O  O360  1  0.50565074  0.50441027  0.12087921  1
  O  O361  1  0.51268889  0.50122024  0.62315627  1
  O  O362  1  0.24430933  0.37902158  0.24669961  1
  O  O363  1  0.24371552  0.37931431  0.75158879  1
  O  O364  1  0.24108511  0.88060461  0.25266572  1
  O  O365  1  0.24325728  0.88046039  0.74558967  1
  O  O366  1  0.74470929  0.37989312  0.24467059  1
  O  O367  1  0.74747311  0.38210871  0.73763245  1
  O  O368  1  0.74911806  0.88012166  0.24137418  1
  O  O369  1  0.75121705  0.88939045  0.75191659  1
  O  O370  1  0.24853079  0.11367291  0.25184526  1
  O  O371  1  0.25159474  0.11892511  0.75573356  1
  O  O372  1  0.25161670  0.62219852  0.25707868  1
  O  O373  1  0.25527357  0.62335764  0.75715004  1
  O  O374  1  0.75647214  0.11992135  0.25457922  1
  O  O375  1  0.76210111  0.11958314  0.74592721  1
  O  O376  1  0.75411909  0.61989676  0.25536297  1
  O  O377  1  0.75178363  0.61853576  0.75771004  1
  O  O378  1  0.37418074  0.11647733  0.37098661  1
  O  O379  1  0.36944374  0.12336503  0.87290763  1
  O  O380  1  0.36301920  0.62383904  0.36945765  1
  O  O381  1  0.36943246  0.62074284  0.87010441  1
  O  O382  1  0.87031612  0.11972922  0.36931647  1
  O  O383  1  0.88053173  0.11752535  0.86362594  1
  O  O384  1  0.86932991  0.61688047  0.37018251  1
  O  O385  1  0.86752733  0.61790675  0.87529358  1
  O  O386  1  0.13109114  0.37414810  0.13210026  1
  O  O387  1  0.11390204  0.39542263  0.62219819  1
  O  O388  1  0.12778853  0.87593440  0.14035871  1
  O  O389  1  0.13041724  0.88134471  0.63184533  1
  O  O390  1  0.63052700  0.38000812  0.13034321  1
  O  O391  1  0.63487441  0.38530990  0.62456766  1
  O  O392  1  0.63391676  0.88356247  0.12560695  1
  O  O393  1  0.60498890  0.88699606  0.63354174  1
  O  O394  1  0.11862029  0.25574229  0.25315141  1
  O  O395  1  0.11759878  0.24838968  0.75540439  1
  O  O396  1  0.11378938  0.75822481  0.24859594  1
  O  O397  1  0.11775675  0.75673566  0.75675258  1
  O  O398  1  0.62107046  0.25543084  0.25475285  1
  O  O399  1  0.62100906  0.25009880  0.75748533  1
  O  O400  1  0.61560465  0.75032053  0.25327133  1
  O  O401  1  0.61868315  0.74905979  0.75628715  1
  O  O402  1  0.38207123  0.24713572  0.24299453  1
  O  O403  1  0.38287994  0.24752619  0.74078794  1
  O  O404  1  0.37947938  0.74355715  0.24399302  1
  O  O405  1  0.37806510  0.74501397  0.74556719  1
  O  O406  1  0.87957183  0.24377345  0.24390514  1
  O  O407  1  0.87910607  0.24457488  0.74517880  1
  O  O408  1  0.88525393  0.74331474  0.24912910  1
  O  O409  1  0.88184050  0.75051908  0.74438763  1
  O  O410  1  0.37712292  0.49633472  0.49805015  1
  O  O411  1  0.38316873  0.49953241  0.99339718  1
  O  O412  1  0.37859914  0.99526755  0.49405568  1
  O  O413  1  0.37840972  0.98658074  0.99922095  1
  O  O414  1  0.87374856  0.50816800  0.48728850  1
  O  O415  1  0.87638361  0.49219639  0.99376615  1
  O  O416  1  0.88108257  1.00011420  0.49502879  1
  O  O417  1  0.86886270  1.00369569  0.98309495  1
  O  O418  1  0.12671417  0.00415053  -0.00282273  1
  O  O419  1  0.12041583  0.00730936  0.50591232  1
  O  O420  1  0.12150165  0.50843827  0.00269089  1
  O  O421  1  0.11911689  0.51336423  0.51115124  1
  O  O422  1  0.62721325  0.00191754  0.01055790  1
  O  O423  1  0.61782698  0.00827441  0.49867075  1
  O  O424  1  0.62107586  0.50437588  0.00558710  1
  O  O425  1  0.62642766  0.51020007  0.50852798  1
  O  O426  1  0.36846540  0.36747665  0.12438262  1
  O  O427  1  0.38587304  0.36084807  0.62181433  1
  O  O428  1  0.37732569  0.86734809  0.11466926  1
  O  O429  1  0.36835803  0.86991313  0.61898082  1
  O  O430  1  0.87084378  0.36934642  0.12105193  1
  O  O431  1  0.86488345  0.37058526  0.62955859  1
  O  O432  1  0.86126723  0.87518730  0.12485963  1
  O  O433  1  0.88222214  0.86237593  0.62265572  1
  O  O434  1  0.12278023  0.12554639  0.38890203  1
  O  O435  1  0.13097689  0.13093027  0.87967461  1
  O  O436  1  0.13082204  0.61923367  0.38605486  1
  O  O437  1  0.12877787  0.63246229  0.88125163  1
  O  O438  1  0.63088211  0.13062599  0.37786905  1
  O  O439  1  0.61884408  0.14010965  0.87793495  1
  O  O440  1  0.63040991  0.62491633  0.38504397  1
  O  O441  1  0.63067015  0.62925555  0.88101482  1
