# generated using pymatgen
data_V93Zn93O256
_symmetry_space_group_name_H-M   'P 1'
_cell_length_a   17.05393437
_cell_length_b   17.04995935
_cell_length_c   17.05222214
_cell_angle_alpha   90.00861427
_cell_angle_beta   89.98579800
_cell_angle_gamma   89.95984047
_symmetry_Int_Tables_number   1
_chemical_formula_structural   V93Zn93O256
_chemical_formula_sum   'V93 Zn93 O256'
_cell_volume   4958.25423794
_cell_formula_units_Z   1
loop_
 _symmetry_equiv_pos_site_id
 _symmetry_equiv_pos_as_xyz
  1  'x, y, z'
loop_
 _atom_site_type_symbol
 _atom_site_label
 _atom_site_symmetry_multiplicity
 _atom_site_fract_x
 _atom_site_fract_y
 _atom_site_fract_z
 _atom_site_occupancy
  V  V0  1  0.00001194  0.86919025  0.87706124  1
  V  V1  1  0.14002801  0.74413095  0.87918909  1
  V  V2  1  0.12557368  0.87486982  0.24804306  1
  V  V3  1  0.37246704  0.87121810  -0.00123076  1
  V  V4  1  0.87800789  0.24610459  0.62426707  1
  V  V5  1  0.24814333  0.25053718  0.49936025  1
  V  V6  1  0.12315320  0.12604351  0.50041020  1
  V  V7  1  0.37559813  0.74922852  0.12439553  1
  V  V8  1  0.00010815  0.37329110  0.37389264  1
  V  V9  1  0.74943322  0.87573223  0.62601843  1
  V  V10  1  0.62507369  0.25026932  0.87465741  1
  V  V11  1  0.75192701  0.12388913  0.87549280  1
  V  V12  1  0.87793188  0.12354377  0.74710516  1
  V  V13  1  0.37306409  0.25211173  0.12349089  1
  V  V14  1  0.37448834  0.37658070  0.49996171  1
  V  V15  1  0.62455587  0.87644066  0.75025784  1
  V  V16  1  0.62465177  0.00073250  0.62594794  1
  V  V17  1  -0.00058948  0.62513915  0.62487817  1
  V  V18  1  0.87623839  0.74944060  0.62525183  1
  V  V19  1  0.50020816  -0.00068940  0.00007365  1
  V  V20  1  0.12368076  0.50080719  0.62569226  1
  V  V21  1  0.00243883  0.12258833  0.12350364  1
  V  V22  1  0.50041243  0.12529669  0.12587317  1
  V  V23  1  0.13956068  0.62000742  0.00185141  1
  V  V24  1  0.12612025  0.75012463  0.37529420  1
  V  V25  1  0.62449123  0.12605712  0.50017054  1
  V  V26  1  0.49944884  0.74981109  0.25000141  1
  V  V27  1  0.62560555  0.50020928  0.62534717  1
  V  V28  1  0.87543387  0.00260747  0.37104196  1
  V  V29  1  0.87727637  0.37482335  -0.00043114  1
  V  V30  1  0.62618693  -0.00027382  0.12575251  1
  V  V31  1  0.37423381  0.25148111  0.62493071  1
  V  V32  1  0.49955330  0.12627295  0.62555648  1
  V  V33  1  0.13229443  0.24239378  0.87655448  1
  V  V34  1  0.00046097  0.50043795  0.50011996  1
  V  V35  1  0.24842783  0.12604397  0.37544747  1
  V  V36  1  -0.00120489  0.24472204  0.25099756  1
  V  V37  1  0.62251966  0.50002675  0.12416502  1
  V  V38  1  0.87516721  0.24272551  0.12907222  1
  V  V39  1  0.24864959  0.37803504  0.62466600  1
  V  V40  1  0.24923191  0.00516547  0.75632758  1
  V  V41  1  0.75215555  0.00050821  0.25069555  1
  V  V42  1  0.87641043  -0.00176481  0.87478176  1
  V  V43  1  0.62504307  0.37446863  0.25120396  1
  V  V44  1  0.50048390  0.25060246  0.25145245  1
  V  V45  1  0.87573202  0.87271746  0.00020866  1
  V  V46  1  0.75192956  0.12504707  0.37148833  1
  V  V47  1  0.12029151  0.00577794  0.62524362  1
  V  V48  1  0.37394641  0.12567720  0.25019791  1
  V  V49  1  0.25024186  0.87295380  0.12239769  1
  V  V50  1  0.75099215  0.24785564  0.00036704  1
  V  V51  1  0.87519512  0.87615839  0.50054443  1
  V  V52  1  0.24389968  0.37583788  0.12397283  1
  V  V53  1  -0.00037938  0.24854103  0.74939587  1
  V  V54  1  0.62439785  0.62571704  0.49987577  1
  V  V55  1  0.62590972  0.12424374  0.00049048  1
  V  V56  1  0.74997626  0.62535950  0.87626117  1
  V  V57  1  0.50029714  0.25081715  0.74999644  1
  V  V58  1  0.49891073  0.50132956  0.49925095  1
  V  V59  1  0.37487929  0.00069731  0.37585609  1
  V  V60  1  0.49936418  0.62692220  0.62586734  1
  V  V61  1  0.37395958  0.50023495  0.37516193  1
  V  V62  1  0.75015515  0.75051698  0.50032361  1
  V  V63  1  0.49908225  0.87671088  0.87509540  1
  V  V64  1  0.75145608  0.87342143  0.12498848  1
  V  V65  1  0.87551006  0.62399834  0.24688248  1
  V  V66  1  0.87544893  0.37459270  0.50054112  1
  V  V67  1  0.62502822  0.25026327  0.37545653  1
  V  V68  1  -0.00149186  0.00508156  0.50333607  1
  V  V69  1  0.87490903  0.49988500  0.37484534  1
  V  V70  1  0.87675923  0.49919101  0.87687401  1
  V  V71  1  0.36955742  0.50311985  0.87407939  1
  V  V72  1  0.25026870  0.62500062  0.37512707  1
  V  V73  1  0.74917236  0.37289865  0.12621343  1
  V  V74  1  0.12486612  0.37542855  0.74996779  1
  V  V75  1  0.37075229  0.12605733  0.75703990  1
  V  V76  1  0.49945094  0.87678082  0.37595394  1
  V  V77  1  0.75014875  0.74948664  0.00024885  1
  V  V78  1  0.74962357  0.37550075  0.62659963  1
  V  V79  1  0.62455952  0.75059572  0.37527510  1
  V  V80  1  0.49813964  0.00082339  0.50018333  1
  V  V81  1  0.12460945  0.87496628  0.75160104  1
  V  V82  1  0.25029939  0.87550680  0.62226499  1
  V  V83  1  0.49977976  0.37742595  0.87657366  1
  V  V84  1  0.87479706  0.62426528  0.75040068  1
  V  V85  1  0.24415527  0.49898835  0.24470016  1
  V  V86  1  0.49929532  0.75072951  0.74982727  1
  V  V87  1  0.36871221  0.62613517  0.75331424  1
  V  V88  1  0.24845513  0.00056031  0.24983754  1
  V  V89  1  0.62504472  0.74967290  0.87615030  1
  V  V90  1  -0.00020089  0.74877419  0.24674981  1
  V  V91  1  0.75068026  0.62515560  0.37520382  1
  V  V92  1  0.62558611  0.87490530  0.25041657  1
  Zn  Zn93  1  0.12489659  0.62689035  0.50228559  1
  Zn  Zn94  1  0.74918878  0.49950749  0.25074813  1
  Zn  Zn95  1  0.24546840  0.50573782  0.75296043  1
  Zn  Zn96  1  0.00961670  0.49893098  0.00873911  1
  Zn  Zn97  1  0.50011431  0.62411428  0.12446535  1
  Zn  Zn98  1  0.12475657  0.25179548  0.37286176  1
  Zn  Zn99  1  0.75001104  0.24924136  0.49994237  1
  Zn  Zn100  1  0.25597513  0.24359157  -0.00613220  1
  Zn  Zn101  1  0.50058497  0.37634318  0.37598321  1
  Zn  Zn102  1  0.37408984  0.87379356  0.50022057  1
  Zn  Zn103  1  0.00272020  0.37538343  0.87610765  1
  Zn  Zn104  1  0.00060541  0.87674477  0.37390943  1
  Zn  Zn105  1  0.74777073  0.50052456  0.75212826  1
  Zn  Zn106  1  0.00227731  -0.00078355  0.00147825  1
  Zn  Zn107  1  0.37383517  0.75099931  0.62365335  1
  Zn  Zn108  1  0.62338416  0.62453132  0.00085753  1
  Zn  Zn109  1  0.62493185  0.37690881  0.75053900  1
  Zn  Zn110  1  0.01224473  0.61171735  0.12623576  1
  Zn  Zn111  1  0.13487989  0.11519916  -0.00570435  1
  Zn  Zn112  1  0.37312513  0.37828890  -0.00015987  1
  Zn  Zn113  1  0.12469413  -0.00006844  0.12223791  1
  Zn  Zn114  1  0.75013437  0.00027605  0.74979877  1
  Zn  Zn115  1  0.00147559  0.74799343  0.74985687  1
  Zn  Zn116  1  0.11972193  0.37857622  0.24536790  1
  Zn  Zn117  1  0.36987379  0.00515828  0.88001252  1
  Zn  Zn118  1  0.25111237  0.75098145  0.50058192  1
  Zn  Zn119  1  0.49817149  0.50408738  0.00028993  1
  Zn  Zn120  1  0.87679029  0.74684744  0.12253329  1
  Zn  Zn121  1  0.37618648  0.62375855  0.24828892  1
  Zn  Zn122  1  0.18440842  0.18884561  0.18606111  1
  Zn  Zn123  1  0.18750131  0.18856404  0.68670202  1
  Zn  Zn124  1  0.19090340  0.68723947  0.18622582  1
  Zn  Zn125  1  0.18481113  0.69003933  0.68957485  1
  Zn  Zn126  1  0.68772270  0.18700847  0.18955142  1
  Zn  Zn127  1  0.68943352  0.18833217  0.68884359  1
  Zn  Zn128  1  0.68852251  0.68656013  0.18720202  1
  Zn  Zn129  1  0.68801999  0.68784949  0.68921165  1
  Zn  Zn130  1  0.31121964  0.31469555  0.31150721  1
  Zn  Zn131  1  0.31249659  0.31684785  0.80990448  1
  Zn  Zn132  1  0.31339993  0.81406829  0.31046324  1
  Zn  Zn133  1  0.31400544  0.81599369  0.80920205  1
  Zn  Zn134  1  0.81286026  0.31170429  0.31160262  1
  Zn  Zn135  1  0.81168325  0.31204315  0.81239592  1
  Zn  Zn136  1  0.81365918  0.81344514  0.31350750  1
  Zn  Zn137  1  0.81242736  0.81065982  0.81157387  1
  Zn  Zn138  1  0.18464789  0.43768761  0.43602104  1
  Zn  Zn139  1  0.18957945  0.43157808  0.93831656  1
  Zn  Zn140  1  0.18589682  0.93838263  0.43659183  1
  Zn  Zn141  1  0.18550255  0.93507103  0.93927826  1
  Zn  Zn142  1  0.68840552  0.43770398  0.43862541  1
  Zn  Zn143  1  0.68886711  0.43706177  0.93936669  1
  Zn  Zn144  1  0.68686231  0.93845032  0.43912492  1
  Zn  Zn145  1  0.68910242  0.93717383  0.93688997  1
  Zn  Zn146  1  0.31066935  0.06241774  0.06108156  1
  Zn  Zn147  1  0.31110232  0.06322327  0.56494971  1
  Zn  Zn148  1  0.31317366  0.56132711  0.05984845  1
  Zn  Zn149  1  0.31178370  0.56464428  0.56402175  1
  Zn  Zn150  1  0.81545512  0.05921658  0.06134131  1
  Zn  Zn151  1  0.81025408  0.06266453  0.56069456  1
  Zn  Zn152  1  0.80996441  0.56063829  0.06325970  1
  Zn  Zn153  1  0.81276612  0.56189729  0.56219624  1
  Zn  Zn154  1  0.43574287  0.43665179  0.19059747  1
  Zn  Zn155  1  0.43751497  0.44011622  0.68880637  1
  Zn  Zn156  1  0.43725868  0.93760163  0.18822164  1
  Zn  Zn157  1  0.43533304  0.93971229  0.68804443  1
  Zn  Zn158  1  0.93811580  0.43592266  0.18667331  1
  Zn  Zn159  1  0.93761868  0.43700429  0.68926439  1
  Zn  Zn160  1  0.93764820  0.93574181  0.18785554  1
  Zn  Zn161  1  0.93856538  0.93575450  0.68877499  1
  Zn  Zn162  1  0.06190032  0.06380802  0.31124757  1
  Zn  Zn163  1  0.05902576  0.06077464  0.81189945  1
  Zn  Zn164  1  0.06237082  0.56198281  0.31244590  1
  Zn  Zn165  1  0.06093358  0.56352664  0.81518061  1
  Zn  Zn166  1  0.56344794  0.06328989  0.31266361  1
  Zn  Zn167  1  0.56079544  0.06291859  0.81275656  1
  Zn  Zn168  1  0.56088685  0.56305246  0.31004327  1
  Zn  Zn169  1  0.56130770  0.56319730  0.81128839  1
  Zn  Zn170  1  0.43656105  0.18864189  0.43746802  1
  Zn  Zn171  1  0.43981212  0.18841139  0.93835093  1
  Zn  Zn172  1  0.43446733  0.68979501  0.43938727  1
  Zn  Zn173  1  0.43900844  0.68540915  0.93891988  1
  Zn  Zn174  1  0.93648976  0.18623807  0.43709812  1
  Zn  Zn175  1  0.94184632  0.18623760  0.93746995  1
  Zn  Zn176  1  0.93848792  0.68733144  0.43652937  1
  Zn  Zn177  1  0.94323134  0.68320052  0.94223473  1
  Zn  Zn178  1  0.06130505  0.31032345  0.06149244  1
  Zn  Zn179  1  0.06165929  0.31290075  0.56291650  1
  Zn  Zn180  1  0.06573282  0.80570197  0.06024221  1
  Zn  Zn181  1  0.06172024  0.81590429  0.56131053  1
  Zn  Zn182  1  0.56133131  0.31366845  0.06172912  1
  Zn  Zn183  1  0.56229695  0.31347081  0.56122817  1
  Zn  Zn184  1  0.56211911  0.81233519  0.06206879  1
  Zn  Zn185  1  0.56149458  0.81358193  0.56297942  1
  O  O186  1  0.11317066  0.12409821  0.12272363  1
  O  O187  1  0.12967097  0.11228581  0.61890587  1
  O  O188  1  0.12927693  0.63402026  0.10714831  1
  O  O189  1  0.11785797  0.61987201  0.62472088  1
  O  O190  1  0.62061931  0.11959457  0.12029915  1
  O  O191  1  0.62006347  0.12147125  0.62087902  1
  O  O192  1  0.62602440  0.61184670  0.12603939  1
  O  O193  1  0.62064182  0.62105238  0.61894587  1
  O  O194  1  0.37549894  0.38183689  0.38258287  1
  O  O195  1  0.38524909  0.38155004  0.87348207  1
  O  O196  1  0.38121276  0.88335561  0.37523974  1
  O  O197  1  0.38015549  0.87678591  0.88391446  1
  O  O198  1  0.87913048  0.37952368  0.38074937  1
  O  O199  1  0.87280917  0.38077122  0.88363764  1
  O  O200  1  0.87414914  0.88569273  0.38310518  1
  O  O201  1  0.88223814  0.87762001  0.87851197  1
  O  O202  1  0.25466294  0.00620840  0.36968540  1
  O  O203  1  0.24888013  -0.00643575  0.85920366  1
  O  O204  1  0.25362933  0.50742474  0.36836022  1
  O  O205  1  0.26646673  0.48917268  0.87040423  1
  O  O206  1  0.75581162  0.00595202  0.37200267  1
  O  O207  1  0.75764734  0.00600377  0.87276462  1
  O  O208  1  0.75672404  0.50729056  0.37498496  1
  O  O209  1  0.75977688  0.50488917  0.87484684  1
  O  O210  1  0.26069291  0.48784594  0.13405974  1
  O  O211  1  0.24149634  0.49490204  0.62572084  1
  O  O212  1  0.25147457  0.98813922  0.13285636  1
  O  O213  1  0.24011892  0.99389698  0.63239523  1
  O  O214  1  0.74061690  0.49092258  0.12751880  1
  O  O215  1  0.74568145  0.49049398  0.62480824  1
  O  O216  1  0.74608616  0.99472075  0.13045738  1
  O  O217  1  0.74277061  0.99385726  0.62577895  1
  O  O218  1  -0.00098195  0.36433042  0.25589833  1
  O  O219  1  0.00512876  0.36474273  0.75110959  1
  O  O220  1  0.00570745  0.86502730  0.25209377  1
  O  O221  1  0.00634518  0.87362102  0.75970012  1
  O  O222  1  0.50673006  0.36773169  0.25378994  1
  O  O223  1  0.50089846  0.36872187  0.75862836  1
  O  O224  1  0.50675526  0.87144793  0.25637727  1
  O  O225  1  0.50438890  0.87169262  0.75486282  1
  O  O226  1  0.49496388  0.12991214  0.24481349  1
  O  O227  1  0.49154368  0.13052822  0.74436316  1
  O  O228  1  0.49610643  0.63429419  0.24614899  1
  O  O229  1  0.49262190  0.63193914  0.74446314  1
  O  O230  1  1.00170727  0.13544438  0.24059574  1
  O  O231  1  0.98674948  0.13373114  0.75287133  1
  O  O232  1  0.99235344  0.63169187  0.25003582  1
  O  O233  1  0.99201062  0.62567970  0.74283849  1
  O  O234  1  0.37822674  0.25067383  0.01350169  1
  O  O235  1  0.36894342  0.25549131  0.50592327  1
  O  O236  1  0.38257596  0.76317384  0.00935564  1
  O  O237  1  0.36909036  0.75582324  0.50514622  1
  O  O238  1  0.87075465  0.25625656  0.00605682  1
  O  O239  1  0.87512639  0.25421873  0.50977074  1
  O  O240  1  0.86832869  0.75484271  0.00092743  1
  O  O241  1  0.86996314  0.75568673  0.50401879  1
  O  O242  1  0.12952527  0.24353708  0.50033726  1
  O  O243  1  0.12114182  0.25080229  0.98068379  1
  O  O244  1  0.12561290  0.75049846  0.48635443  1
  O  O245  1  0.12546414  0.74174298  0.98495028  1
  O  O246  1  0.62655319  0.24341695  0.49391762  1
  O  O247  1  0.63070803  0.24349570  0.99577547  1
  O  O248  1  0.63016497  0.74533056  0.49479931  1
  O  O249  1  0.63220445  0.75121230  0.99324701  1
  O  O250  1  0.49330837  0.24522396  0.13091586  1
  O  O251  1  0.49416281  0.24603533  0.62983957  1
  O  O252  1  0.49118402  0.75355518  0.13229600  1
  O  O253  1  0.50020106  0.74486112  0.63244297  1
  O  O254  1  0.99296179  0.24344628  0.13093149  1
  O  O255  1  0.98792598  0.25525772  0.63555526  1
  O  O256  1  0.99966026  0.74676666  0.13913506  1
  O  O257  1  0.99411141  0.74495396  0.62498346  1
  O  O258  1  -0.00348207  0.25327637  0.36595572  1
  O  O259  1  0.00593729  0.25258837  0.86261859  1
  O  O260  1  0.00928969  0.75014472  0.36535735  1
  O  O261  1  0.00430586  0.76068474  0.87314638  1
  O  O262  1  0.50664766  0.25045613  0.36919560  1
  O  O263  1  0.50516236  0.25777256  0.87018375  1
  O  O264  1  0.50551338  0.75636456  0.37057766  1
  O  O265  1  0.50539800  0.75740472  0.86960216  1
  O  O266  1  0.24417624  0.13059691  0.49539103  1
  O  O267  1  0.24645793  0.13199481  1.00466749  1
  O  O268  1  0.24630166  0.62666922  0.48725593  1
  O  O269  1  0.23901834  0.62314861  0.99762869  1
  O  O270  1  0.74278094  0.12527831  0.48890378  1
  O  O271  1  0.74546956  0.12844938  0.99531115  1
  O  O272  1  0.74493050  0.63121317  0.49516577  1
  O  O273  1  0.74851754  0.63191605  0.99392855  1
  O  O274  1  0.25443394  0.36573575  0.00954340  1
  O  O275  1  0.25451757  0.37051429  0.50493518  1
  O  O276  1  0.26223737  0.88193657  0.01005000  1
  O  O277  1  0.24932332  0.87763780  0.51097165  1
  O  O278  1  0.75793883  0.36636677  0.00560853  1
  O  O279  1  0.75677996  0.37282028  0.51033517  1
  O  O280  1  0.75582699  0.86960807  0.00503346  1
  O  O281  1  0.75427146  0.86995288  0.50617177  1
  O  O282  1  0.13946230  0.49952671  0.25286034  1
  O  O283  1  0.12436162  0.49409705  0.74532296  1
  O  O284  1  0.13045728  0.99269603  0.24786449  1
  O  O285  1  0.12961906  0.99750242  0.74280071  1
  O  O286  1  0.62659276  0.49299947  0.24251834  1
  O  O287  1  0.62755702  0.49798855  0.74092176  1
  O  O288  1  0.63086730  0.99431141  0.24506368  1
  O  O289  1  0.62586732  0.99504464  0.74380647  1
  O  O290  1  0.36966114  0.00645126  0.25558024  1
  O  O291  1  0.36637595  0.00972823  0.75106819  1
  O  O292  1  0.36479204  0.50134726  0.25747226  1
  O  O293  1  0.37467370  0.50983292  0.75623710  1
  O  O294  1  0.86867946  -0.00766768  0.26371455  1
  O  O295  1  0.87524766  0.00883316  0.75394031  1
  O  O296  1  0.87309247  0.50843376  0.25712766  1
  O  O297  1  0.87261042  0.50430358  0.76011367  1
  O  O298  1  0.11470565  0.37203431  0.37216517  1
  O  O299  1  0.12235434  0.36416251  0.86693795  1
  O  O300  1  0.12584588  0.86570498  0.36727011  1
  O  O301  1  0.11854084  0.86442763  0.87252761  1
  O  O302  1  0.62518014  0.36824054  0.37042881  1
  O  O303  1  0.61791810  0.36914658  0.87391416  1
  O  O304  1  0.62037426  0.87039506  0.37028780  1
  O  O305  1  0.61946074  0.87061328  0.86989449  1
  O  O306  1  0.38125171  0.13240605  0.13161110  1
  O  O307  1  0.38038979  0.13166878  0.63298777  1
  O  O308  1  0.37300394  0.63944943  0.12460067  1
  O  O309  1  0.38216237  0.62653512  0.63398330  1
  O  O310  1  0.88270864  0.13650315  0.11787332  1
  O  O311  1  0.86597773  0.13564262  0.63382441  1
  O  O312  1  0.87182813  0.62593839  0.13947335  1
  O  O313  1  0.87922271  0.62968196  0.62944807  1
  O  O314  1  0.26163745  0.25792686  0.13062968  1
  O  O315  1  0.25470194  0.25694585  0.61870469  1
  O  O316  1  0.26237400  0.76452357  0.13342521  1
  O  O317  1  0.24626538  0.76459859  0.62471687  1
  O  O318  1  0.75726167  0.25102090  0.12086352  1
  O  O319  1  0.75952209  0.25841470  0.62430440  1
  O  O320  1  0.75106520  0.75691921  0.11919676  1
  O  O321  1  0.75523220  0.75547029  0.61874421  1
  O  O322  1  0.24915025  0.24401763  0.38143250  1
  O  O323  1  0.23527013  0.25343181  0.87016552  1
  O  O324  1  0.24178897  0.74220524  0.37078282  1
  O  O325  1  0.23794649  0.75589445  0.87097187  1
  O  O326  1  0.74609790  0.24028288  0.37567580  1
  O  O327  1  0.74557513  0.24385045  0.88082007  1
  O  O328  1  0.74436817  0.74596421  0.38116446  1
  O  O329  1  0.74464777  0.74565942  0.88057352  1
  O  O330  1  0.00433036  0.12361004  0.01065745  1
  O  O331  1  0.00449838  0.11188336  0.49579245  1
  O  O332  1  0.01242910  0.62164010  0.00534163  1
  O  O333  1  0.00029255  0.61816632  0.50629682  1
  O  O334  1  0.50651908  0.11966455  0.00609559  1
  O  O335  1  0.50448567  0.12080671  0.50612948  1
  O  O336  1  0.50585663  0.62236088  0.00662267  1
  O  O337  1  0.50544236  0.62126803  0.50515383  1
  O  O338  1  0.49265403  0.38300238  0.49924555  1
  O  O339  1  0.49780424  0.37554258  0.98655972  1
  O  O340  1  0.49987671  0.88339016  0.49358748  1
  O  O341  1  0.49267527  0.88078824  0.99566760  1
  O  O342  1  0.99353468  0.37986591  0.49497967  1
  O  O343  1  0.98681147  0.37353720  0.99798781  1
  O  O344  1  0.99447851  0.88742287  0.49610210  1
  O  O345  1  0.99442818  0.87170223  0.99216397  1
  O  O346  1  0.49284355  0.50071232  0.38177634  1
  O  O347  1  0.49318023  0.49037471  0.87329443  1
  O  O348  1  0.49515172  0.99680605  0.37997512  1
  O  O349  1  0.49808165  0.99433585  0.88238213  1
  O  O350  1  0.99409443  0.49446444  0.37975959  1
  O  O351  1  0.98556532  0.49697972  0.87877318  1
  O  O352  1  0.99083269  0.99978276  0.38171711  1
  O  O353  1  0.99554402  0.98604814  0.87522265  1
  O  O354  1  -0.00140588  0.01098290  0.12648470  1
  O  O355  1  0.00951731  -0.00614234  0.61579863  1
  O  O356  1  0.00087185  0.49875481  0.12238997  1
  O  O357  1  0.00360518  0.50463908  0.61979829  1
  O  O358  1  0.50641142  0.00525986  0.12100356  1
  O  O359  1  0.50490808  0.00662640  0.62057242  1
  O  O360  1  0.51012992  0.49798979  0.12526451  1
  O  O361  1  0.50550794  0.50644501  0.61877809  1
  O  O362  1  0.24763508  0.38269651  0.24265540  1
  O  O363  1  0.24218813  0.37708182  0.74028199  1
  O  O364  1  0.24575048  0.88137356  0.24251643  1
  O  O365  1  0.24456243  0.88522079  0.74102624  1
  O  O366  1  0.74337628  0.37462165  0.24353779  1
  O  O367  1  0.74894026  0.37577726  0.73778900  1
  O  O368  1  0.74449725  0.87982544  0.24547675  1
  O  O369  1  0.74318652  0.87635480  0.74363272  1
  O  O370  1  0.25425447  0.12068233  0.25468976  1
  O  O371  1  0.25982649  0.11660735  0.74123374  1
  O  O372  1  0.25219532  0.61773950  0.25821580  1
  O  O373  1  0.26450609  0.62541883  0.74389109  1
  O  O374  1  0.74350174  0.11710272  0.26342242  1
  O  O375  1  0.76157989  0.12524737  0.75706001  1
  O  O376  1  0.75946845  0.62585456  0.25811379  1
  O  O377  1  0.75734769  0.62418002  0.75750027  1
  O  O378  1  0.36877368  0.12065054  0.36938973  1
  O  O379  1  0.38022011  0.12581826  0.86091264  1
  O  O380  1  0.36431309  0.62061347  0.37396986  1
  O  O381  1  0.38358613  0.61541808  0.86446198  1
  O  O382  1  0.86374999  0.11321978  0.38206604  1
  O  O383  1  0.87177703  0.11978568  0.86773008  1
  O  O384  1  0.87077939  0.62040240  0.36722228  1
  O  O385  1  0.87057408  0.61699457  0.87177782  1
  O  O386  1  0.13956791  0.36562000  0.12486805  1
  O  O387  1  0.12849437  0.38076427  0.63008376  1
  O  O388  1  0.13548103  0.87120857  0.12918252  1
  O  O389  1  0.13044504  0.88541334  0.63013095  1
  O  O390  1  0.62956318  0.37932959  0.13042775  1
  O  O391  1  0.63457221  0.37967943  0.62426792  1
  O  O392  1  0.63085632  0.88094821  0.13063442  1
  O  O393  1  0.62963286  0.88088660  0.63054168  1
  O  O394  1  0.11113752  0.25320264  0.25153927  1
  O  O395  1  0.11706418  0.25284416  0.75424931  1
  O  O396  1  0.11866877  0.75304133  0.25679701  1
  O  O397  1  0.12179933  0.75563536  0.76244886  1
  O  O398  1  0.61968395  0.25432239  0.25540283  1
  O  O399  1  0.61826164  0.25035058  0.75694566  1
  O  O400  1  0.62065020  0.75589994  0.25587505  1
  O  O401  1  0.61954445  0.75682958  0.75600252  1
  O  O402  1  0.38054105  0.24523690  0.24315004  1
  O  O403  1  0.37891349  0.24400219  0.74417723  1
  O  O404  1  0.38202844  0.75181162  0.24056848  1
  O  O405  1  0.38159651  0.74334283  0.74900087  1
  O  O406  1  0.88370919  0.25463382  0.23759836  1
  O  O407  1  0.88084197  0.24383157  0.74447879  1
  O  O408  1  0.88401439  0.74180813  0.25303111  1
  O  O409  1  0.87672649  0.74309720  0.74224799  1
  O  O410  1  0.37934371  0.49612236  0.49552540  1
  O  O411  1  0.37866732  0.49831556  0.98877428  1
  O  O412  1  0.38087382  1.00124911  0.49384455  1
  O  O413  1  0.38212291  0.99053228  1.00002160  1
  O  O414  1  0.88094390  0.49436705  0.49477369  1
  O  O415  1  0.87034392  0.48828325  0.99270061  1
  O  O416  1  0.88127575  0.99643113  0.49441953  1
  O  O417  1  0.87842815  0.99089789  0.99225413  1
  O  O418  1  0.11943967  -0.00083215  0.00425660  1
  O  O419  1  0.11706034  0.00464013  0.50599598  1
  O  O420  1  0.12614721  0.51540054  -0.01519433  1
  O  O421  1  0.11693307  0.50164991  0.50700400  1
  O  O422  1  0.62103855  0.00457249  0.00642061  1
  O  O423  1  0.61814451  0.00636104  0.50586787  1
  O  O424  1  0.62390310  0.49859428  0.01259380  1
  O  O425  1  0.61951147  0.50678378  0.50492406  1
  O  O426  1  0.36927882  0.36460553  0.12538606  1
  O  O427  1  0.36954372  0.37121084  0.61997739  1
  O  O428  1  0.37035647  0.86966960  0.11869104  1
  O  O429  1  0.36252170  0.87641976  0.62491524  1
  O  O430  1  0.86922074  0.36398495  0.11660548  1
  O  O431  1  0.86802947  0.36733401  0.62123591  1
  O  O432  1  0.86866801  0.87187174  0.11918048  1
  O  O433  1  0.86980815  0.87006858  0.62011818  1
  O  O434  1  0.13116496  0.12679113  0.38216057  1
  O  O435  1  0.11892543  0.13951967  0.87083322  1
  O  O436  1  0.13331093  0.63393054  0.37429961  1
  O  O437  1  0.12252803  0.63923369  0.87877111  1
  O  O438  1  0.63233501  0.12942167  0.38045331  1
  O  O439  1  0.63037091  0.12975487  0.88110197  1
  O  O440  1  0.62996293  0.63103121  0.38012738  1
  O  O441  1  0.63163523  0.63188518  0.87516699  1
