# generated using pymatgen
data_V93Zn93O256
_symmetry_space_group_name_H-M   'P 1'
_cell_length_a   17.04190273
_cell_length_b   17.04497660
_cell_length_c   17.04252837
_cell_angle_alpha   89.95636313
_cell_angle_beta   90.07559107
_cell_angle_gamma   90.00108073
_symmetry_Int_Tables_number   1
_chemical_formula_structural   V93Zn93O256
_chemical_formula_sum   'V93 Zn93 O256'
_cell_volume   4950.48801142
_cell_formula_units_Z   1
loop_
 _symmetry_equiv_pos_site_id
 _symmetry_equiv_pos_as_xyz
  1  'x, y, z'
loop_
 _atom_site_type_symbol
 _atom_site_label
 _atom_site_symmetry_multiplicity
 _atom_site_fract_x
 _atom_site_fract_y
 _atom_site_fract_z
 _atom_site_occupancy
  V  V0  1  0.12480168  0.24969623  0.37641188  1
  V  V1  1  0.24838217  0.24923213  0.50119454  1
  V  V2  1  0.74843092  0.37645099  0.12445339  1
  V  V3  1  -0.00030653  0.37614457  0.37478566  1
  V  V4  1  0.75089062  0.62497458  0.37445266  1
  V  V5  1  0.62324440  0.25065500  0.87523033  1
  V  V6  1  0.62364192  -0.00115348  0.62420679  1
  V  V7  1  0.24977816  0.50021657  0.25014436  1
  V  V8  1  0.37198526  0.74713094  0.62534678  1
  V  V9  1  0.24991497  0.12297740  0.87541221  1
  V  V10  1  0.87554232  0.62553089  0.25108323  1
  V  V11  1  0.25106688  0.37381558  0.62597906  1
  V  V12  1  0.00131831  0.62492202  0.62690454  1
  V  V13  1  0.25748016  0.62211832  0.87700819  1
  V  V14  1  0.49774916  0.24864645  0.74965749  1
  V  V15  1  0.87623152  0.74949095  0.62647242  1
  V  V16  1  0.62353681  0.37554147  0.24928430  1
  V  V17  1  0.00009812  0.75052865  0.25013391  1
  V  V18  1  0.12488759  0.24937765  0.87512037  1
  V  V19  1  0.37686847  -0.00153994  0.88090811  1
  V  V20  1  0.75247858  0.62512949  0.87402022  1
  V  V21  1  0.62338849  0.62315890  0.50087729  1
  V  V22  1  0.25964351  0.49869733  0.75656385  1
  V  V23  1  0.12692270  0.50069528  0.62643206  1
  V  V24  1  0.74893704  0.25073986  -0.00081990  1
  V  V25  1  0.37420081  0.63032355  0.24664017  1
  V  V26  1  0.49638000  0.50055409  -0.00725736  1
  V  V27  1  0.62659114  0.37679209  0.74885582  1
  V  V28  1  0.87392427  0.87580079  0.50006458  1
  V  V29  1  0.75517253  0.37020068  0.62464433  1
  V  V30  1  0.37494603  0.37920001  -0.00555594  1
  V  V31  1  0.37568996  0.49959766  0.37611977  1
  V  V32  1  0.24987718  0.00186477  0.25247419  1
  V  V33  1  0.25077357  0.62930610  0.38259232  1
  V  V34  1  0.74646187  -0.00092585  0.24652199  1
  V  V35  1  0.49935686  0.87904883  0.88152969  1
  V  V36  1  0.00029531  0.00077489  -0.00076383  1
  V  V37  1  0.62051319  0.11818301  -0.00026300  1
  V  V38  1  0.49780870  0.75012570  0.24803572  1
  V  V39  1  0.87571911  0.50101984  0.37527835  1
  V  V40  1  0.12537571  0.37618836  0.24988456  1
  V  V41  1  0.12752426  0.75011523  0.38206280  1
  V  V42  1  0.74797211  0.12538218  0.37312593  1
  V  V43  1  0.37119742  0.87067343  0.50116283  1
  V  V44  1  0.74995208  0.00178987  0.74866038  1
  V  V45  1  0.12457050  -0.00078124  0.12559059  1
  V  V46  1  0.87419743  0.13036996  0.74266940  1
  V  V47  1  0.49893845  0.12424338  0.62526895  1
  V  V48  1  0.62554003  0.62435419  0.00032548  1
  V  V49  1  0.75036018  0.87476312  0.62462526  1
  V  V50  1  0.49846999  -0.00170200  0.50041451  1
  V  V51  1  -0.00023966  0.00101109  0.49960057  1
  V  V52  1  -0.00175415  0.12599652  0.12429216  1
  V  V53  1  0.12497417  0.12426661  0.50038088  1
  V  V54  1  0.74938781  0.12611883  0.87477646  1
  V  V55  1  -0.00312531  0.25045733  0.74366239  1
  V  V56  1  -0.00104935  0.25027150  0.24963431  1
  V  V57  1  0.87415330  -0.00006689  0.37368725  1
  V  V58  1  0.75314093  0.24935236  0.50092461  1
  V  V59  1  0.12391571  0.12557172  -0.00003143  1
  V  V60  1  0.25569097  0.87118497  0.12598983  1
  V  V61  1  0.62305649  0.25069878  0.37442884  1
  V  V62  1  0.49826341  0.62815874  0.12515442  1
  V  V63  1  0.25727314  0.75068868  0.00487611  1
  V  V64  1  0.24538378  -0.00545099  0.75182916  1
  V  V65  1  0.62519365  0.74904290  0.37432071  1
  V  V66  1  0.87429463  0.37520039  -0.00080416  1
  V  V67  1  0.49917833  0.37504371  0.37494668  1
  V  V68  1  0.12869853  0.75324947  0.86971370  1
  V  V69  1  0.49866313  0.74898071  0.74926417  1
  V  V70  1  0.62712230  0.75009128  0.87478826  1
  V  V71  1  0.49530580  0.11881914  0.12219489  1
  V  V72  1  0.62515974  0.87564588  0.74932388  1
  V  V73  1  0.25057679  0.37547634  0.12542614  1
  V  V74  1  0.00171517  0.62594445  0.12425062  1
  V  V75  1  0.00227561  0.50123557  0.00014693  1
  V  V76  1  0.62416600  0.87546398  0.24885081  1
  V  V77  1  0.87475624  0.87352818  0.00061636  1
  V  V78  1  0.87537312  0.37078982  0.50191341  1
  V  V79  1  0.25070003  0.25088052  0.00130264  1
  V  V80  1  0.49839308  0.87475043  0.37542095  1
  V  V81  1  0.87364693  0.12575603  0.24825780  1
  V  V82  1  0.12275359  -0.00352517  0.62812714  1
  V  V83  1  0.12599264  0.37472739  0.75118115  1
  V  V84  1  0.87623060  0.00080224  0.87353075  1
  V  V85  1  0.00041946  0.37611468  0.87520718  1
  V  V86  1  0.62395564  0.12423765  0.49839267  1
  V  V87  1  -0.00019814  0.87460257  0.37379571  1
  V  V88  1  0.00171851  0.49980958  0.50123162  1
  V  V89  1  0.87616035  0.50203320  0.87332057  1
  V  V90  1  0.00676669  0.87522185  0.86870349  1
  V  V91  1  0.24686764  0.87113109  0.62591496  1
  V  V92  1  0.37463583  0.37301428  0.49949983  1
  Zn  Zn93  1  0.38029512  0.61829200  0.75377788  1
  Zn  Zn94  1  0.75243500  0.50093153  0.74614469  1
  Zn  Zn95  1  0.37341901  0.12330778  0.74978092  1
  Zn  Zn96  1  0.37291663  0.24638607  0.62459248  1
  Zn  Zn97  1  0.87683767  0.62549246  0.75041470  1
  Zn  Zn98  1  0.13132423  0.62797806  0.50416564  1
  Zn  Zn99  1  0.75063488  0.50108776  0.24906744  1
  Zn  Zn100  1  -0.00410550  0.12909201  0.62175464  1
  Zn  Zn101  1  0.00777846  0.75470512  0.74733621  1
  Zn  Zn102  1  0.49986335  0.49814100  0.50356148  1
  Zn  Zn103  1  0.37289907  0.00120914  0.37649652  1
  Zn  Zn104  1  0.38222240  0.87531863  0.00742077  1
  Zn  Zn105  1  0.62037221  -0.00483947  0.11855687  1
  Zn  Zn106  1  0.87377862  0.75123199  0.12484853  1
  Zn  Zn107  1  0.62495988  0.50050589  0.62399786  1
  Zn  Zn108  1  0.74915221  0.74959409  0.50010218  1
  Zn  Zn109  1  0.74744331  0.87366425  0.12277735  1
  Zn  Zn110  1  0.75166438  0.75029842  0.00201229  1
  Zn  Zn111  1  0.50058819  0.62160528  0.62572288  1
  Zn  Zn112  1  0.37654220  0.25150575  0.12652309  1
  Zn  Zn113  1  0.25191950  0.12464631  0.37597531  1
  Zn  Zn114  1  0.12489567  0.87427931  0.25015455  1
  Zn  Zn115  1  0.62418951  0.50064336  0.12469329  1
  Zn  Zn116  1  0.12809114  0.62511599  0.00061935  1
  Zn  Zn117  1  0.87429474  0.25043493  0.12411206  1
  Zn  Zn118  1  0.49499421  0.24977234  0.24801197  1
  Zn  Zn119  1  0.37537228  0.12731185  0.25515398  1
  Zn  Zn120  1  0.49604033  0.37947026  0.87171086  1
  Zn  Zn121  1  0.12569794  0.50082607  0.12484369  1
  Zn  Zn122  1  0.18665151  0.18828418  0.18735894  1
  Zn  Zn123  1  0.18544671  0.18390516  0.68781844  1
  Zn  Zn124  1  0.18579851  0.68936052  0.19153414  1
  Zn  Zn125  1  0.18996226  0.68445390  0.69169109  1
  Zn  Zn126  1  0.68303898  0.18858310  0.18447182  1
  Zn  Zn127  1  0.68546306  0.18929378  0.68548871  1
  Zn  Zn128  1  0.68883656  0.68997788  0.18576587  1
  Zn  Zn129  1  0.68825588  0.68790952  0.68717256  1
  Zn  Zn130  1  0.31250245  0.30984696  0.31188921  1
  Zn  Zn131  1  0.31299079  0.31108225  0.81414808  1
  Zn  Zn132  1  0.31036777  0.81288037  0.31269411  1
  Zn  Zn133  1  0.31346024  0.81231265  0.81367710  1
  Zn  Zn134  1  0.81200180  0.31249050  0.31310978  1
  Zn  Zn135  1  0.81273945  0.31262273  0.81311647  1
  Zn  Zn136  1  0.81159827  0.81138316  0.31093583  1
  Zn  Zn137  1  0.81581219  0.81252496  0.81197452  1
  Zn  Zn138  1  0.18831600  0.43897880  0.43792237  1
  Zn  Zn139  1  0.18690533  0.43885079  0.93891513  1
  Zn  Zn140  1  0.18675119  0.93575318  0.43948760  1
  Zn  Zn141  1  0.18857844  0.93560487  0.94162044  1
  Zn  Zn142  1  0.68878675  0.43876633  0.43711897  1
  Zn  Zn143  1  0.68535757  0.44045650  0.93634631  1
  Zn  Zn144  1  0.68674942  0.93650720  0.43587404  1
  Zn  Zn145  1  0.68954046  0.93747729  0.93409571  1
  Zn  Zn146  1  0.31055255  0.05966982  0.06313402  1
  Zn  Zn147  1  0.31227328  0.06129382  0.56351033  1
  Zn  Zn148  1  0.31359962  0.56126200  0.06298243  1
  Zn  Zn149  1  0.31522715  0.55914922  0.56525440  1
  Zn  Zn150  1  0.81066536  0.06108055  0.06248673  1
  Zn  Zn151  1  0.81057514  0.06222043  0.56090576  1
  Zn  Zn152  1  0.81495072  0.56233342  0.06145138  1
  Zn  Zn153  1  0.81076060  0.55918241  0.56135921  1
  Zn  Zn154  1  0.43654626  0.44096137  0.18427410  1
  Zn  Zn155  1  0.43993821  0.43514092  0.68263910  1
  Zn  Zn156  1  0.43628431  0.94097775  0.18955654  1
  Zn  Zn157  1  0.43418762  0.93716668  0.69127096  1
  Zn  Zn158  1  0.93643863  0.43921746  0.18681954  1
  Zn  Zn159  1  0.93610352  0.43860614  0.68803127  1
  Zn  Zn160  1  0.93713734  0.93809933  0.18717397  1
  Zn  Zn161  1  0.93635860  0.93951872  0.68780361  1
  Zn  Zn162  1  0.06381179  0.06322378  0.31214502  1
  Zn  Zn163  1  0.06170054  0.06368240  0.81080038  1
  Zn  Zn164  1  0.06441086  0.56424885  0.31282087  1
  Zn  Zn165  1  0.06903264  0.56431012  0.81351613  1
  Zn  Zn166  1  0.55937852  0.06110468  0.31045041  1
  Zn  Zn167  1  0.56168304  0.06252464  0.81282922  1
  Zn  Zn168  1  0.56249048  0.56002451  0.31379368  1
  Zn  Zn169  1  0.56526262  0.56287830  0.81288524  1
  Zn  Zn170  1  0.43543870  0.18745487  0.43603315  1
  Zn  Zn171  1  0.43555268  0.18842137  0.93853020  1
  Zn  Zn172  1  0.43829234  0.68776181  0.43727242  1
  Zn  Zn173  1  0.43804545  0.69021377  0.93862299  1
  Zn  Zn174  1  0.93706833  0.18729732  0.43616139  1
  Zn  Zn175  1  0.93592748  0.18920821  0.93429346  1
  Zn  Zn176  1  0.93920445  0.68783198  0.43978114  1
  Zn  Zn177  1  0.94074043  0.68984220  0.93742700  1
  Zn  Zn178  1  0.06300446  0.31325670  0.06382864  1
  Zn  Zn179  1  0.06450476  0.31498693  0.56272486  1
  Zn  Zn180  1  0.06769350  0.81134641  0.05970328  1
  Zn  Zn181  1  0.06160771  0.81411054  0.56095538  1
  Zn  Zn182  1  0.55934976  0.30875259  0.06284603  1
  Zn  Zn183  1  0.56380816  0.31168210  0.56266997  1
  Zn  Zn184  1  0.56529723  0.80879336  0.06318643  1
  Zn  Zn185  1  0.56102181  0.80967265  0.56131698  1
  O  O186  1  0.11767165  0.12027028  0.11863986  1
  O  O187  1  0.12180895  0.11215754  0.61956066  1
  O  O188  1  0.11265714  0.62365466  0.12645243  1
  O  O189  1  0.11933228  0.62107224  0.62394339  1
  O  O190  1  0.61549317  0.12320295  0.11576062  1
  O  O191  1  0.62011433  0.11807505  0.61825007  1
  O  O192  1  0.61636712  0.62320028  0.11971214  1
  O  O193  1  0.62537472  0.62565107  0.61390937  1
  O  O194  1  0.37903678  0.38001884  0.37955689  1
  O  O195  1  0.37641995  0.37137504  0.88947871  1
  O  O196  1  0.37894715  0.87303880  0.38640530  1
  O  O197  1  0.38401264  0.88152059  0.87490513  1
  O  O198  1  0.88086257  0.38106477  0.37994434  1
  O  O199  1  0.88054432  0.38134229  0.87966220  1
  O  O200  1  0.87907060  0.88063347  0.38026646  1
  O  O201  1  0.88377495  0.88092223  0.88147475  1
  O  O202  1  0.24796616  -0.00133379  0.36455966  1
  O  O203  1  0.25367486  0.00156151  0.86831229  1
  O  O204  1  0.25509112  0.50842474  0.36911467  1
  O  O205  1  0.24403637  0.50920415  0.86697735  1
  O  O206  1  0.75414947  0.00577265  0.36755641  1
  O  O207  1  0.75571643  0.00666645  0.86651862  1
  O  O208  1  0.75887686  0.50675469  0.37362601  1
  O  O209  1  0.75678125  0.50987581  0.87466384  1
  O  O210  1  0.24823278  0.49464430  0.13281098  1
  O  O211  1  0.24601047  0.49452495  0.63520197  1
  O  O212  1  0.24346558  0.99290626  0.13192244  1
  O  O213  1  0.24261632  0.99228086  0.63278955  1
  O  O214  1  0.74801087  0.48784044  0.12459845  1
  O  O215  1  0.74586015  0.48669945  0.62635718  1
  O  O216  1  0.74573218  0.99745757  0.13427303  1
  O  O217  1  0.74347655  0.99449820  0.62949911  1
  O  O218  1  0.00420564  0.37057575  0.25510500  1
  O  O219  1  0.00488746  0.36873364  0.75510185  1
  O  O220  1  0.00022168  0.86968943  0.25676906  1
  O  O221  1  -0.00522089  0.87604365  0.76489491  1
  O  O222  1  0.50887274  0.37600895  0.25378805  1
  O  O223  1  0.50858664  0.36605806  0.75028910  1
  O  O224  1  0.50276301  0.87012035  0.25497986  1
  O  O225  1  0.50525522  0.86677966  0.75740646  1
  O  O226  1  0.50047377  0.12621107  0.23510725  1
  O  O227  1  0.50139568  0.13426545  0.74446200  1
  O  O228  1  0.49378514  0.62833345  0.24437826  1
  O  O229  1  0.49997406  0.63694025  0.75105098  1
  O  O230  1  0.99397486  0.13004024  0.24443781  1
  O  O231  1  0.99143750  0.13324141  0.74924446  1
  O  O232  1  0.99544732  0.62986701  0.24356201  1
  O  O233  1  1.00181195  0.62616453  0.73646998  1
  O  O234  1  0.36784115  0.25949553  0.00257235  1
  O  O235  1  0.36641778  0.25597062  0.50137868  1
  O  O236  1  0.36150856  0.75422180  -0.00274784  1
  O  O237  1  0.38252894  0.76054429  0.51260493  1
  O  O238  1  0.86739573  0.25731454  -0.00105321  1
  O  O239  1  0.86620049  0.25758305  0.49161134  1
  O  O240  1  0.87604647  0.76279116  -0.00064066  1
  O  O241  1  0.87544975  0.75658621  0.51144354  1
  O  O242  1  0.12827206  0.24489435  0.49617335  1
  O  O243  1  0.12945186  0.24544422  0.99397849  1
  O  O244  1  0.11950686  0.74744986  0.48645083  1
  O  O245  1  0.13749555  0.74737892  0.98956045  1
  O  O246  1  0.63111765  0.24309148  0.49351825  1
  O  O247  1  0.63000029  0.24169933  0.99377247  1
  O  O248  1  0.62593415  0.74151143  0.49313489  1
  O  O249  1  0.62726094  0.74202954  0.99113096  1
  O  O250  1  0.49841266  0.23648803  0.12706519  1
  O  O251  1  0.50093689  0.24339686  0.63469280  1
  O  O252  1  0.50324195  0.73577135  0.13049404  1
  O  O253  1  0.49165735  0.75117915  0.63580185  1
  O  O254  1  0.99789894  0.24411702  0.13123492  1
  O  O255  1  1.00669951  0.25008789  0.64009052  1
  O  O256  1  1.00075151  0.74183421  0.12985048  1
  O  O257  1  0.99480485  0.74359016  0.62561458  1
  O  O258  1  0.00520705  0.25650917  0.36926184  1
  O  O259  1  0.00570488  0.25590326  0.86623913  1
  O  O260  1  0.00634769  0.75441057  0.37050860  1
  O  O261  1  0.01045907  0.75759986  0.87372461  1
  O  O262  1  0.50665443  0.25680113  0.37233891  1
  O  O263  1  0.50503762  0.25040686  0.86496869  1
  O  O264  1  0.50542728  0.75558619  0.36829769  1
  O  O265  1  0.50487286  0.75728748  0.86616407  1
  O  O266  1  0.24188006  0.13029196  0.50122828  1
  O  O267  1  0.24296301  0.12982130  0.99554228  1
  O  O268  1  0.25227582  0.61957820  0.48620692  1
  O  O269  1  0.25118197  0.63172802  0.99500244  1
  O  O270  1  0.74378440  0.12814374  0.49289332  1
  O  O271  1  0.74305863  0.13077045  0.99422898  1
  O  O272  1  0.74155684  0.62679010  0.49348970  1
  O  O273  1  0.74604362  0.62502678  0.98934012  1
  O  O274  1  0.25621520  0.37181049  0.00430854  1
  O  O275  1  0.25361370  0.36940615  0.50609877  1
  O  O276  1  0.25163403  0.86747328  0.00944718  1
  O  O277  1  0.26045896  0.88020467  0.51314589  1
  O  O278  1  0.75277666  0.37113432  0.00583943  1
  O  O279  1  0.75420274  0.36943795  0.50591926  1
  O  O280  1  0.76245940  0.87559633  -0.00272361  1
  O  O281  1  0.75618514  0.87434071  0.50653373  1
  O  O282  1  0.13165589  0.49328201  0.25049972  1
  O  O283  1  0.13478136  0.49324855  0.74570081  1
  O  O284  1  0.13210040  0.99798285  0.24397465  1
  O  O285  1  0.13336609  1.00395779  0.74060484  1
  O  O286  1  0.62811316  0.48738042  0.24879964  1
  O  O287  1  0.62772231  0.48649575  0.75116225  1
  O  O288  1  0.63176224  0.99284913  0.25034084  1
  O  O289  1  0.63042039  0.99538451  0.74402947  1
  O  O290  1  0.36193882  0.00267529  0.25306548  1
  O  O291  1  0.36349688  0.00089214  0.75990941  1
  O  O292  1  0.37015902  0.50965866  0.25679876  1
  O  O293  1  0.36333991  0.49734483  0.74728926  1
  O  O294  1  0.86723741  0.00556565  0.25475338  1
  O  O295  1  0.86951718  0.00930563  0.75451702  1
  O  O296  1  0.87470121  0.50723083  0.25782746  1
  O  O297  1  0.87292096  0.50386428  0.75825888  1
  O  O298  1  0.11872917  0.37038806  0.37023440  1
  O  O299  1  0.11994239  0.36912366  0.87018659  1
  O  O300  1  0.11854648  0.86655678  0.37536094  1
  O  O301  1  0.11616112  0.86738464  0.88298794  1
  O  O302  1  0.62102031  0.37085274  0.36775019  1
  O  O303  1  0.62482107  0.36874007  0.86480405  1
  O  O304  1  0.61817652  0.86880249  0.36983505  1
  O  O305  1  0.61857020  0.87164581  0.86860986  1
  O  O306  1  0.38793539  0.12416095  0.12012045  1
  O  O307  1  0.38300117  0.12569696  0.62869773  1
  O  O308  1  0.38388560  0.61938496  0.13801549  1
  O  O309  1  0.37592537  0.63625529  0.62806042  1
  O  O310  1  0.88020016  0.12670350  0.13012092  1
  O  O311  1  0.87492330  0.11961955  0.63855606  1
  O  O312  1  0.88636964  0.62555003  0.13049156  1
  O  O313  1  0.88274093  0.63252343  0.62437470  1
  O  O314  1  0.24900169  0.25705387  0.11732334  1
  O  O315  1  0.24817352  0.25598743  0.62067087  1
  O  O316  1  0.24147982  0.75955774  0.11785756  1
  O  O317  1  0.25951853  0.75996207  0.63559800  1
  O  O318  1  0.75004768  0.26102298  0.11860205  1
  O  O319  1  0.74401388  0.26060059  0.61643791  1
  O  O320  1  0.75556455  0.75520898  0.12017012  1
  O  O321  1  0.76021310  0.75648241  0.62455286  1
  O  O322  1  0.24057723  0.24994376  0.38304717  1
  O  O323  1  0.24391909  0.24326012  0.88029599  1
  O  O324  1  0.24022008  0.74039257  0.36933987  1
  O  O325  1  0.24569282  0.74551495  0.88181621  1
  O  O326  1  0.74282424  0.24430209  0.37985077  1
  O  O327  1  0.74351489  0.24465210  0.87928067  1
  O  O328  1  0.74334291  0.74343183  0.37651377  1
  O  O329  1  0.74599074  0.74175282  0.87453843  1
  O  O330  1  0.00366302  0.12084769  0.00300776  1
  O  O331  1  0.00427573  0.11909809  0.50238836  1
  O  O332  1  0.00129557  0.62068943  0.00906917  1
  O  O333  1  0.00158423  0.61861514  0.51268948  1
  O  O334  1  0.50930426  0.13062753  0.00957641  1
  O  O335  1  0.50547012  0.11880023  0.50494861  1
  O  O336  1  0.50275230  0.62068659  0.00621776  1
  O  O337  1  0.51127050  0.62453741  0.50066503  1
  O  O338  1  0.49377161  0.37339642  0.49294533  1
  O  O339  1  0.49337749  0.38326084  0.99980840  1
  O  O340  1  0.49231000  0.87902898  0.49614681  1
  O  O341  1  0.50018277  0.86670909  0.98539474  1
  O  O342  1  0.99573355  0.37976709  0.49492654  1
  O  O343  1  0.99502004  0.37962136  0.99438082  1
  O  O344  1  0.99298870  0.88202396  0.49377838  1
  O  O345  1  0.99393413  0.88139722  0.99112746  1
  O  O346  1  0.49232126  0.49276291  0.37720065  1
  O  O347  1  0.50299669  0.50073829  0.88812565  1
  O  O348  1  0.49783224  0.99175387  0.38215560  1
  O  O349  1  0.49011899  0.98947998  0.86563522  1
  O  O350  1  0.99623025  0.49563786  0.38106928  1
  O  O351  1  0.99737260  0.49573204  0.87917153  1
  O  O352  1  0.99387916  0.99527549  0.37931646  1
  O  O353  1  0.99714476  0.99441697  0.87945471  1
  O  O354  1  0.00454335  0.00652336  0.11921933  1
  O  O355  1  0.00854796  -0.00152166  0.61952871  1
  O  O356  1  0.00034488  0.50948298  0.11942716  1
  O  O357  1  0.00602107  0.50644707  0.62180795  1
  O  O358  1  0.50151897  0.01344366  0.12568772  1
  O  O359  1  0.50498543  0.00286546  0.62161479  1
  O  O360  1  0.50216607  0.51214186  0.11606785  1
  O  O361  1  0.50580493  0.50411232  0.62195640  1
  O  O362  1  0.24492006  0.38082549  0.24574094  1
  O  O363  1  0.24560520  0.38023281  0.74809724  1
  O  O364  1  0.24775825  0.88225695  0.24271959  1
  O  O365  1  0.25499948  0.88555116  0.74015154  1
  O  O366  1  0.74242767  0.37519145  0.24139105  1
  O  O367  1  0.74254126  0.37160717  0.74203355  1
  O  O368  1  0.74331352  0.88300864  0.25040890  1
  O  O369  1  0.74561490  0.88157592  0.74528276  1
  O  O370  1  0.24858266  0.11313233  0.24961081  1
  O  O371  1  0.24980736  0.11371835  0.75685625  1
  O  O372  1  0.25792470  0.62148536  0.25746210  1
  O  O373  1  0.25339463  0.61450284  0.75887376  1
  O  O374  1  0.75226083  0.11995119  0.25378732  1
  O  O375  1  0.75530069  0.12278722  0.75393085  1
  O  O376  1  0.75679104  0.62366924  0.25591720  1
  O  O377  1  0.75054452  0.62359897  0.76215901  1
  O  O378  1  0.36968248  0.11886130  0.37432153  1
  O  O379  1  0.36859723  0.11591533  0.87411291  1
  O  O380  1  0.36900175  0.62116752  0.36814526  1
  O  O381  1  0.36177805  0.63170755  0.87302078  1
  O  O382  1  0.86827948  0.11900570  0.36810124  1
  O  O383  1  0.86920467  0.12016589  0.86551654  1
  O  O384  1  0.87166749  0.62087088  0.37164070  1
  O  O385  1  0.86863107  0.62199667  0.87446835  1
  O  O386  1  0.13136866  0.37686066  0.13250898  1
  O  O387  1  0.13142293  0.38120719  0.63225521  1
  O  O388  1  0.13395836  0.88228556  0.12583555  1
  O  O389  1  0.13431922  0.88506157  0.61754605  1
  O  O390  1  0.63194138  0.37439640  0.13208657  1
  O  O391  1  0.63379807  0.37424791  0.63404215  1
  O  O392  1  0.62454304  0.87762995  0.13198914  1
  O  O393  1  0.62976369  0.87882855  0.62961726  1
  O  O394  1  0.11874231  0.25600983  0.25610227  1
  O  O395  1  0.11790194  0.25409093  0.75652767  1
  O  O396  1  0.11724710  0.75171676  0.26272041  1
  O  O397  1  0.12754367  0.74908375  0.76469514  1
  O  O398  1  0.62463973  0.26175164  0.25584131  1
  O  O399  1  0.61708621  0.25700362  0.75429961  1
  O  O400  1  0.61760620  0.75540869  0.25509748  1
  O  O401  1  0.61744542  0.75597622  0.75403572  1
  O  O402  1  0.37585284  0.24471898  0.24450475  1
  O  O403  1  0.38660159  0.24846281  0.74930879  1
  O  O404  1  0.38114764  0.73729616  0.25740143  1
  O  O405  1  0.38426400  0.75078583  0.74245844  1
  O  O406  1  0.88089303  0.24349001  0.24935017  1
  O  O407  1  0.88467338  0.24129247  0.75704982  1
  O  O408  1  0.88329482  0.74345326  0.24948254  1
  O  O409  1  0.88028284  0.74907983  0.73680559  1
  O  O410  1  0.37544832  0.49120073  0.49356270  1
  O  O411  1  0.38473178  0.49150978  1.00463623  1
  O  O412  1  0.38056780  0.98672695  0.50260470  1
  O  O413  1  0.36702019  0.99556074  0.98433888  1
  O  O414  1  0.88219528  0.49267320  0.49452789  1
  O  O415  1  0.88234804  0.49424165  0.99284666  1
  O  O416  1  0.87927741  0.99600012  0.49372722  1
  O  O417  1  0.88043787  0.99494292  0.99245380  1
  O  O418  1  0.11970660  0.00679395  0.00506278  1
  O  O419  1  0.11941047  0.00426117  0.50800482  1
  O  O420  1  0.11718449  0.50339122  0.00338663  1
  O  O421  1  0.11949529  0.50123335  0.50845324  1
  O  O422  1  0.63069701  0.01421890  -0.00254697  1
  O  O423  1  0.61905416  0.00397431  0.50483452  1
  O  O424  1  0.61504732  0.50646196  0.00192430  1
  O  O425  1  0.62337997  0.51165217  0.49837242  1
  O  O426  1  0.36830048  0.37520181  0.11474226  1
  O  O427  1  0.36760701  0.37084057  0.61784387  1
  O  O428  1  0.36097257  0.88243732  0.12379850  1
  O  O429  1  0.36806526  0.86753965  0.62047793  1
  O  O430  1  0.86524361  0.37416575  0.11867849  1
  O  O431  1  0.86434779  0.37932916  0.61836646  1
  O  O432  1  0.87601108  0.87676600  0.11118217  1
  O  O433  1  0.87113582  0.86909519  0.62060504  1
  O  O434  1  0.12514603  0.13200377  0.38294530  1
  O  O435  1  0.12956420  0.12920227  0.88073212  1
  O  O436  1  0.13373837  0.63193049  0.37734898  1
  O  O437  1  0.13772098  0.63436169  0.87746608  1
  O  O438  1  0.62844270  0.12959909  0.37930109  1
  O  O439  1  0.62944275  0.12981348  0.88040876  1
  O  O440  1  0.62980229  0.62956647  0.38048322  1
  O  O441  1  0.63389010  0.63017263  0.87966497  1
