# generated using pymatgen
data_V93Zn93O256
_symmetry_space_group_name_H-M   'P 1'
_cell_length_a   17.04721197
_cell_length_b   17.04780016
_cell_length_c   17.04894959
_cell_angle_alpha   90.04238969
_cell_angle_beta   90.06228901
_cell_angle_gamma   90.02503345
_symmetry_Int_Tables_number   1
_chemical_formula_structural   V93Zn93O256
_chemical_formula_sum   'V93 Zn93 O256'
_cell_volume   4954.71771793
_cell_formula_units_Z   1
loop_
 _symmetry_equiv_pos_site_id
 _symmetry_equiv_pos_as_xyz
  1  'x, y, z'
loop_
 _atom_site_type_symbol
 _atom_site_label
 _atom_site_symmetry_multiplicity
 _atom_site_fract_x
 _atom_site_fract_y
 _atom_site_fract_z
 _atom_site_occupancy
  V  V0  1  0.76337442  0.00617618  0.75208916  1
  V  V1  1  0.25004835  0.49758479  0.25038001  1
  V  V2  1  -0.00080711  0.87052234  0.36865938  1
  V  V3  1  0.62410593  0.37366240  0.24998524  1
  V  V4  1  0.37060281  0.24886346  0.12244213  1
  V  V5  1  0.37560467  0.87674187  -0.00115577  1
  V  V6  1  0.37558680  0.50092878  0.87473201  1
  V  V7  1  0.86868441  0.87433977  -0.00779017  1
  V  V8  1  0.87463704  0.62618866  0.75154788  1
  V  V9  1  -0.00268655  0.12429613  0.63178632  1
  V  V10  1  0.25015898  0.62674404  0.87560978  1
  V  V11  1  0.74994906  0.75069454  0.50144545  1
  V  V12  1  0.25047036  0.62399366  0.37560890  1
  V  V13  1  0.12381097  0.37422138  0.75135350  1
  V  V14  1  0.37455090  0.12463723  0.75054054  1
  V  V15  1  0.62728777  0.75261309  0.87872112  1
  V  V16  1  0.49980074  0.50035462  -0.00075182  1
  V  V17  1  0.87493444  0.75200684  0.12497802  1
  V  V18  1  0.50037868  0.24917085  0.25014109  1
  V  V19  1  -0.00066422  0.49856035  0.50051473  1
  V  V20  1  0.37567092  0.87102292  0.50394186  1
  V  V21  1  -0.00041839  0.12449106  0.12522754  1
  V  V22  1  0.37636398  0.37385188  0.49969676  1
  V  V23  1  0.75048244  0.63015788  0.87934561  1
  V  V24  1  -0.00066504  0.62493304  0.62564698  1
  V  V25  1  0.49449036  0.75098191  0.74575598  1
  V  V26  1  0.62581738  0.00064893  0.62598042  1
  V  V27  1  0.62670451  0.62832746  -0.00005204  1
  V  V28  1  0.24994940  0.37400751  0.62586357  1
  V  V29  1  0.87580832  0.49988923  0.37520327  1
  V  V30  1  0.12418501  0.24752402  0.37601835  1
  V  V31  1  0.49946867  0.12431285  0.62500897  1
  V  V32  1  0.24946125  0.37023510  0.12324998  1
  V  V33  1  0.87374415  0.37661309  0.00060717  1
  V  V34  1  0.12472572  0.37368506  0.25036961  1
  V  V35  1  0.87464904  0.25113288  0.12529766  1
  V  V36  1  0.50020035  0.12429639  0.12353611  1
  V  V37  1  0.62539582  0.87682737  0.75013582  1
  V  V38  1  -0.00157701  0.24952560  0.25124386  1
  V  V39  1  0.62547138  -0.00042808  0.12417247  1
  V  V40  1  0.87446217  0.75073328  0.62485734  1
  V  V41  1  0.12538528  0.12370747  0.50103885  1
  V  V42  1  0.87405219  0.12414690  0.25031068  1
  V  V43  1  0.37555330  0.62353430  0.24942826  1
  V  V44  1  0.62513688  0.87469145  0.24867652  1
  V  V45  1  -0.00063693  0.37440530  0.37646269  1
  V  V46  1  0.12546503  0.62420334  0.50059889  1
  V  V47  1  0.37326112  0.74997324  0.12406475  1
  V  V48  1  0.25373328  0.74898735  0.50464211  1
  V  V49  1  0.50045188  0.87421269  0.37493680  1
  V  V50  1  0.87435431  0.50247163  0.87552463  1
  V  V51  1  0.24882924  0.12334259  0.37484215  1
  V  V52  1  0.75126438  0.87661678  0.62527119  1
  V  V53  1  0.00188835  0.75198003  0.75048267  1
  V  V54  1  0.12968531  0.25183542  0.88217114  1
  V  V55  1  0.75010153  -0.00144038  0.24773077  1
  V  V56  1  0.37056800  0.37089609  -0.00015757  1
  V  V57  1  0.25115576  0.00084865  0.75042806  1
  V  V58  1  0.62544554  0.12594913  -0.00395918  1
  V  V59  1  0.50174178  0.25205395  0.75184628  1
  V  V60  1  0.00037082  0.37603096  0.87511990  1
  V  V61  1  -0.00092924  0.50254697  0.00167408  1
  V  V62  1  0.12424104  0.49934063  0.12527639  1
  V  V63  1  0.74974944  0.50028837  0.24948156  1
  V  V64  1  -0.00370044  0.00022384  -0.00682436  1
  V  V65  1  0.12566482  0.87439550  0.75072525  1
  V  V66  1  0.62470500  0.12547622  0.49929937  1
  V  V67  1  0.24838855  -0.00426494  0.24981649  1
  V  V68  1  0.25114374  0.87306052  0.62477451  1
  V  V69  1  0.49996114  0.62491455  0.12500460  1
  V  V70  1  0.62646759  0.37844140  0.74907187  1
  V  V71  1  0.87497431  -0.00093294  0.37628982  1
  V  V72  1  0.12551029  0.00049106  0.62398178  1
  V  V73  1  0.87524722  0.24712061  0.63319696  1
  V  V74  1  0.25101339  0.12919365  0.88240038  1
  V  V75  1  0.62535695  0.50144783  0.12465107  1
  V  V76  1  0.75112894  0.24984817  -0.00077586  1
  V  V77  1  0.37460124  0.12339414  0.24917856  1
  V  V78  1  0.12389262  0.62723669  -0.00002192  1
  V  V79  1  0.12325963  -0.00189237  0.12475710  1
  V  V80  1  0.37540974  0.49739358  0.37547861  1
  V  V81  1  0.25119142  0.50044819  0.74988919  1
  V  V82  1  0.49328307  0.62824828  0.62400862  1
  V  V83  1  0.12077646  0.74909652  0.36925929  1
  V  V84  1  0.49983432  -0.00126310  0.49983440  1
  V  V85  1  0.74997982  0.62507775  0.37460357  1
  V  V86  1  0.37395082  0.25014176  0.62545011  1
  V  V87  1  0.75052187  0.25033469  0.50079930  1
  V  V88  1  0.12412102  0.49852469  0.62561223  1
  V  V89  1  0.88232671  0.63090289  0.24970221  1
  V  V90  1  0.62402639  0.62238944  0.50154195  1
  V  V91  1  0.62510429  0.74996716  0.37292268  1
  V  V92  1  0.76594916  0.12353722  0.87144573  1
  Zn  Zn93  1  0.24760500  0.75355327  -0.00091538  1
  Zn  Zn94  1  0.37680249  0.00052601  0.87545012  1
  Zn  Zn95  1  0.50039879  0.37349207  0.37661789  1
  Zn  Zn96  1  0.37457332  -0.00153671  0.37442957  1
  Zn  Zn97  1  0.62501463  0.24823100  0.37483989  1
  Zn  Zn98  1  0.50023137  0.74977667  0.24990633  1
  Zn  Zn99  1  0.62696601  0.50059705  0.62586539  1
  Zn  Zn100  1  0.12331726  0.75454537  0.87746721  1
  Zn  Zn101  1  0.62751398  0.25238720  0.87459998  1
  Zn  Zn102  1  0.12083982  0.86654017  0.24579255  1
  Zn  Zn103  1  0.75283130  0.37890408  0.62569188  1
  Zn  Zn104  1  0.74935289  0.50158141  0.74848454  1
  Zn  Zn105  1  0.37275512  0.62945124  0.74525356  1
  Zn  Zn106  1  0.87634371  0.87404936  0.49888633  1
  Zn  Zn107  1  -0.00390156  0.24557195  0.75509645  1
  Zn  Zn108  1  0.00329731  0.63212576  0.13076360  1
  Zn  Zn109  1  0.87400543  0.37452968  0.50188154  1
  Zn  Zn110  1  0.50074409  0.49881613  0.50112078  1
  Zn  Zn111  1  0.50078006  -0.00002001  -0.00437071  1
  Zn  Zn112  1  0.24700543  0.87290805  0.12359514  1
  Zn  Zn113  1  -0.00126456  0.87963403  0.87222644  1
  Zn  Zn114  1  0.49923670  0.87775662  0.87299051  1
  Zn  Zn115  1  0.74983533  0.37566423  0.12344775  1
  Zn  Zn116  1  0.74855674  0.12509388  0.37434890  1
  Zn  Zn117  1  -0.00029093  -0.00197524  0.50034710  1
  Zn  Zn118  1  0.24993837  0.24753010  0.50049034  1
  Zn  Zn119  1  0.12790539  0.12906144  0.00310642  1
  Zn  Zn120  1  0.74688855  0.86883711  0.11857170  1
  Zn  Zn121  1  0.50079662  0.37681287  0.87584492  1
  Zn  Zn122  1  0.18724534  0.18563933  0.18826852  1
  Zn  Zn123  1  0.18581902  0.18854659  0.69169283  1
  Zn  Zn124  1  0.19049408  0.68445619  0.18644490  1
  Zn  Zn125  1  0.18629642  0.68733782  0.68809508  1
  Zn  Zn126  1  0.68898081  0.18648292  0.18556746  1
  Zn  Zn127  1  0.68868815  0.18746156  0.68785414  1
  Zn  Zn128  1  0.69249495  0.68921665  0.18628194  1
  Zn  Zn129  1  0.68571281  0.68881268  0.68979043  1
  Zn  Zn130  1  0.31197841  0.30930067  0.31160887  1
  Zn  Zn131  1  0.31261054  0.31282941  0.81331014  1
  Zn  Zn132  1  0.31207466  0.81141427  0.31440160  1
  Zn  Zn133  1  0.31144099  0.81312554  0.81430980  1
  Zn  Zn134  1  0.81084778  0.31296137  0.31445092  1
  Zn  Zn135  1  0.81036752  0.31233376  0.81461355  1
  Zn  Zn136  1  0.81106289  0.81250152  0.31037922  1
  Zn  Zn137  1  0.81153624  0.81463056  0.81093278  1
  Zn  Zn138  1  0.18826145  0.43494181  0.43857885  1
  Zn  Zn139  1  0.18828820  0.43996984  0.93805197  1
  Zn  Zn140  1  0.18550853  0.93570231  0.43661957  1
  Zn  Zn141  1  0.18899298  0.93987518  0.93714362  1
  Zn  Zn142  1  0.68907225  0.43600026  0.43602105  1
  Zn  Zn143  1  0.68753879  0.43920943  0.93427440  1
  Zn  Zn144  1  0.68811809  0.93741167  0.43711554  1
  Zn  Zn145  1  0.68907878  0.94258342  0.93290179  1
  Zn  Zn146  1  0.31263827  0.05990849  0.06346214  1
  Zn  Zn147  1  0.31276862  0.06002381  0.56187472  1
  Zn  Zn148  1  0.31141859  0.55951453  0.06185052  1
  Zn  Zn149  1  0.31308591  0.56022675  0.56219745  1
  Zn  Zn150  1  0.81222058  0.06053635  0.06089816  1
  Zn  Zn151  1  0.81270638  0.06450202  0.56297012  1
  Zn  Zn152  1  0.81180055  0.56577053  0.06423171  1
  Zn  Zn153  1  0.81150246  0.56173221  0.56412630  1
  Zn  Zn154  1  0.43818220  0.43644009  0.18612795  1
  Zn  Zn155  1  0.44015872  0.44180537  0.68551134  1
  Zn  Zn156  1  0.43913211  0.93734447  0.18560892  1
  Zn  Zn157  1  0.43712802  0.93683953  0.68712122  1
  Zn  Zn158  1  0.93733202  0.43979015  0.18772691  1
  Zn  Zn159  1  0.93538375  0.43514818  0.68857749  1
  Zn  Zn160  1  0.93616394  0.93466798  0.18518466  1
  Zn  Zn161  1  0.93999569  0.93666690  0.68539761  1
  Zn  Zn162  1  0.06068603  0.06009671  0.31278383  1
  Zn  Zn163  1  0.06726026  0.06378383  0.81275131  1
  Zn  Zn164  1  0.06327722  0.56077001  0.31429799  1
  Zn  Zn165  1  0.06201971  0.56266627  0.81280826  1
  Zn  Zn166  1  0.56289941  0.06135191  0.31324209  1
  Zn  Zn167  1  0.56430740  0.06127132  0.81330252  1
  Zn  Zn168  1  0.55980515  0.56008633  0.31360467  1
  Zn  Zn169  1  0.56139582  0.56493079  0.81180983  1
  Zn  Zn170  1  0.43743201  0.18736448  0.43491157  1
  Zn  Zn171  1  0.43758843  0.18832978  0.93664737  1
  Zn  Zn172  1  0.43833588  0.68769206  0.43632589  1
  Zn  Zn173  1  0.43977734  0.69002450  0.93618161  1
  Zn  Zn174  1  0.93715860  0.18499170  0.44255190  1
  Zn  Zn175  1  0.94234667  0.18992407  0.94054615  1
  Zn  Zn176  1  0.93729566  0.68694238  0.43827693  1
  Zn  Zn177  1  0.93815178  0.69387815  0.93866137  1
  Zn  Zn178  1  0.06031119  0.31408485  0.06266530  1
  Zn  Zn179  1  0.06105382  0.30941944  0.56283083  1
  Zn  Zn180  1  0.05482285  0.81374637  0.06293627  1
  Zn  Zn181  1  0.06226638  0.81341976  0.55838110  1
  Zn  Zn182  1  0.56006958  0.31210586  0.06380207  1
  Zn  Zn183  1  0.56409553  0.31192255  0.56555978  1
  Zn  Zn184  1  0.55917947  0.81323619  0.06194554  1
  Zn  Zn185  1  0.56433274  0.81123504  0.56363563  1
  O  O186  1  0.11900904  0.11634045  0.12421312  1
  O  O187  1  0.11994055  0.12047373  0.62064275  1
  O  O188  1  0.12497525  0.61894304  0.11666298  1
  O  O189  1  0.11943239  0.61800151  0.62010399  1
  O  O190  1  0.62093667  0.12042515  0.11526321  1
  O  O191  1  0.61812017  0.12014245  0.61935297  1
  O  O192  1  0.62062474  0.62176011  0.12009156  1
  O  O193  1  0.61865974  0.62687748  0.61425578  1
  O  O194  1  0.37302304  0.37778299  0.38429798  1
  O  O195  1  0.37534681  0.38134114  0.88377718  1
  O  O196  1  0.38050887  0.87545011  0.38583462  1
  O  O197  1  0.37527644  0.87573965  0.88647749  1
  O  O198  1  0.88204584  0.38212575  0.37621617  1
  O  O199  1  0.88005070  0.38169032  0.88075267  1
  O  O200  1  0.88134802  0.88156513  0.37432283  1
  O  O201  1  0.87682397  0.87121613  0.88837381  1
  O  O202  1  0.24887784  0.00404990  0.36468967  1
  O  O203  1  0.25132217  0.01134774  0.86716977  1
  O  O204  1  0.25426501  0.50448186  0.37008843  1
  O  O205  1  0.25448610  0.50877386  0.86957103  1
  O  O206  1  0.75983171  -0.00045697  0.36797549  1
  O  O207  1  0.74584969  0.01204050  0.86316771  1
  O  O208  1  0.75608692  0.50594583  0.36980930  1
  O  O209  1  0.75649820  0.51200542  0.87226265  1
  O  O210  1  0.24390391  0.49263603  0.13159138  1
  O  O211  1  0.24360699  0.49465998  0.63001111  1
  O  O212  1  0.23975231  0.99999067  0.13339700  1
  O  O213  1  0.24482797  0.99372516  0.63049172  1
  O  O214  1  0.74252922  0.49960225  0.13126271  1
  O  O215  1  0.74605468  0.49773958  0.63047182  1
  O  O216  1  0.74267271  0.99891184  0.13161198  1
  O  O217  1  0.74464270  0.99761210  0.63157001  1
  O  O218  1  0.00534386  0.36971800  0.25602785  1
  O  O219  1  0.00727562  0.37596407  0.75896050  1
  O  O220  1  0.00186855  0.87831847  0.26399362  1
  O  O221  1  0.00716370  0.87034975  0.75047290  1
  O  O222  1  0.50902615  0.36887122  0.24863417  1
  O  O223  1  0.50598928  0.36671132  0.74929539  1
  O  O224  1  0.50667096  0.87381473  0.25654190  1
  O  O225  1  0.50692076  0.86741298  0.74800600  1
  O  O226  1  0.49494426  0.12840205  0.24341322  1
  O  O227  1  0.49605330  0.13295638  0.74445266  1
  O  O228  1  0.49279574  0.62504361  0.24310168  1
  O  O229  1  0.49980147  0.63359684  0.74091622  1
  O  O230  1  0.99413249  0.13044405  0.24499977  1
  O  O231  1  1.00756312  0.12578930  0.73594021  1
  O  O232  1  0.98659200  0.61727895  0.25038270  1
  O  O233  1  0.99553853  0.63084810  0.74444687  1
  O  O234  1  0.38143261  0.26285496  0.00604863  1
  O  O235  1  0.37361897  0.25757869  0.50628352  1
  O  O236  1  0.37406364  0.75622526  0.00865181  1
  O  O237  1  0.36389673  0.75791780  0.49332247  1
  O  O238  1  0.87141650  0.25715904  0.00610519  1
  O  O239  1  0.86599663  0.25031167  0.50845837  1
  O  O240  1  0.87934276  0.76692909  0.00685050  1
  O  O241  1  0.86702936  0.74847021  0.50710138  1
  O  O242  1  0.12739227  0.24279078  0.49350966  1
  O  O243  1  0.12070895  0.25045633  0.98715264  1
  O  O244  1  0.13384768  0.74354279  0.49132169  1
  O  O245  1  0.12515489  0.73892514  1.00072711  1
  O  O246  1  0.63331513  0.24412086  0.50128737  1
  O  O247  1  0.63105612  0.24122977  1.00184862  1
  O  O248  1  0.63037384  0.74139708  0.49387682  1
  O  O249  1  0.61699318  0.74447318  0.98721192  1
  O  O250  1  0.49223017  0.24322894  0.13110342  1
  O  O251  1  0.49409856  0.24419388  0.63406911  1
  O  O252  1  0.48903799  0.74285168  0.12682885  1
  O  O253  1  0.50779233  0.74103558  0.63503833  1
  O  O254  1  0.99468580  0.24537661  0.13138656  1
  O  O255  1  0.99289434  0.24195320  0.62752065  1
  O  O256  1  0.98403671  0.74788233  0.12432602  1
  O  O257  1  0.99556274  0.74431275  0.62904947  1
  O  O258  1  0.00392651  0.25383950  0.37058763  1
  O  O259  1  0.00876527  0.25719179  0.87370560  1
  O  O260  1  0.01084599  0.75611912  0.38206121  1
  O  O261  1  0.00355469  0.75324379  0.86449009  1
  O  O262  1  0.50297793  0.25251794  0.36551093  1
  O  O263  1  0.50098071  0.25148789  0.86091005  1
  O  O264  1  0.50701800  0.75595394  0.37257734  1
  O  O265  1  0.51136828  0.75009771  0.86447818  1
  O  O266  1  0.24439509  0.12487449  0.49342711  1
  O  O267  1  0.24889079  0.11914494  0.98658000  1
  O  O268  1  0.24600002  0.63069446  0.49603483  1
  O  O269  1  0.24016389  0.62274268  0.99212967  1
  O  O270  1  0.74298910  0.13379456  0.49972954  1
  O  O271  1  0.74402802  0.12888098  0.99233547  1
  O  O272  1  0.74182573  0.63037659  0.49495498  1
  O  O273  1  0.74370698  0.62196423  0.98707461  1
  O  O274  1  0.26249638  0.38338263  0.00703627  1
  O  O275  1  0.25945662  0.37215286  0.50674793  1
  O  O276  1  0.25977335  0.87328891  0.00308595  1
  O  O277  1  0.25642913  0.86762627  0.50323473  1
  O  O278  1  0.75586592  0.36909548  -0.00045626  1
  O  O279  1  0.75003806  0.36316693  0.50202681  1
  O  O280  1  0.76546933  0.88566623  -0.00007598  1
  O  O281  1  0.75027929  0.86818415  0.50727328  1
  O  O282  1  0.13024700  0.49350828  0.24588179  1
  O  O283  1  0.13051543  0.49487557  0.74482047  1
  O  O284  1  0.13214308  0.99981274  0.24088143  1
  O  O285  1  0.13209337  0.99398910  0.74328040  1
  O  O286  1  0.62884877  0.49317424  0.24514017  1
  O  O287  1  0.62424648  0.48988150  0.75090236  1
  O  O288  1  0.63001032  0.99481338  0.24401382  1
  O  O289  1  0.63045574  0.99493755  0.74252527  1
  O  O290  1  0.36445843  0.00426973  0.24859828  1
  O  O291  1  0.36845018  0.00697955  0.74906810  1
  O  O292  1  0.36901546  0.50300461  0.25449698  1
  O  O293  1  0.36853544  0.50233556  0.75623154  1
  O  O294  1  0.87064831  0.00426403  0.25671808  1
  O  O295  1  0.86189691  -0.00293432  0.74433459  1
  O  O296  1  0.86893995  0.50719984  0.25542306  1
  O  O297  1  0.87637530  0.50873970  0.75849735  1
  O  O298  1  0.12010106  0.36879480  0.36951216  1
  O  O299  1  0.12193733  0.37062382  0.87213650  1
  O  O300  1  0.11770715  0.86532800  0.37382144  1
  O  O301  1  0.12506496  0.87426625  0.86569009  1
  O  O302  1  0.62302313  0.37373934  0.36134515  1
  O  O303  1  0.62072669  0.37201454  0.86557535  1
  O  O304  1  0.61996283  0.86955220  0.36991201  1
  O  O305  1  0.62610036  0.86712135  0.86964453  1
  O  O306  1  0.37923287  0.12932527  0.12924045  1
  O  O307  1  0.37996980  0.12981198  0.63012093  1
  O  O308  1  0.37864834  0.63051518  0.12852366  1
  O  O309  1  0.38793742  0.62214298  0.62419017  1
  O  O310  1  0.88029874  0.13051428  0.13042796  1
  O  O311  1  0.88688546  0.13373621  0.61854409  1
  O  O312  1  0.87661427  0.63138463  0.13310529  1
  O  O313  1  0.88052756  0.63097511  0.63127658  1
  O  O314  1  0.25712632  0.25712284  0.13215554  1
  O  O315  1  0.25637344  0.25649683  0.62622025  1
  O  O316  1  0.26154595  0.74993650  0.12264260  1
  O  O317  1  0.24285217  0.75436718  0.61105550  1
  O  O318  1  0.75803406  0.25113136  0.11735238  1
  O  O319  1  0.75867324  0.24869142  0.61718587  1
  O  O320  1  0.76557241  0.75164831  0.12521511  1
  O  O321  1  0.75450015  0.75603449  0.62195904  1
  O  O322  1  0.24158484  0.24108649  0.37414063  1
  O  O323  1  0.24142256  0.24160478  0.86959353  1
  O  O324  1  0.24259094  0.74403131  0.38501844  1
  O  O325  1  0.24655888  0.73738752  0.87662495  1
  O  O326  1  0.74886781  0.24657754  0.38673359  1
  O  O327  1  0.74775662  0.24070597  0.88145767  1
  O  O328  1  0.74453325  0.74420419  0.38091647  1
  O  O329  1  0.73858393  0.74193323  0.86833039  1
  O  O330  1  0.00148968  0.11687382  0.00827274  1
  O  O331  1  0.00849382  0.12204460  0.51061347  1
  O  O332  1  0.01033164  0.62059911  -0.00101767  1
  O  O333  1  0.00592433  0.61885009  0.50605342  1
  O  O334  1  0.50946040  0.12668447  0.00524796  1
  O  O335  1  0.50333170  0.11921983  0.50562886  1
  O  O336  1  0.50577978  0.61973330  0.00548755  1
  O  O337  1  0.50858860  0.62762630  0.50631678  1
  O  O338  1  0.48783330  0.37479468  0.50115139  1
  O  O339  1  0.49000309  0.38201947  1.00008494  1
  O  O340  1  0.49356348  0.87732393  0.49696230  1
  O  O341  1  0.48821033  0.87644464  0.99709673  1
  O  O342  1  1.00041447  0.38122037  0.49348897  1
  O  O343  1  0.99383734  0.38262607  0.99460620  1
  O  O344  1  0.99692671  0.87779013  0.48727210  1
  O  O345  1  0.99111113  0.88457087  0.99651471  1
  O  O346  1  0.49057807  0.49531498  0.37927070  1
  O  O347  1  0.49281878  0.50154966  0.88167647  1
  O  O348  1  0.49876570  0.99189282  0.38247899  1
  O  O349  1  0.49558795  0.99666802  0.87707585  1
  O  O350  1  0.99614292  0.49402886  0.38141137  1
  O  O351  1  0.99451322  0.49632161  0.88202737  1
  O  O352  1  0.99053575  0.99168215  0.37596318  1
  O  O353  1  1.00768167  1.00229906  0.88931428  1
  O  O354  1  0.00777641  0.00470357  0.12081047  1
  O  O355  1  0.00657303  0.00737318  0.62266188  1
  O  O356  1  0.00738697  0.50249105  0.11880185  1
  O  O357  1  0.00487869  0.50502754  0.62056855  1
  O  O358  1  0.50771241  0.00773559  0.12240264  1
  O  O359  1  0.50565849  0.00493650  0.61938826  1
  O  O360  1  0.50539731  0.50625954  0.11951214  1
  O  O361  1  0.50599948  0.51280587  0.62113560  1
  O  O362  1  0.24365385  0.37916131  0.24498165  1
  O  O363  1  0.24450419  0.38130629  0.74528394  1
  O  O364  1  0.24763815  0.88533788  0.24885499  1
  O  O365  1  0.24657269  0.87915884  0.74359223  1
  O  O366  1  0.74057338  0.38061752  0.24827885  1
  O  O367  1  0.73801363  0.37591446  0.75058764  1
  O  O368  1  0.74195849  0.88188012  0.24778286  1
  O  O369  1  0.74477335  0.88447829  0.74484734  1
  O  O370  1  0.25413055  0.11467096  0.25458623  1
  O  O371  1  0.25544990  0.12033236  0.75727167  1
  O  O372  1  0.25595189  0.61650116  0.25600838  1
  O  O373  1  0.25085153  0.62028288  0.75802600  1
  O  O374  1  0.75662693  0.11789271  0.25142135  1
  O  O375  1  0.74437448  0.11797555  0.75947016  1
  O  O376  1  0.75753528  0.61862428  0.25649394  1
  O  O377  1  0.75604989  0.62612906  0.76100282  1
  O  O378  1  0.36804799  0.12163399  0.36728618  1
  O  O379  1  0.36649178  0.12688387  0.86868204  1
  O  O380  1  0.36934189  0.61885928  0.37019546  1
  O  O381  1  0.36416157  0.61988432  0.87667756  1
  O  O382  1  0.87617874  0.11434303  0.36904007  1
  O  O383  1  0.86456778  0.13006065  0.88017853  1
  O  O384  1  0.87015624  0.62054501  0.36853579  1
  O  O385  1  0.86805563  0.62429940  0.87263496  1
  O  O386  1  0.12896234  0.37909911  0.13088313  1
  O  O387  1  0.12943566  0.37937331  0.63013254  1
  O  O388  1  0.12439943  0.88365940  0.12790048  1
  O  O389  1  0.13108457  0.88026889  0.62925368  1
  O  O390  1  0.62553712  0.38186516  0.13425285  1
  O  O391  1  0.62663049  0.37736748  0.63641712  1
  O  O392  1  0.62579007  0.88025413  0.12899557  1
  O  O393  1  0.63202524  0.88082417  0.62981130  1
  O  O394  1  0.11753176  0.25402955  0.25562989  1
  O  O395  1  0.12223315  0.25778227  0.76191792  1
  O  O396  1  0.13365628  0.74732269  0.26498874  1
  O  O397  1  0.11880994  0.75708378  0.74916939  1
  O  O398  1  0.62042836  0.25827172  0.24737541  1
  O  O399  1  0.61536377  0.25768872  0.74842717  1
  O  O400  1  0.62475063  0.75570375  0.25549227  1
  O  O401  1  0.61778487  0.75672025  0.75822171  1
  O  O402  1  0.38037370  0.24314295  0.24338377  1
  O  O403  1  0.38319526  0.24640423  0.74488106  1
  O  O404  1  0.37430248  0.74297300  0.24132729  1
  O  O405  1  0.38994092  0.74931943  0.75654430  1
  O  O406  1  0.87956028  0.24524161  0.24592158  1
  O  O407  1  0.87598896  0.25467803  0.73767743  1
  O  O408  1  0.87001593  0.73782145  0.24472205  1
  O  O409  1  0.88123174  0.74600705  0.74415700  1
  O  O410  1  0.37411952  0.48876027  0.49444118  1
  O  O411  1  0.38066856  0.49213760  0.99595183  1
  O  O412  1  0.38092587  0.98916481  0.49774030  1
  O  O413  1  0.37726378  0.98885935  1.00085594  1
  O  O414  1  0.88167714  0.50053536  0.49309730  1
  O  O415  1  0.87936017  0.49703294  0.99533396  1
  O  O416  1  0.87408922  0.99852399  0.48713106  1
  O  O417  1  0.88654707  0.98747112  1.00923714  1
  O  O418  1  0.11765954  0.00054561  0.01179520  1
  O  O419  1  0.12551972  0.00573679  0.50690036  1
  O  O420  1  0.11991650  0.50787311  0.00544431  1
  O  O421  1  0.12045186  0.50464305  0.50550170  1
  O  O422  1  0.62552937  0.01113185  0.00497817  1
  O  O423  1  0.61990494  0.00440695  0.50630837  1
  O  O424  1  0.61979995  0.50658845  0.00475436  1
  O  O425  1  0.62454129  0.51310384  0.49707217  1
  O  O426  1  0.36961410  0.37006852  0.11833655  1
  O  O427  1  0.37022644  0.37132458  0.61807390  1
  O  O428  1  0.37469309  0.86512895  0.11847888  1
  O  O429  1  0.36849794  0.87817030  0.61146194  1
  O  O430  1  0.87397829  0.36979676  0.11895470  1
  O  O431  1  0.87453393  0.36391667  0.62105545  1
  O  O432  1  0.87267807  0.86828091  0.11713868  1
  O  O433  1  0.86903900  0.86818134  0.62210739  1
  O  O434  1  0.12814374  0.12824861  0.38010357  1
  O  O435  1  0.13386399  0.13522707  0.87645696  1
  O  O436  1  0.13027120  0.62972643  0.38098090  1
  O  O437  1  0.13397801  0.62325783  0.88370589  1
  O  O438  1  0.62718145  0.12616764  0.38376316  1
  O  O439  1  0.62948038  0.12866306  0.88679171  1
  O  O440  1  0.62918216  0.62931332  0.38163656  1
  O  O441  1  0.63198411  0.63297506  0.87876078  1
