# generated using pymatgen
data_V93Zn93O256
_symmetry_space_group_name_H-M   'P 1'
_cell_length_a   17.04951151
_cell_length_b   17.05458044
_cell_length_c   17.05153822
_cell_angle_alpha   90.06401974
_cell_angle_beta   89.94292853
_cell_angle_gamma   89.95796334
_symmetry_Int_Tables_number   1
_chemical_formula_structural   V93Zn93O256
_chemical_formula_sum   'V93 Zn93 O256'
_cell_volume   4958.10750402
_cell_formula_units_Z   1
loop_
 _symmetry_equiv_pos_site_id
 _symmetry_equiv_pos_as_xyz
  1  'x, y, z'
loop_
 _atom_site_type_symbol
 _atom_site_label
 _atom_site_symmetry_multiplicity
 _atom_site_fract_x
 _atom_site_fract_y
 _atom_site_fract_z
 _atom_site_occupancy
  V  V0  1  0.37450794  0.62529040  0.74944506  1
  V  V1  1  0.38319130  0.62955842  0.24937300  1
  V  V2  1  0.75189107  0.25126548  0.00082656  1
  V  V3  1  0.61774165  0.75563963  0.87308876  1
  V  V4  1  0.87226585  0.36140868  0.50289135  1
  V  V5  1  0.12692917  0.25033774  0.37386435  1
  V  V6  1  0.62282541  0.25260779  0.87429063  1
  V  V7  1  0.74982804  0.62495914  0.37612064  1
  V  V8  1  0.38109672  0.24654649  0.12321620  1
  V  V9  1  -0.00335043  0.75407305  0.75255775  1
  V  V10  1  0.12466929  0.12421796  0.50003417  1
  V  V11  1  0.87202878  0.87432598  0.50228577  1
  V  V12  1  0.00099390  0.49945236  0.00003585  1
  V  V13  1  0.62635888  0.49935205  0.62554370  1
  V  V14  1  0.12381517  0.37510165  0.74953796  1
  V  V15  1  0.25113838  0.62498341  0.37486293  1
  V  V16  1  0.24993026  0.12535127  0.87467386  1
  V  V17  1  0.12170373  0.75384996  0.87554721  1
  V  V18  1  0.37496680  -0.00017383  0.37291551  1
  V  V19  1  0.25232486  0.12523274  0.37370236  1
  V  V20  1  0.75036353  0.12735143  0.37737531  1
  V  V21  1  0.87433108  0.12892305  0.74472258  1
  V  V22  1  0.00056859  -0.00545849  -0.00357796  1
  V  V23  1  0.50165962  0.50283647  0.00119409  1
  V  V24  1  0.49956815  0.62764352  0.62648081  1
  V  V25  1  0.00175998  0.24860852  0.24942386  1
  V  V26  1  0.00127384  0.62528225  0.12563000  1
  V  V27  1  0.37568051  0.37482414  0.49829078  1
  V  V28  1  0.37939825  0.87330145  -0.00627019  1
  V  V29  1  0.12593839  0.87440215  0.24913195  1
  V  V30  1  0.50161772  0.00513601  0.00484113  1
  V  V31  1  0.24649170  0.87648883  0.62363213  1
  V  V32  1  0.12674655  0.37563097  0.24975203  1
  V  V33  1  0.50333846  0.24715960  0.24718872  1
  V  V34  1  0.00150083  0.12468243  0.12471137  1
  V  V35  1  0.25034942  0.24955053  0.49940853  1
  V  V36  1  0.37351479  0.12555441  0.74877752  1
  V  V37  1  0.12444354  0.50102935  0.62451420  1
  V  V38  1  0.87516312  0.62411636  0.75026043  1
  V  V39  1  0.12554465  0.24952424  0.87509604  1
  V  V40  1  0.62742776  0.37407651  0.25198531  1
  V  V41  1  0.24939540  0.50006439  0.74994690  1
  V  V42  1  0.12432976  0.62462359  0.50061626  1
  V  V43  1  0.87454317  0.50010234  0.87488050  1
  V  V44  1  0.87651480  0.12430134  0.25028360  1
  V  V45  1  0.37584037  0.37572867  -0.00066217  1
  V  V46  1  0.75052742  -0.00110213  0.25026940  1
  V  V47  1  0.87443985  -0.00030507  0.37586883  1
  V  V48  1  0.38164983  0.12374022  0.24534740  1
  V  V49  1  0.74804744  0.12452010  0.88050217  1
  V  V50  1  0.25133121  0.50026226  0.24892200  1
  V  V51  1  0.49872954  0.12554332  0.62391018  1
  V  V52  1  0.37935679  -0.00376331  0.87118173  1
  V  V53  1  0.12459788  0.74955832  0.37422534  1
  V  V54  1  0.37659223  0.49939267  0.37386257  1
  V  V55  1  0.37524881  0.24979820  0.62500391  1
  V  V56  1  0.74980630  0.49987459  0.75045663  1
  V  V57  1  0.74968415  0.75034565  0.50166478  1
  V  V58  1  -0.00020444  0.37541238  0.37636285  1
  V  V59  1  0.12596579  0.62534913  -0.00058636  1
  V  V60  1  0.62563960  0.50127296  0.12534406  1
  V  V61  1  0.00020830  -0.00040420  0.50214021  1
  V  V62  1  0.62969547  0.24930143  0.37692074  1
  V  V63  1  0.87831010  -0.00597509  0.87620422  1
  V  V64  1  0.49946668  0.00019091  0.49914962  1
  V  V65  1  0.50171884  0.37443962  0.37506185  1
  V  V66  1  0.62913072  0.12783317  0.49990051  1
  V  V67  1  -0.00014436  0.62500266  0.62576848  1
  V  V68  1  0.00120235  0.75028874  0.25040843  1
  V  V69  1  0.24885718  0.75040673  0.49952569  1
  V  V70  1  0.00007556  0.37448527  0.87477312  1
  V  V71  1  0.87610531  0.37433917  0.00080164  1
  V  V72  1  0.12699214  0.50004005  0.12541177  1
  V  V73  1  0.12535254  0.12512427  -0.00050468  1
  V  V74  1  0.25077423  0.87568437  0.12462202  1
  V  V75  1  0.12018965  0.87724583  0.75232555  1
  V  V76  1  0.87468878  0.75038188  0.12453218  1
  V  V77  1  0.74693043  -0.00361131  0.75001819  1
  V  V78  1  0.62503181  0.62589451  0.50068792  1
  V  V79  1  0.62136727  0.74975710  0.37344712  1
  V  V80  1  0.87595393  0.62506098  0.25142421  1
  V  V81  1  0.75096516  0.49969233  0.25134743  1
  V  V82  1  0.75335750  0.36174154  0.62147519  1
  V  V83  1  0.49944174  0.87053515  0.37249491  1
  V  V84  1  0.75255850  0.37477202  0.12626247  1
  V  V85  1  -0.00541942  0.25040349  0.74380469  1
  V  V86  1  0.24884285  0.62429087  0.87394146  1
  V  V87  1  0.37318648  0.87469623  0.49787914  1
  V  V88  1  0.24998306  0.37498981  0.62440425  1
  V  V89  1  0.62023720  0.87014803  0.24913114  1
  V  V90  1  0.38328026  0.75062113  0.12719302  1
  V  V91  1  0.87559749  0.49894180  0.37767259  1
  V  V92  1  0.75114930  0.87529364  0.12216166  1
  Zn  Zn93  1  0.50022915  0.49916062  0.49990541  1
  Zn  Zn94  1  0.87898930  0.87168250  -0.00350455  1
  Zn  Zn95  1  0.49913593  0.25212198  0.75055382  1
  Zn  Zn96  1  0.74829011  0.62645737  0.87871119  1
  Zn  Zn97  1  0.62301772  0.37284166  0.74738178  1
  Zn  Zn98  1  0.37728821  0.49978042  0.87529206  1
  Zn  Zn99  1  -0.00187233  0.49916863  0.50169432  1
  Zn  Zn100  1  0.12579169  0.00055713  0.12482752  1
  Zn  Zn101  1  0.50549986  0.63083098  0.12834115  1
  Zn  Zn102  1  0.24677143  0.00067060  0.75014413  1
  Zn  Zn103  1  0.24869590  0.00184705  0.24862760  1
  Zn  Zn104  1  0.62324796  -0.00148652  0.62578961  1
  Zn  Zn105  1  0.50078805  0.37786982  0.87090479  1
  Zn  Zn106  1  0.49338831  0.75875275  0.75596037  1
  Zn  Zn107  1  0.62778751  0.62837515  0.00065425  1
  Zn  Zn108  1  0.75130141  0.74767190  -0.00323945  1
  Zn  Zn109  1  0.25147969  0.37435738  0.12470086  1
  Zn  Zn110  1  0.12222601  0.00357809  0.62755925  1
  Zn  Zn111  1  0.62006473  0.00538132  0.13051217  1
  Zn  Zn112  1  -0.00016891  0.87403466  0.37440360  1
  Zn  Zn113  1  0.87615183  0.24954290  0.12562037  1
  Zn  Zn114  1  0.25057196  0.25075446  0.00153735  1
  Zn  Zn115  1  -0.00325277  0.13052908  0.62180286  1
  Zn  Zn116  1  0.74323304  0.87244213  0.62807794  1
  Zn  Zn117  1  0.60636248  0.88189974  0.75138172  1
  Zn  Zn118  1  0.61194614  0.13667797  0.01259328  1
  Zn  Zn119  1  0.37508626  0.75168525  0.62467695  1
  Zn  Zn120  1  0.87186672  0.74913530  0.62645376  1
  Zn  Zn121  1  0.25137927  0.74960120  -0.00136992  1
  Zn  Zn122  1  0.19224526  0.18777446  0.18497646  1
  Zn  Zn123  1  0.18553266  0.18713512  0.68720109  1
  Zn  Zn124  1  0.19263442  0.68882390  0.18684888  1
  Zn  Zn125  1  0.18630813  0.68962658  0.68747360  1
  Zn  Zn126  1  0.68959996  0.18579457  0.18705290  1
  Zn  Zn127  1  0.68447107  0.18169164  0.69055444  1
  Zn  Zn128  1  0.68859539  0.68837547  0.18676917  1
  Zn  Zn129  1  0.68689422  0.68916655  0.69084295  1
  Zn  Zn130  1  0.31438518  0.31173052  0.31012665  1
  Zn  Zn131  1  0.31251038  0.31237737  0.81345481  1
  Zn  Zn132  1  0.31207068  0.81144367  0.31065589  1
  Zn  Zn133  1  0.30824636  0.81180068  0.81042677  1
  Zn  Zn134  1  0.81437813  0.31058453  0.31529521  1
  Zn  Zn135  1  0.81025436  0.31410986  0.81151254  1
  Zn  Zn136  1  0.81051608  0.81255525  0.31312770  1
  Zn  Zn137  1  0.80705282  0.81116297  0.81501045  1
  Zn  Zn138  1  0.18828459  0.43872811  0.43694262  1
  Zn  Zn139  1  0.18967622  0.43712039  0.93716632  1
  Zn  Zn140  1  0.18656823  0.93855752  0.43445502  1
  Zn  Zn141  1  0.19062879  0.93882968  0.93752431  1
  Zn  Zn142  1  0.69069667  0.43597724  0.44103026  1
  Zn  Zn143  1  0.68713348  0.43675021  0.93822184  1
  Zn  Zn144  1  0.68619928  0.93894494  0.43683363  1
  Zn  Zn145  1  0.68666748  0.93430686  0.93532987  1
  Zn  Zn146  1  0.31310250  0.06182753  0.06017507  1
  Zn  Zn147  1  0.31180073  0.06111422  0.56196631  1
  Zn  Zn148  1  0.31336160  0.56408267  0.06305106  1
  Zn  Zn149  1  0.31250225  0.56122054  0.56179105  1
  Zn  Zn150  1  0.81382142  0.06160216  0.06453459  1
  Zn  Zn151  1  0.81035550  0.06231502  0.56451850  1
  Zn  Zn152  1  0.81212943  0.56344949  0.06250021  1
  Zn  Zn153  1  0.81409192  0.55899518  0.56274846  1
  Zn  Zn154  1  0.43928266  0.43632449  0.18636206  1
  Zn  Zn155  1  0.43864168  0.43696546  0.68832600  1
  Zn  Zn156  1  0.43733287  0.93679978  0.18575475  1
  Zn  Zn157  1  0.43504484  0.93893176  0.68462603  1
  Zn  Zn158  1  0.93903249  0.43728024  0.18850687  1
  Zn  Zn159  1  0.93516448  0.43643316  0.68450017  1
  Zn  Zn160  1  0.93904967  0.93801238  0.18512321  1
  Zn  Zn161  1  0.93353811  0.93932858  0.68709729  1
  Zn  Zn162  1  0.06384094  0.05985201  0.31290952  1
  Zn  Zn163  1  0.06040761  0.06454952  0.81358255  1
  Zn  Zn164  1  0.06269128  0.56157059  0.31353903  1
  Zn  Zn165  1  0.06159219  0.56394292  0.81217863  1
  Zn  Zn166  1  0.56326420  0.05912928  0.31356869  1
  Zn  Zn167  1  0.56022988  0.06573381  0.81551532  1
  Zn  Zn168  1  0.56337893  0.56092296  0.31334012  1
  Zn  Zn169  1  0.56327811  0.56780431  0.81632829  1
  Zn  Zn170  1  0.44035606  0.18785612  0.43551282  1
  Zn  Zn171  1  0.43600409  0.18621919  0.93562501  1
  Zn  Zn172  1  0.43816314  0.68782617  0.43922838  1
  Zn  Zn173  1  0.43783653  0.68596816  0.93923471  1
  Zn  Zn174  1  0.93964811  0.18568132  0.43454425  1
  Zn  Zn175  1  0.93740224  0.18511253  0.93514883  1
  Zn  Zn176  1  0.93803560  0.68775718  0.43847368  1
  Zn  Zn177  1  0.93695758  0.68700717  0.93746338  1
  Zn  Zn178  1  0.06332972  0.31146568  0.06337687  1
  Zn  Zn179  1  0.06160723  0.31410356  0.56047464  1
  Zn  Zn180  1  0.06299166  0.81245644  0.06353008  1
  Zn  Zn181  1  0.06025916  0.81221406  0.56442408  1
  Zn  Zn182  1  0.56288266  0.31669971  0.06263947  1
  Zn  Zn183  1  0.56313970  0.31169823  0.56227066  1
  Zn  Zn184  1  0.56418060  0.81734041  0.05694369  1
  Zn  Zn185  1  0.56320008  0.81523381  0.56476870  1
  O  O186  1  0.12092626  0.12395639  0.11821786  1
  O  O187  1  0.12138967  0.12279975  0.61598810  1
  O  O188  1  0.12113428  0.62097865  0.11994709  1
  O  O189  1  0.12046801  0.62059280  0.62058156  1
  O  O190  1  0.63630914  0.11614279  0.11931490  1
  O  O191  1  0.61852441  0.12302567  0.61556179  1
  O  O192  1  0.62300720  0.61754205  0.12527369  1
  O  O193  1  0.61823485  0.61780333  0.62195348  1
  O  O194  1  0.38132988  0.37909893  0.37839412  1
  O  O195  1  0.37700522  0.37644333  0.88651503  1
  O  O196  1  0.37867270  0.87909512  0.37806237  1
  O  O197  1  0.36228543  0.88368150  0.88357540  1
  O  O198  1  0.87964349  0.37955224  0.38242176  1
  O  O199  1  0.88055237  0.38096661  0.88059001  1
  O  O200  1  0.87527377  0.88049623  0.38554045  1
  O  O201  1  0.86881168  0.89057966  0.87654138  1
  O  O202  1  0.25772909  0.00694118  0.37296969  1
  O  O203  1  0.26031093  0.00758780  0.87399934  1
  O  O204  1  0.25652882  0.50600500  0.36908077  1
  O  O205  1  0.25089583  0.50677086  0.86690785  1
  O  O206  1  0.75574377  0.00606070  0.36948173  1
  O  O207  1  0.75599804  0.00814527  0.87124772  1
  O  O208  1  0.75483932  0.50572201  0.37009592  1
  O  O209  1  0.75528126  0.49783438  0.86429802  1
  O  O210  1  0.24387424  0.49973968  0.13148924  1
  O  O211  1  0.24405526  0.49424940  0.63007977  1
  O  O212  1  0.25049155  0.98728924  0.12568777  1
  O  O213  1  0.24551807  0.98768206  0.62482233  1
  O  O214  1  0.74641969  0.49406491  0.13263263  1
  O  O215  1  0.74159610  0.49596651  0.63264499  1
  O  O216  1  0.75278702  0.98855228  0.13217113  1
  O  O217  1  0.74709042  1.00184380  0.63938897  1
  O  O218  1  0.00672168  0.36943918  0.25605536  1
  O  O219  1  0.00315816  0.36912008  0.75500321  1
  O  O220  1  0.00690757  0.86785964  0.25034742  1
  O  O221  1  0.00817220  0.86568687  0.74222363  1
  O  O222  1  0.50792115  0.36899346  0.25584105  1
  O  O223  1  0.50423108  0.37080879  0.75294513  1
  O  O224  1  0.51210022  0.88140803  0.25553483  1
  O  O225  1  0.49342771  0.87063540  0.74724465  1
  O  O226  1  0.48897725  0.13012884  0.25710629  1
  O  O227  1  0.49185559  0.12701921  0.74225372  1
  O  O228  1  0.48663243  0.61984987  0.24908265  1
  O  O229  1  0.48961191  0.62402381  0.74174232  1
  O  O230  1  0.99666466  0.12870523  0.24591701  1
  O  O231  1  0.99146422  0.13365740  0.74964903  1
  O  O232  1  0.99573409  0.62974512  0.24499417  1
  O  O233  1  0.99560356  0.63417003  0.74539468  1
  O  O234  1  0.37764140  0.25751489  0.00737058  1
  O  O235  1  0.36938296  0.25497406  0.50381902  1
  O  O236  1  0.37257350  0.75752958  0.00570157  1
  O  O237  1  0.36622035  0.75640466  0.50101225  1
  O  O238  1  0.87017325  0.25711470  -0.00049067  1
  O  O239  1  0.88028974  0.26214739  0.49503534  1
  O  O240  1  0.87601149  0.75382308  0.00790481  1
  O  O241  1  0.86938349  0.75901062  0.49991521  1
  O  O242  1  0.13050937  0.24532705  0.49365571  1
  O  O243  1  0.12586901  0.24408960  0.99261045  1
  O  O244  1  0.12896835  0.74454954  0.49468584  1
  O  O245  1  0.12382435  0.74521930  0.99010741  1
  O  O246  1  0.61826437  0.23559408  0.49276409  1
  O  O247  1  0.63256124  0.25229492  0.99265579  1
  O  O248  1  0.63048596  0.74442529  0.49457498  1
  O  O249  1  0.62640367  0.75061134  0.98831395  1
  O  O250  1  0.49008093  0.25517093  0.13116715  1
  O  O251  1  0.49209919  0.24305864  0.62440982  1
  O  O252  1  0.48647465  0.75190874  0.11859032  1
  O  O253  1  0.49852830  0.73550117  0.62540115  1
  O  O254  1  0.99939831  0.24315719  0.13215033  1
  O  O255  1  1.00395151  0.25161322  0.64005080  1
  O  O256  1  0.99585509  0.74388196  0.13095948  1
  O  O257  1  0.99796728  0.74374731  0.63645094  1
  O  O258  1  0.00837574  0.25501427  0.36866504  1
  O  O259  1  0.00568851  0.25549396  0.86631224  1
  O  O260  1  0.00706311  0.74986727  0.36801575  1
  O  O261  1  0.01021315  0.74495802  0.86409963  1
  O  O262  1  0.50822701  0.25584255  0.36769659  1
  O  O263  1  0.51228270  0.24963007  0.87650917  1
  O  O264  1  0.50856270  0.75780816  0.38185150  1
  O  O265  1  0.51274731  0.74390118  0.87499154  1
  O  O266  1  0.24559887  0.13057840  0.49370091  1
  O  O267  1  0.24390173  0.12650908  0.99282122  1
  O  O268  1  0.24484856  0.63015021  0.49481493  1
  O  O269  1  0.24320771  0.62620851  0.99312325  1
  O  O270  1  0.73793204  0.11643422  0.49328701  1
  O  O271  1  0.75556296  0.13058442  0.98878834  1
  O  O272  1  0.74510747  0.62953001  0.49508895  1
  O  O273  1  0.74726500  0.62760293  0.99812301  1
  O  O274  1  0.26229332  0.37420234  0.00211655  1
  O  O275  1  0.25504330  0.36909568  0.50438078  1
  O  O276  1  0.25922560  0.87416465  0.00881890  1
  O  O277  1  0.25181787  0.87049205  0.50525224  1
  O  O278  1  0.75713421  0.37137211  0.00640940  1
  O  O279  1  0.75972482  0.37786283  0.50945641  1
  O  O280  1  0.75242206  0.87598935  0.01327210  1
  O  O281  1  0.75775199  0.87041998  0.49919265  1
  O  O282  1  0.13102319  0.49581196  0.24519832  1
  O  O283  1  0.12925486  0.49456712  0.74463393  1
  O  O284  1  0.12802559  0.99108915  0.24671933  1
  O  O285  1  0.12301680  0.98945009  0.75025656  1
  O  O286  1  0.63198684  0.49374437  0.24665205  1
  O  O287  1  0.63335821  0.50166575  0.74101979  1
  O  O288  1  0.63210609  0.98846988  0.25169306  1
  O  O289  1  0.63524220  1.00220899  0.75412878  1
  O  O290  1  0.37540888  0.00858062  0.25405047  1
  O  O291  1  0.37017469  0.00658720  0.75692545  1
  O  O292  1  0.37080375  0.50721516  0.25412923  1
  O  O293  1  0.36825125  0.50974312  0.74997334  1
  O  O294  1  0.87178463  0.00421859  0.25662031  1
  O  O295  1  0.86954603  0.00823202  0.75822932  1
  O  O296  1  0.87058879  0.50526568  0.25665891  1
  O  O297  1  0.86827124  0.50341845  0.75496930  1
  O  O298  1  0.12082298  0.37006869  0.36990661  1
  O  O299  1  0.11965384  0.37086794  0.86881594  1
  O  O300  1  0.12437891  0.86675377  0.36781271  1
  O  O301  1  0.13293307  0.86505555  0.86426582  1
  O  O302  1  0.62255463  0.37009555  0.37149581  1
  O  O303  1  0.62654711  0.36361118  0.87205629  1
  O  O304  1  0.62027702  0.86974762  0.36800153  1
  O  O305  1  0.62836173  0.86016562  0.87101262  1
  O  O306  1  0.37070367  0.13321671  0.13454114  1
  O  O307  1  0.37790725  0.13053276  0.62815455  1
  O  O308  1  0.37549284  0.63412899  0.13300911  1
  O  O309  1  0.38223552  0.62365383  0.63173319  1
  O  O310  1  0.88219754  0.12674224  0.13299659  1
  O  O311  1  0.87458918  0.12170349  0.64088654  1
  O  O312  1  0.88197877  0.62916768  0.13233617  1
  O  O313  1  0.88171719  0.62490363  0.63238482  1
  O  O314  1  0.26538261  0.25362692  0.12274347  1
  O  O315  1  0.25463237  0.25584343  0.61877309  1
  O  O316  1  0.26049399  0.75962508  0.12162908  1
  O  O317  1  0.24791067  0.76094464  0.61826012  1
  O  O318  1  0.75370236  0.25801949  0.11925290  1
  O  O319  1  0.74293246  0.26416682  0.63473951  1
  O  O320  1  0.75673132  0.76017103  0.12566371  1
  O  O321  1  0.75203060  0.75109712  0.61764810  1
  O  O322  1  0.24624877  0.24543718  0.37997174  1
  O  O323  1  0.24320592  0.24341468  0.87665017  1
  O  O324  1  0.24433510  0.74400607  0.37979568  1
  O  O325  1  0.23711059  0.74270683  0.87447755  1
  O  O326  1  0.74195875  0.24004833  0.36908818  1
  O  O327  1  0.74384344  0.24315969  0.87981622  1
  O  O328  1  0.74313687  0.74332580  0.38120559  1
  O  O329  1  0.73924151  0.74637250  0.87704414  1
  O  O330  1  0.00537344  0.11822691  0.00467705  1
  O  O331  1  0.00429730  0.11664094  0.50075595  1
  O  O332  1  0.00613387  0.61866571  0.00574847  1
  O  O333  1  0.00680731  0.62406983  0.50717883  1
  O  O334  1  0.49694088  0.10954209  -0.00274838  1
  O  O335  1  0.50669416  0.11944760  0.50279577  1
  O  O336  1  0.49950159  0.61229810  0.00596063  1
  O  O337  1  0.50529141  0.62155914  0.50944394  1
  O  O338  1  0.49361060  0.37607368  0.49334724  1
  O  O339  1  0.49137602  0.38472548  0.99891788  1
  O  O340  1  0.49266091  0.88019421  0.49443940  1
  O  O341  1  0.48461683  0.88452489  1.00018557  1
  O  O342  1  0.99237162  0.37760043  0.49418751  1
  O  O343  1  0.99655867  0.38032379  0.99446718  1
  O  O344  1  0.99090040  0.88184518  0.49877207  1
  O  O345  1  0.99976103  0.89014508  1.00620268  1
  O  O346  1  0.49473318  0.49233679  0.37686007  1
  O  O347  1  0.49908691  0.49937228  0.88694277  1
  O  O348  1  0.49334878  0.99166270  0.38007008  1
  O  O349  1  0.48458468  1.00362538  0.88224450  1
  O  O350  1  0.99407020  0.49272587  0.37570346  1
  O  O351  1  0.99588124  0.49422001  0.87994373  1
  O  O352  1  0.99360006  0.99824636  0.38633449  1
  O  O353  1  0.98916109  1.00825712  0.88474603  1
  O  O354  1  0.00184053  0.00776461  0.11540048  1
  O  O355  1  -0.00071081  0.00222315  0.61193958  1
  O  O356  1  0.00666804  0.50590184  0.12037886  1
  O  O357  1  0.00772333  0.50674807  0.62598619  1
  O  O358  1  0.49912313  -0.00429960  0.10875047  1
  O  O359  1  0.49798214  0.00931229  0.61569658  1
  O  O360  1  0.50799300  0.49929788  0.11767160  1
  O  O361  1  0.51030746  0.50841434  0.62473613  1
  O  O362  1  0.24467519  0.38219522  0.24970448  1
  O  O363  1  0.24409846  0.37980162  0.74414296  1
  O  O364  1  0.24566196  0.87536590  0.23992884  1
  O  O365  1  0.23857351  0.87468420  0.73965612  1
  O  O366  1  0.74701753  0.38044852  0.24700997  1
  O  O367  1  0.75040403  0.38648373  0.74111619  1
  O  O368  1  0.74243981  0.87953426  0.24373895  1
  O  O369  1  0.75280834  0.89002510  0.74997070  1
  O  O370  1  0.26262381  0.12518527  0.25598989  1
  O  O371  1  0.25444408  0.12325829  0.75567854  1
  O  O372  1  0.25967392  0.61985416  0.25577445  1
  O  O373  1  0.25537376  0.61985366  0.75233947  1
  O  O374  1  0.75744793  0.11801141  0.25710884  1
  O  O375  1  0.75592515  0.11859472  0.76105490  1
  O  O376  1  0.75637650  0.61952337  0.25634974  1
  O  O377  1  0.75685237  0.61258491  0.74881617  1
  O  O378  1  0.37132655  0.12081267  0.36668653  1
  O  O379  1  0.36880398  0.11822362  0.86846228  1
  O  O380  1  0.37095767  0.62099691  0.36830104  1
  O  O381  1  0.36825907  0.62433257  0.86517712  1
  O  O382  1  0.87025205  0.11868451  0.37047405  1
  O  O383  1  0.86596829  0.11711624  0.86675260  1
  O  O384  1  0.86971131  0.62001795  0.37075381  1
  O  O385  1  0.87524501  0.61651125  0.86761566  1
  O  O386  1  0.12668113  0.38185489  0.13164148  1
  O  O387  1  0.13079872  0.38025788  0.62974028  1
  O  O388  1  0.13635427  0.87341992  0.12967181  1
  O  O389  1  0.13087053  0.87635573  0.63321509  1
  O  O390  1  0.63294675  0.38055598  0.13298584  1
  O  O391  1  0.63260384  0.38496836  0.62291318  1
  O  O392  1  0.63286773  0.87758730  0.13289025  1
  O  O393  1  0.62710990  0.88145140  0.63092429  1
  O  O394  1  0.12216930  0.25513998  0.25482558  1
  O  O395  1  0.11639027  0.25598516  0.75559666  1
  O  O396  1  0.12117844  0.75355023  0.25444851  1
  O  O397  1  0.11648051  0.75667169  0.75639326  1
  O  O398  1  0.62211661  0.25534551  0.25558527  1
  O  O399  1  0.62372315  0.24895795  0.76269245  1
  O  O400  1  0.63190859  0.76230908  0.25733954  1
  O  O401  1  0.62174922  0.74970364  0.76276185  1
  O  O402  1  0.38239185  0.24313313  0.24308576  1
  O  O403  1  0.37441073  0.24369456  0.74240913  1
  O  O404  1  0.37023878  0.74006568  0.24086886  1
  O  O405  1  0.37139628  0.73624639  0.74623511  1
  O  O406  1  0.88421822  0.24253503  0.25084293  1
  O  O407  1  0.88402628  0.24100563  0.76009894  1
  O  O408  1  0.88053810  0.74392617  0.24613870  1
  O  O409  1  0.88307455  0.74598739  0.75158285  1
  O  O410  1  0.37516161  0.49271679  0.49199598  1
  O  O411  1  0.38319991  0.49229623  1.00186454  1
  O  O412  1  0.37915993  0.99448642  0.49218878  1
  O  O413  1  0.38204519  0.99365156  0.99234910  1
  O  O414  1  0.87732643  0.49220889  0.49243770  1
  O  O415  1  0.88232207  0.49440018  0.99539515  1
  O  O416  1  0.88056458  0.99395045  0.49616429  1
  O  O417  1  0.88349829  1.00084281  0.99204432  1
  O  O418  1  0.11679320  0.00633352  -0.00151371  1
  O  O419  1  0.11460516  0.00464303  0.49840978  1
  O  O420  1  0.11992401  0.50493273  0.00480175  1
  O  O421  1  0.12446955  0.50683235  0.50648552  1
  O  O422  1  0.60514048  -0.00597253  -0.00668434  1
  O  O423  1  0.61687961  0.01069998  0.49777417  1
  O  O424  1  0.61650059  0.49744654  0.00733741  1
  O  O425  1  0.62597196  0.50688249  0.51066624  1
  O  O426  1  0.37506373  0.36640076  0.11683636  1
  O  O427  1  0.36885513  0.37072626  0.61870693  1
  O  O428  1  0.36871915  0.86839252  0.11856027  1
  O  O429  1  0.36181226  0.87389758  0.61643068  1
  O  O430  1  0.87090603  0.37430376  0.11918366  1
  O  O431  1  0.86511970  0.38071372  0.61489237  1
  O  O432  1  0.86631407  0.86852903  0.12650391  1
  O  O433  1  0.87043966  0.87422579  0.61220659  1
  O  O434  1  0.13159339  0.13093836  0.37944960  1
  O  O435  1  0.13018501  0.13050671  0.87928743  1
  O  O436  1  0.13158855  0.62925093  0.38003187  1
  O  O437  1  0.12864338  0.63318396  0.87904728  1
  O  O438  1  0.62977520  0.12898084  0.38116061  1
  O  O439  1  0.63475783  0.13299946  0.88129524  1
  O  O440  1  0.62999235  0.62887491  0.38012153  1
  O  O441  1  0.62886446  0.63623819  0.87869774  1
