# generated using pymatgen
data_V93Zn93O256
_symmetry_space_group_name_H-M   'P 1'
_cell_length_a   17.05055673
_cell_length_b   17.04842116
_cell_length_c   17.05125246
_cell_angle_alpha   89.93545790
_cell_angle_beta   89.99431097
_cell_angle_gamma   90.03774057
_symmetry_Int_Tables_number   1
_chemical_formula_structural   V93Zn93O256
_chemical_formula_sum   'V93 Zn93 O256'
_cell_volume   4956.54030516
_cell_formula_units_Z   1
loop_
 _symmetry_equiv_pos_site_id
 _symmetry_equiv_pos_as_xyz
  1  'x, y, z'
loop_
 _atom_site_type_symbol
 _atom_site_label
 _atom_site_symmetry_multiplicity
 _atom_site_fract_x
 _atom_site_fract_y
 _atom_site_fract_z
 _atom_site_occupancy
  V  V0  1  0.12481854  0.87417039  0.75032364  1
  V  V1  1  0.87556826  0.74932447  0.12693174  1
  V  V2  1  0.62436968  0.50769628  0.12174314  1
  V  V3  1  0.49707698  0.25050276  0.24232269  1
  V  V4  1  0.25068665  0.00199345  0.24981022  1
  V  V5  1  0.50058627  0.37424871  0.87489755  1
  V  V6  1  0.24988290  0.87559986  0.12418823  1
  V  V7  1  0.74963146  0.87554486  0.12449297  1
  V  V8  1  0.37582696  0.25028397  0.62334219  1
  V  V9  1  0.74728975  0.74680026  0.00077832  1
  V  V10  1  0.87532927  0.25088144  0.12684342  1
  V  V11  1  0.24559917  0.49277801  0.24898226  1
  V  V12  1  0.87552140  0.00038225  0.87490167  1
  V  V13  1  0.37455070  0.75072963  0.12464928  1
  V  V14  1  0.12468769  0.49572594  0.12675494  1
  V  V15  1  0.62554624  0.50117572  0.62422808  1
  V  V16  1  0.75034704  0.49927663  0.75072075  1
  V  V17  1  0.50204706  0.50509413  0.00084686  1
  V  V18  1  0.37457173  0.12971919  0.24088113  1
  V  V19  1  0.62386634  0.37516024  0.24986045  1
  V  V20  1  0.00530628  0.25167622  0.75228457  1
  V  V21  1  0.25042064  0.49897754  0.75124909  1
  V  V22  1  0.37439932  0.36146688  0.00302328  1
  V  V23  1  0.74999367  0.37595611  0.12471038  1
  V  V24  1  0.74979728  0.00086203  0.24995069  1
  V  V25  1  0.12539249  0.49831716  0.62579037  1
  V  V26  1  0.00043284  0.62298373  0.62544597  1
  V  V27  1  0.37639390  0.62444693  0.24712096  1
  V  V28  1  -0.00047369  0.87431190  0.87593022  1
  V  V29  1  0.50192802  0.25069376  0.74901299  1
  V  V30  1  0.00779725  0.37166414  0.87650383  1
  V  V31  1  0.00117541  0.25385635  0.25152800  1
  V  V32  1  0.62430960  0.00188243  0.12358318  1
  V  V33  1  0.37572281  0.49835486  0.37488558  1
  V  V34  1  0.87450581  0.74990947  0.62555251  1
  V  V35  1  0.24945703  0.74980228  -0.00026860  1
  V  V36  1  0.62547912  0.25091873  0.37362615  1
  V  V37  1  -0.00042017  0.12516991  0.62429677  1
  V  V38  1  0.87517206  0.87439232  0.49991961  1
  V  V39  1  -0.00024747  0.50127902  0.00203581  1
  V  V40  1  0.74991167  0.49945535  0.25100497  1
  V  V41  1  0.62490336  0.87472649  0.75042796  1
  V  V42  1  0.87642663  0.25580173  0.61968623  1
  V  V43  1  0.62354866  0.74546631  0.88012262  1
  V  V44  1  0.87397768  0.49582765  0.37888224  1
  V  V45  1  0.00127500  0.00113466  0.00066391  1
  V  V46  1  0.75027341  0.12540705  0.37496689  1
  V  V47  1  0.12353465  0.87247196  0.25244181  1
  V  V48  1  0.25315517  0.36624507  0.12461942  1
  V  V49  1  0.87731606  0.62467745  0.25067750  1
  V  V50  1  0.75143429  0.00110684  0.75044314  1
  V  V51  1  0.49939431  -0.00007837  0.49900026  1
  V  V52  1  0.12441298  0.00004041  0.62395979  1
  V  V53  1  0.25064205  0.12584438  0.37381841  1
  V  V54  1  0.00048672  0.37468511  0.37682716  1
  V  V55  1  0.25007065  0.37490847  0.62585943  1
  V  V56  1  0.50156324  0.62397569  0.62403618  1
  V  V57  1  0.87696831  -0.00058227  0.37519836  1
  V  V58  1  0.62489209  0.74969381  0.37520789  1
  V  V59  1  0.12455541  0.00358547  0.12114045  1
  V  V60  1  0.87429253  0.87442206  0.00084836  1
  V  V61  1  0.62504585  0.12529855  0.00008281  1
  V  V62  1  -0.00324045  0.49545948  0.50178961  1
  V  V63  1  0.37432096  0.49937364  0.87649691  1
  V  V64  1  0.87479912  0.49983762  0.87604866  1
  V  V65  1  0.24956078  0.62395984  0.37529083  1
  V  V66  1  0.37612866  0.37602201  0.49867723  1
  V  V67  1  0.87458716  0.37599765  0.00014286  1
  V  V68  1  0.37568733  0.74845330  0.62681650  1
  V  V69  1  0.25005880  0.62439482  0.87584284  1
  V  V70  1  0.12543174  0.74881243  0.87649730  1
  V  V71  1  0.00017662  0.74844870  0.75118936  1
  V  V72  1  0.25095812  0.00074065  0.75181898  1
  V  V73  1  0.75351808  0.12516103  0.87535554  1
  V  V74  1  0.62604904  0.37458335  0.75025436  1
  V  V75  1  0.75234994  0.25379107  0.50007687  1
  V  V76  1  0.75030024  0.87482372  0.62556418  1
  V  V77  1  0.87470341  0.62437265  0.75102168  1
  V  V78  1  0.49823083  0.87824646  0.87567792  1
  V  V79  1  0.62600941  -0.00019027  0.62432781  1
  V  V80  1  0.24776968  0.74784505  0.49926605  1
  V  V81  1  0.75217319  0.25025629  -0.00092431  1
  V  V82  1  0.25009324  0.24941868  0.49949066  1
  V  V83  1  0.62326748  0.87554995  0.24941967  1
  V  V84  1  0.23840652  0.13427912  0.87919323  1
  V  V85  1  0.74689406  0.62487343  0.87897235  1
  V  V86  1  0.62510214  0.12555096  0.49923701  1
  V  V87  1  0.75301998  0.37536708  0.62234421  1
  V  V88  1  0.50085031  0.12546199  0.62422832  1
  V  V89  1  0.37575739  0.87613148  0.49768691  1
  V  V90  1  0.00259639  0.12696866  0.12163457  1
  V  V91  1  0.12493129  0.25318959  0.37330983  1
  V  V92  1  0.37539124  0.12488225  0.74968959  1
  Zn  Zn93  1  0.49586773  0.00249600  0.00075051  1
  Zn  Zn94  1  0.24939792  0.87365319  0.62518039  1
  Zn  Zn95  1  0.49990237  0.74934308  0.75161744  1
  Zn  Zn96  1  0.50234874  0.49901235  0.49702262  1
  Zn  Zn97  1  0.21580408  0.25047694  -0.00637622  1
  Zn  Zn98  1  0.37498118  0.87872060  -0.00042869  1
  Zn  Zn99  1  0.00005786  0.74958900  0.25267797  1
  Zn  Zn100  1  0.49973817  0.75243390  0.24920274  1
  Zn  Zn101  1  0.12916174  0.37110945  0.75450474  1
  Zn  Zn102  1  0.00112584  0.87191164  0.37623571  1
  Zn  Zn103  1  0.87475529  0.12553065  0.25089229  1
  Zn  Zn104  1  0.62693813  0.62460551  0.49805430  1
  Zn  Zn105  1  0.49460016  0.12821836  0.11904916  1
  Zn  Zn106  1  0.49963490  0.87633977  0.37193181  1
  Zn  Zn107  1  0.87533795  0.12612838  0.75080392  1
  Zn  Zn108  1  0.12347876  0.62423328  0.49833422  1
  Zn  Zn109  1  0.62796062  0.25026615  0.87399164  1
  Zn  Zn110  1  0.12197038  0.74790961  0.37516221  1
  Zn  Zn111  1  0.00265746  -0.00046004  0.49766788  1
  Zn  Zn112  1  0.50029503  0.37552760  0.37475095  1
  Zn  Zn113  1  0.37676106  0.00174274  0.37242224  1
  Zn  Zn114  1  0.12640494  0.12295032  0.49816162  1
  Zn  Zn115  1  0.00342104  0.62707182  0.12541753  1
  Zn  Zn116  1  0.12370422  0.62523341  0.00208995  1
  Zn  Zn117  1  0.37543355  0.62440916  0.75122923  1
  Zn  Zn118  1  0.74842101  0.74678453  0.50117451  1
  Zn  Zn119  1  0.74939647  0.62465300  0.37881895  1
  Zn  Zn120  1  0.37404530  0.00205313  0.87886031  1
  Zn  Zn121  1  0.50464367  0.62974052  0.12029647  1
  Zn  Zn122  1  0.18434446  0.18787326  0.18942423  1
  Zn  Zn123  1  0.18756377  0.18647954  0.68854717  1
  Zn  Zn124  1  0.18870064  0.68449385  0.18656568  1
  Zn  Zn125  1  0.18743665  0.68376796  0.68803047  1
  Zn  Zn126  1  0.68712235  0.18788670  0.18734866  1
  Zn  Zn127  1  0.68909109  0.18758954  0.68751645  1
  Zn  Zn128  1  0.69091757  0.68830232  0.19228811  1
  Zn  Zn129  1  0.68688425  0.68819864  0.69110425  1
  Zn  Zn130  1  0.31433487  0.31196501  0.31182706  1
  Zn  Zn131  1  0.31486650  0.31235534  0.81294942  1
  Zn  Zn132  1  0.31014487  0.81265695  0.31247989  1
  Zn  Zn133  1  0.31215166  0.81352448  0.81245905  1
  Zn  Zn134  1  0.81337376  0.31423470  0.31294594  1
  Zn  Zn135  1  0.81797528  0.31130082  0.81036444  1
  Zn  Zn136  1  0.80929454  0.81222393  0.31285520  1
  Zn  Zn137  1  0.81113891  0.81214753  0.81321126  1
  Zn  Zn138  1  0.18638716  0.43669820  0.43848053  1
  Zn  Zn139  1  0.18884287  0.43789426  0.94320986  1
  Zn  Zn140  1  0.19092943  0.93705534  0.43636116  1
  Zn  Zn141  1  0.18807262  0.93780415  0.93757898  1
  Zn  Zn142  1  0.68667384  0.43675510  0.43941098  1
  Zn  Zn143  1  0.68596329  0.43780233  0.93782332  1
  Zn  Zn144  1  0.68815600  0.93562307  0.43660475  1
  Zn  Zn145  1  0.68656748  0.93694944  0.93725493  1
  Zn  Zn146  1  0.30978179  0.06427335  0.05776761  1
  Zn  Zn147  1  0.31213012  0.06341605  0.56222802  1
  Zn  Zn148  1  0.31270222  0.55944892  0.06059504  1
  Zn  Zn149  1  0.31372476  0.56177026  0.56247689  1
  Zn  Zn150  1  0.81465152  0.06379747  0.06298971  1
  Zn  Zn151  1  0.81338102  0.06453974  0.56182015  1
  Zn  Zn152  1  0.81237081  0.56408573  0.06331730  1
  Zn  Zn153  1  0.81125464  0.56389794  0.56184479  1
  Zn  Zn154  1  0.43661407  0.43583438  0.18501806  1
  Zn  Zn155  1  0.43748430  0.43822245  0.68754249  1
  Zn  Zn156  1  0.43894117  0.94109956  0.18635029  1
  Zn  Zn157  1  0.43794508  0.93628748  0.68706069  1
  Zn  Zn158  1  0.93885101  0.43689146  0.19017407  1
  Zn  Zn159  1  0.93783073  0.43559114  0.69025940  1
  Zn  Zn160  1  0.93817390  0.93678954  0.18892600  1
  Zn  Zn161  1  0.93731676  0.93708329  0.68866850  1
  Zn  Zn162  1  0.06260772  0.06438762  0.30936463  1
  Zn  Zn163  1  0.06104226  0.06272776  0.81026715  1
  Zn  Zn164  1  0.06384997  0.56285621  0.31341982  1
  Zn  Zn165  1  0.06448613  0.56003641  0.81362883  1
  Zn  Zn166  1  0.55996247  0.06346483  0.31162722  1
  Zn  Zn167  1  0.56478333  0.06282811  0.81295002  1
  Zn  Zn168  1  0.56116217  0.56333591  0.31148139  1
  Zn  Zn169  1  0.56068759  0.56274130  0.81054220  1
  Zn  Zn170  1  0.43760069  0.18822177  0.43206348  1
  Zn  Zn171  1  0.43641810  0.18459151  0.93105415  1
  Zn  Zn172  1  0.43960954  0.68727075  0.43627957  1
  Zn  Zn173  1  0.43573113  0.68865967  0.93747855  1
  Zn  Zn174  1  0.93771447  0.18508319  0.44007124  1
  Zn  Zn175  1  0.94401580  0.18933641  0.93948550  1
  Zn  Zn176  1  0.93910830  0.68644908  0.43703063  1
  Zn  Zn177  1  0.93594699  0.68617960  0.93989491  1
  Zn  Zn178  1  0.06431787  0.31633486  0.06466589  1
  Zn  Zn179  1  0.06458156  0.31317784  0.56119998  1
  Zn  Zn180  1  0.06190185  0.81232879  0.06484413  1
  Zn  Zn181  1  0.06076796  0.81305855  0.56329156  1
  Zn  Zn182  1  0.56420223  0.31546564  0.06101753  1
  Zn  Zn183  1  0.56416863  0.31477013  0.56120506  1
  Zn  Zn184  1  0.56094048  0.81445253  0.06134747  1
  Zn  Zn185  1  0.56161989  0.81165175  0.56063701  1
  O  O186  1  0.11446549  0.11329166  0.13397800  1
  O  O187  1  0.11702241  0.11625588  0.62504661  1
  O  O188  1  0.12447518  0.61194600  0.12377671  1
  O  O189  1  0.11733340  0.61688361  0.62365103  1
  O  O190  1  0.62790978  0.12048567  0.11328796  1
  O  O191  1  0.62065377  0.11981373  0.61888236  1
  O  O192  1  0.62464738  0.61147233  0.13294651  1
  O  O193  1  0.61655082  0.62067700  0.62732349  1
  O  O194  1  0.37472098  0.38113066  0.38138704  1
  O  O195  1  0.38080933  0.37961764  0.88320931  1
  O  O196  1  0.37522406  0.87582161  0.38701733  1
  O  O197  1  0.38620434  0.87617207  0.87429755  1
  O  O198  1  0.88527957  0.38681544  0.37122939  1
  O  O199  1  0.88245195  0.38171726  0.88066416  1
  O  O200  1  0.87274731  0.88343621  0.38324718  1
  O  O201  1  0.88033338  0.87956566  0.88068811  1
  O  O202  1  0.25123765  0.00814730  0.36752808  1
  O  O203  1  0.24910848  0.00696182  0.86345027  1
  O  O204  1  0.25423325  0.50230758  0.36696564  1
  O  O205  1  0.25473117  0.50381518  0.87195505  1
  O  O206  1  0.75771861  0.00520366  0.37061288  1
  O  O207  1  0.75611977  0.00430096  0.87018928  1
  O  O208  1  0.75989885  0.49744977  0.37024307  1
  O  O209  1  0.75474278  0.50426321  0.87074469  1
  O  O210  1  0.24420345  0.49266387  0.13070248  1
  O  O211  1  0.24616424  0.49479268  0.63046779  1
  O  O212  1  0.24086422  0.99724367  0.12906238  1
  O  O213  1  0.24055250  1.00172733  0.63459509  1
  O  O214  1  0.74300726  0.49538155  0.12922846  1
  O  O215  1  0.74685732  0.49529551  0.63181169  1
  O  O216  1  0.74586771  0.99513073  0.12982907  1
  O  O217  1  0.74543843  0.99552569  0.62987030  1
  O  O218  1  -0.00302649  0.36400383  0.26196150  1
  O  O219  1  0.00152149  0.36868534  0.75955038  1
  O  O220  1  0.01197174  0.87455233  0.25154965  1
  O  O221  1  0.00452927  0.86836908  0.75625289  1
  O  O222  1  0.50442989  0.36699007  0.25035119  1
  O  O223  1  0.50578073  0.37043628  0.75437246  1
  O  O224  1  0.50780615  0.87418265  0.25104571  1
  O  O225  1  0.50629020  0.87354645  0.75810034  1
  O  O226  1  0.49168277  0.13276528  0.24735674  1
  O  O227  1  0.49674252  0.12955453  0.74359842  1
  O  O228  1  0.48498877  0.62604094  0.24522034  1
  O  O229  1  0.49585402  0.62807941  0.73831379  1
  O  O230  1  0.99622119  0.13472223  0.24135388  1
  O  O231  1  0.99886932  0.13300377  0.74035713  1
  O  O232  1  0.98804880  0.62359650  0.24878574  1
  O  O233  1  0.99432795  0.62879519  0.74612280  1
  O  O234  1  0.38099609  0.26189203  -0.00325336  1
  O  O235  1  0.36976997  0.25466125  0.50390793  1
  O  O236  1  0.36872963  0.75167827  0.01062759  1
  O  O237  1  0.36811805  0.75617386  0.50696998  1
  O  O238  1  0.87181390  0.25655932  0.00740626  1
  O  O239  1  0.86926608  0.24445688  0.51196887  1
  O  O240  1  0.86887290  0.75636445  0.00598449  1
  O  O241  1  0.87463679  0.75922745  0.50636998  1
  O  O242  1  0.13100867  0.24739444  0.49024087  1
  O  O243  1  0.10610434  0.24418842  0.99583730  1
  O  O244  1  0.13775223  0.75014269  0.50193380  1
  O  O245  1  0.13060979  0.74945189  0.99439625  1
  O  O246  1  0.63085119  0.24419423  0.49431543  1
  O  O247  1  0.63333128  0.24225576  0.99886928  1
  O  O248  1  0.62622582  0.75014585  0.48887674  1
  O  O249  1  0.63124692  0.75615059  0.98811065  1
  O  O250  1  0.50816896  0.24815609  0.13840919  1
  O  O251  1  0.49572482  0.24456544  0.62886798  1
  O  O252  1  0.48884465  0.74798453  0.12515400  1
  O  O253  1  0.49163806  0.74284953  0.62554347  1
  O  O254  1  0.99580251  0.24615928  0.13533151  1
  O  O255  1  0.99447122  0.24488224  0.62853219  1
  O  O256  1  0.99133446  0.74803714  0.12983154  1
  O  O257  1  0.99476024  0.74377423  0.63170131  1
  O  O258  1  0.00368229  0.25520321  0.37226979  1
  O  O259  1  -0.01097545  0.26079865  0.86286919  1
  O  O260  1  0.00446228  0.75355212  0.37139698  1
  O  O261  1  0.00435133  0.75459974  0.87061520  1
  O  O262  1  0.50843206  0.25088660  0.36331833  1
  O  O263  1  0.50278577  0.25654555  0.86566478  1
  O  O264  1  0.50964793  0.75349746  0.37145782  1
  O  O265  1  0.50701460  0.75724836  0.87469062  1
  O  O266  1  0.24976237  0.13216867  0.49298888  1
  O  O267  1  0.25227775  0.12957455  0.98270563  1
  O  O268  1  0.25073355  0.63333341  0.49454826  1
  O  O269  1  0.24904481  0.63145835  0.99330654  1
  O  O270  1  0.74388403  0.13175801  0.49492083  1
  O  O271  1  0.74465896  0.13041115  0.99534073  1
  O  O272  1  0.74634091  0.62926799  0.49667691  1
  O  O273  1  0.75641723  0.63364217  0.99154492  1
  O  O274  1  0.25747174  0.36824382  0.00563297  1
  O  O275  1  0.25585964  0.36872159  0.50566819  1
  O  O276  1  0.25128620  0.86830979  0.00657430  1
  O  O277  1  0.25877888  0.86638376  0.50272539  1
  O  O278  1  0.75543089  0.37041928  0.00505770  1
  O  O279  1  0.74451760  0.36579198  0.50975988  1
  O  O280  1  0.75540416  0.86890750  0.00517950  1
  O  O281  1  0.76071281  0.87451669  0.50727384  1
  O  O282  1  0.13782843  0.50505261  0.24319593  1
  O  O283  1  0.13205108  0.49635083  0.74346517  1
  O  O284  1  0.12957800  0.99275254  0.24130543  1
  O  O285  1  0.13147991  0.99469097  0.74187032  1
  O  O286  1  0.62975230  0.49445893  0.24289306  1
  O  O287  1  0.63162269  0.49433187  0.74507799  1
  O  O288  1  0.63082470  0.99658777  0.24429734  1
  O  O289  1  0.63158560  0.99512557  0.74347910  1
  O  O290  1  0.36828793  0.00956197  0.25052745  1
  O  O291  1  0.36392551  0.00478090  0.74645071  1
  O  O292  1  0.36679268  0.50726377  0.25265525  1
  O  O293  1  0.36825300  0.49924165  0.75845870  1
  O  O294  1  0.86879882  -0.00081408  0.26012339  1
  O  O295  1  0.86939355  0.00101942  0.75688736  1
  O  O296  1  0.87103046  0.50543547  0.25788737  1
  O  O297  1  0.86977844  0.50502525  0.75594353  1
  O  O298  1  0.11468874  0.36376413  0.37904869  1
  O  O299  1  0.11072923  0.38193362  0.87556545  1
  O  O300  1  0.12578787  0.87491369  0.36380894  1
  O  O301  1  0.11901073  0.86938680  0.86970273  1
  O  O302  1  0.62476361  0.36901083  0.36685830  1
  O  O303  1  0.61912194  0.37340980  0.86819404  1
  O  O304  1  0.62490495  0.86773889  0.36789659  1
  O  O305  1  0.61822116  0.86781537  0.87007929  1
  O  O306  1  0.37308398  0.12318823  0.13712612  1
  O  O307  1  0.38122461  0.13085459  0.62917018  1
  O  O308  1  0.37166573  0.63370904  0.13222387  1
  O  O309  1  0.38279671  0.63314990  0.62507845  1
  O  O310  1  0.88423913  0.13172614  0.12830772  1
  O  O311  1  0.88472329  0.13245207  0.62669012  1
  O  O312  1  0.87521876  0.62945359  0.13621146  1
  O  O313  1  0.88077760  0.62955839  0.63210624  1
  O  O314  1  0.23848150  0.26432929  0.12490750  1
  O  O315  1  0.25597258  0.25376530  0.62004108  1
  O  O316  1  0.25682266  0.75496034  0.12021944  1
  O  O317  1  0.25851502  0.74822037  0.61679506  1
  O  O318  1  0.75585794  0.25628569  0.12020465  1
  O  O319  1  0.75877432  0.25382359  0.62113274  1
  O  O320  1  0.75479220  0.75593419  0.12059641  1
  O  O321  1  0.75719784  0.75736221  0.62715552  1
  O  O322  1  0.24122537  0.24743339  0.37760013  1
  O  O323  1  0.24977901  0.23783067  0.87123024  1
  O  O324  1  0.25048789  0.74364779  0.38554510  1
  O  O325  1  0.24490232  0.74568884  0.87955216  1
  O  O326  1  0.74636048  0.24576461  0.37951346  1
  O  O327  1  0.75293010  0.24413572  0.88107981  1
  O  O328  1  0.73787617  0.74863532  0.37662117  1
  O  O329  1  0.74241278  0.74594057  0.88003197  1
  O  O330  1  -0.00675451  0.11690888  0.01448721  1
  O  O331  1  0.00373506  0.12169815  0.51275954  1
  O  O332  1  0.00051549  0.61602817  0.00378516  1
  O  O333  1  0.00131808  0.61418824  0.50701111  1
  O  O334  1  0.51236230  0.12651400  -0.00125550  1
  O  O335  1  0.50498761  0.12103693  0.50483083  1
  O  O336  1  0.49319481  0.60908071  0.00125825  1
  O  O337  1  0.50138494  0.62321543  0.51298679  1
  O  O338  1  0.49153343  0.37656242  0.49721505  1
  O  O339  1  0.49370124  0.38271040  0.99565688  1
  O  O340  1  0.48991531  0.88124434  0.50011696  1
  O  O341  1  0.49891539  0.87822804  0.98754312  1
  O  O342  1  1.00201327  0.38464939  0.49063663  1
  O  O343  1  0.99214875  0.38230071  0.99387986  1
  O  O344  1  0.98758676  0.87868937  0.50006589  1
  O  O345  1  0.99393993  0.88039634  0.99507640  1
  O  O346  1  0.49051866  0.49775959  0.37529610  1
  O  O347  1  0.49636559  0.49426785  0.88190037  1
  O  O348  1  0.49713042  0.99817955  0.38376858  1
  O  O349  1  0.49980638  0.98989113  0.87477425  1
  O  O350  1  0.99574294  0.49273569  0.38108088  1
  O  O351  1  0.99352625  0.49273209  0.88042015  1
  O  O352  1  0.98887590  0.99957932  0.37570306  1
  O  O353  1  0.99633844  0.99419482  0.87979170  1
  O  O354  1  0.00527768  0.00737019  0.12232074  1
  O  O355  1  0.00834044  0.00829752  0.62815077  1
  O  O356  1  0.00889890  0.49754946  0.12156808  1
  O  O357  1  0.00260072  0.50175796  0.61874371  1
  O  O358  1  0.50987674  0.00584960  0.12116617  1
  O  O359  1  0.50631696  0.00595235  0.61971933  1
  O  O360  1  0.50782709  0.50029122  0.11757356  1
  O  O361  1  0.50584811  0.50876358  0.62534268  1
  O  O362  1  0.25938372  0.38619021  0.24090434  1
  O  O363  1  0.24948595  0.37990262  0.74415467  1
  O  O364  1  0.24326526  0.88165521  0.24425250  1
  O  O365  1  0.24388802  0.88437085  0.74824522  1
  O  O366  1  0.74524950  0.38034314  0.24374576  1
  O  O367  1  0.74647598  0.38022191  0.74457007  1
  O  O368  1  0.74383198  0.88162716  0.24323963  1
  O  O369  1  0.74541549  0.88154418  0.74531221  1
  O  O370  1  0.25628253  0.12279706  0.25357959  1
  O  O371  1  0.25493956  0.11843378  0.75557656  1
  O  O372  1  0.25952466  0.61567328  0.25414553  1
  O  O373  1  0.25238540  0.61722322  0.75748382  1
  O  O374  1  0.75194991  0.11932460  0.25675327  1
  O  O375  1  0.75184625  0.11858993  0.75648377  1
  O  O376  1  0.76162234  0.61704364  0.25366062  1
  O  O377  1  0.75599523  0.61861645  0.75713688  1
  O  O378  1  0.36740621  0.12459501  0.36369593  1
  O  O379  1  0.36524636  0.12181311  0.86503127  1
  O  O380  1  0.36950554  0.61990172  0.36641224  1
  O  O381  1  0.36837226  0.61839672  0.87361530  1
  O  O382  1  0.86937614  0.11490088  0.37633004  1
  O  O383  1  0.87164466  0.11755045  0.87570733  1
  O  O384  1  0.87580851  0.61300770  0.36728517  1
  O  O385  1  0.86893585  0.61944171  0.86933298  1
  O  O386  1  0.13529983  0.38911924  0.12261909  1
  O  O387  1  0.13301479  0.38092745  0.62573470  1
  O  O388  1  0.12937691  0.88340528  0.13361524  1
  O  O389  1  0.12506764  0.88396448  0.63155308  1
  O  O390  1  0.63142963  0.38457564  0.13056512  1
  O  O391  1  0.63165424  0.38086707  0.63165180  1
  O  O392  1  0.63104221  0.88107821  0.12860471  1
  O  O393  1  0.62977309  0.88017862  0.62954614  1
  O  O394  1  0.11251053  0.24485434  0.26269046  1
  O  O395  1  0.10966880  0.25269580  0.74210179  1
  O  O396  1  0.12781173  0.76152638  0.24906662  1
  O  O397  1  0.11983812  0.75436405  0.75511620  1
  O  O398  1  0.61936720  0.25501375  0.25459345  1
  O  O399  1  0.61980674  0.25656682  0.74969265  1
  O  O400  1  0.62395714  0.75696221  0.25665244  1
  O  O401  1  0.62456744  0.75795425  0.76153107  1
  O  O402  1  0.38517876  0.24187549  0.25460357  1
  O  O403  1  0.38228582  0.24536221  0.74222135  1
  O  O404  1  0.37150842  0.74145318  0.24127205  1
  O  O405  1  0.37445270  0.74989499  0.73649746  1
  O  O406  1  0.88418011  0.24919227  0.24629357  1
  O  O407  1  0.88555562  0.24732341  0.73753848  1
  O  O408  1  0.87289764  0.74048610  0.24626632  1
  O  O409  1  0.88089131  0.74478042  0.74628101  1
  O  O410  1  0.37484409  0.49345084  0.49241260  1
  O  O411  1  0.38263825  0.48990303  0.99489235  1
  O  O412  1  0.37879022  0.99053349  0.50157153  1
  O  O413  1  0.37779895  0.99670610  0.99663315  1
  O  O414  1  0.88601045  0.50522029  0.49068820  1
  O  O415  1  0.87892875  0.49462466  0.99577136  1
  O  O416  1  0.87474434  0.99189843  0.49212686  1
  O  O417  1  0.88049036  0.99307179  0.99517574  1
  O  O418  1  0.11829629  -0.00789864  0.01416449  1
  O  O419  1  0.12530182  -0.00091281  0.51212844  1
  O  O420  1  0.11874333  0.50222597  0.00969366  1
  O  O421  1  0.11444917  0.50070818  0.50606650  1
  O  O422  1  0.62721650  0.01112145  0.00468523  1
  O  O423  1  0.62086193  0.00527261  0.50512476  1
  O  O424  1  0.61500686  0.49303405  0.01049568  1
  O  O425  1  0.62253083  0.50261520  0.50901606  1
  O  O426  1  0.36391511  0.38078146  0.11426829  1
  O  O427  1  0.36976287  0.36922994  0.61950375  1
  O  O428  1  0.36861934  0.86511421  0.12732962  1
  O  O429  1  0.37415299  0.86562767  0.61564190  1
  O  O430  1  0.86972609  0.37106979  0.12076913  1
  O  O431  1  0.86965289  0.36391686  0.62998328  1
  O  O432  1  0.86908676  0.87069413  0.12060942  1
  O  O433  1  0.87107748  0.87081110  0.61866167  1
  O  O434  1  0.13014754  0.13429783  0.37614807  1
  O  O435  1  0.14024795  0.12077148  0.86684992  1
  O  O436  1  0.13440856  0.62684254  0.37770556  1
  O  O437  1  0.13137664  0.63166479  0.87678349  1
  O  O438  1  0.63114051  0.13032922  0.38010623  1
  O  O439  1  0.63358464  0.12646755  0.88426209  1
  O  O440  1  0.62575446  0.63546944  0.37356250  1
  O  O441  1  0.63005766  0.63732429  0.86765671  1
