# generated using pymatgen
data_V93Zn93O256
_symmetry_space_group_name_H-M   'P 1'
_cell_length_a   17.04915069
_cell_length_b   17.04877336
_cell_length_c   17.05166407
_cell_angle_alpha   89.92916141
_cell_angle_beta   89.98705680
_cell_angle_gamma   90.03129114
_symmetry_Int_Tables_number   1
_chemical_formula_structural   V93Zn93O256
_chemical_formula_sum   'V93 Zn93 O256'
_cell_volume   4956.35319490
_cell_formula_units_Z   1
loop_
 _symmetry_equiv_pos_site_id
 _symmetry_equiv_pos_as_xyz
  1  'x, y, z'
loop_
 _atom_site_type_symbol
 _atom_site_label
 _atom_site_symmetry_multiplicity
 _atom_site_fract_x
 _atom_site_fract_y
 _atom_site_fract_z
 _atom_site_occupancy
  V  V0  1  0.49964913  0.12487087  0.62562835  1
  V  V1  1  0.62480022  0.00169979  0.62435555  1
  V  V2  1  0.12614088  0.87345194  0.25100424  1
  V  V3  1  0.87491360  0.24991841  0.12528068  1
  V  V4  1  0.25676837  0.74800228  0.00607838  1
  V  V5  1  0.62528383  0.25039230  0.37472551  1
  V  V6  1  0.50042801  -0.00002729  -0.00143792  1
  V  V7  1  0.00044215  0.62473674  0.12380757  1
  V  V8  1  0.12472720  0.24918763  0.87532313  1
  V  V9  1  0.49988181  0.12604800  0.12482560  1
  V  V10  1  0.75034388  0.00070326  0.24864767  1
  V  V11  1  0.75002269  0.75015263  0.49941369  1
  V  V12  1  0.37372783  -0.00074656  0.87097636  1
  V  V13  1  0.12573373  0.12306402  0.00169367  1
  V  V14  1  0.87367680  0.37470513  0.49975325  1
  V  V15  1  0.00323100  0.37432296  0.36886628  1
  V  V16  1  0.62450616  0.75036494  0.37347685  1
  V  V17  1  0.12332760  0.75021631  0.37676716  1
  V  V18  1  0.49523273  0.38097112  0.87560383  1
  V  V19  1  0.12827378  -0.00313528  0.63825874  1
  V  V20  1  0.62511063  0.87504530  0.75162801  1
  V  V21  1  0.37497615  0.25059228  0.12488630  1
  V  V22  1  0.24556880  0.49335419  0.25095497  1
  V  V23  1  0.25104379  0.24955506  0.00079561  1
  V  V24  1  0.74969265  0.12668378  0.37492809  1
  V  V25  1  0.37558761  0.62038381  0.75437705  1
  V  V26  1  0.62359429  0.49955009  0.62307417  1
  V  V27  1  0.62092636  0.50260987  0.12124200  1
  V  V28  1  0.87604547  0.00041092  0.37480917  1
  V  V29  1  0.24616057  0.87798367  0.63810575  1
  V  V30  1  0.75552978  0.12673903  0.87148282  1
  V  V31  1  0.75638078  0.00519469  0.74833030  1
  V  V32  1  0.37403670  0.87427997  0.50155747  1
  V  V33  1  0.50058853  -0.00008074  0.50113905  1
  V  V34  1  0.74963184  0.50063838  0.74895105  1
  V  V35  1  0.74927078  0.25088282  -0.00136690  1
  V  V36  1  0.00127519  0.37501831  0.87311572  1
  V  V37  1  0.24953253  0.74993465  0.50221154  1
  V  V38  1  -0.00359148  0.12504276  0.63152344  1
  V  V39  1  0.74883434  0.62582826  0.37464935  1
  V  V40  1  0.62298124  0.37616628  0.24869314  1
  V  V41  1  0.87460649  0.49985284  0.37447239  1
  V  V42  1  0.49557161  0.63198373  0.12466277  1
  V  V43  1  0.50064889  0.74987238  0.75047466  1
  V  V44  1  0.37404076  0.24895028  0.62577061  1
  V  V45  1  0.74882506  0.50095134  0.24904595  1
  V  V46  1  0.00733178  0.75721918  0.75391208  1
  V  V47  1  0.49863162  0.37552424  0.37414324  1
  V  V48  1  0.37331606  0.50039779  0.37430920  1
  V  V49  1  0.37392402  0.38060402  -0.00237841  1
  V  V50  1  0.87669605  0.12662263  0.24970598  1
  V  V51  1  -0.00000605  -0.00096180  0.50015844  1
  V  V52  1  0.62579943  0.87571017  0.25003104  1
  V  V53  1  0.25186201  0.49760573  0.75534266  1
  V  V54  1  0.49866997  0.24870341  0.75007649  1
  V  V55  1  0.25093849  -0.00077711  0.25137661  1
  V  V56  1  0.87483794  0.62575307  0.24899336  1
  V  V57  1  0.87514225  0.24663927  0.62951378  1
  V  V58  1  0.24944452  0.12387644  0.37607703  1
  V  V59  1  0.87686287  0.75202112  0.12408895  1
  V  V60  1  0.37381623  0.37462194  0.50116211  1
  V  V61  1  0.87429862  0.75062763  0.62513676  1
  V  V62  1  0.49852827  0.50088813  0.49974037  1
  V  V63  1  0.37462597  0.00059403  0.37608588  1
  V  V64  1  0.25146864  0.12009867  0.86929353  1
  V  V65  1  0.00080891  0.87545826  0.37535320  1
  V  V66  1  0.12391590  0.25187594  0.36949023  1
  V  V67  1  0.12511336  0.12435471  0.50110651  1
  V  V68  1  0.12393332  0.49342785  0.12920599  1
  V  V69  1  0.00077263  0.12449283  0.12500197  1
  V  V70  1  0.25867944  0.86886114  0.12644641  1
  V  V71  1  0.74841538  0.62581991  0.87505294  1
  V  V72  1  0.75125765  0.87559536  0.62375133  1
  V  V73  1  0.12453437  0.62410595  0.50047998  1
  V  V74  1  0.62572367  0.00073420  0.12496770  1
  V  V75  1  0.00086567  0.50085468  -0.00013289  1
  V  V76  1  0.62547730  0.25024385  0.87473076  1
  V  V77  1  0.37342772  0.63068997  0.24682116  1
  V  V78  1  0.87494910  0.37605872  -0.00084734  1
  V  V79  1  0.62390295  0.37486201  0.74957965  1
  V  V80  1  0.75058259  0.75172945  -0.00068389  1
  V  V81  1  0.74981673  0.37423174  0.62382575  1
  V  V82  1  0.24983754  0.62318425  0.87723163  1
  V  V83  1  0.12641686  -0.00092556  0.12477052  1
  V  V84  1  0.74894444  0.37599948  0.12365083  1
  V  V85  1  0.87654038  0.62499262  0.74897120  1
  V  V86  1  0.00025611  0.50036331  0.50036885  1
  V  V87  1  0.50072201  0.87457104  0.37556447  1
  V  V88  1  0.24944136  0.37368766  0.62575930  1
  V  V89  1  0.49927093  0.62416249  0.62458460  1
  V  V90  1  0.87645374  -0.00182206  0.87520612  1
  V  V91  1  0.12503769  0.49798976  0.62426891  1
  V  V92  1  0.49826978  0.25059331  0.24902653  1
  Zn  Zn93  1  0.74831507  0.24887533  0.50026372  1
  Zn  Zn94  1  0.88102507  0.87496709  -0.00160483  1
  Zn  Zn95  1  0.00311465  0.25416040  0.24646403  1
  Zn  Zn96  1  0.87610106  0.49937658  0.87420656  1
  Zn  Zn97  1  0.37157116  0.12033227  0.74751697  1
  Zn  Zn98  1  -0.00214655  0.24771017  0.75229379  1
  Zn  Zn99  1  0.62534738  0.12663610  0.49900958  1
  Zn  Zn100  1  0.00153263  0.74985804  0.24948571  1
  Zn  Zn101  1  0.24580079  0.37179285  0.12800068  1
  Zn  Zn102  1  0.49496897  0.75396981  0.24618198  1
  Zn  Zn103  1  0.37959196  0.86987488  0.00356287  1
  Zn  Zn104  1  0.12406156  0.37274212  0.74848778  1
  Zn  Zn105  1  0.49347254  0.50492692  -0.00497065  1
  Zn  Zn106  1  0.62315455  0.62539387  0.49823791  1
  Zn  Zn107  1  0.37332932  0.75177636  0.62718095  1
  Zn  Zn108  1  0.87592645  0.87420949  0.49886236  1
  Zn  Zn109  1  0.00028330  -0.00330812  0.00042987  1
  Zn  Zn110  1  0.13196658  0.75893160  0.87552336  1
  Zn  Zn111  1  0.24934658  0.62405457  0.37442977  1
  Zn  Zn112  1  0.62643205  0.12523945  -0.00056986  1
  Zn  Zn113  1  0.37453368  0.12597415  0.25089929  1
  Zn  Zn114  1  0.49818721  0.87420156  0.87637835  1
  Zn  Zn115  1  0.00126289  0.62499246  0.62649120  1
  Zn  Zn116  1  0.12524755  0.62635544  -0.00015224  1
  Zn  Zn117  1  0.62019811  0.62699674  -0.00151674  1
  Zn  Zn118  1  0.24950307  0.24980957  0.50083975  1
  Zn  Zn119  1  0.01484127  0.88286962  0.87463718  1
  Zn  Zn120  1  0.62475383  0.75148656  0.87685179  1
  Zn  Zn121  1  0.75164617  0.87738340  0.12296539  1
  Zn  Zn122  1  0.18925435  0.18601294  0.18834572  1
  Zn  Zn123  1  0.18427164  0.18803925  0.68904800  1
  Zn  Zn124  1  0.18665873  0.68424245  0.18773351  1
  Zn  Zn125  1  0.18822942  0.68509394  0.68546593  1
  Zn  Zn126  1  0.68669649  0.18730309  0.18754167  1
  Zn  Zn127  1  0.68642567  0.18806655  0.68688007  1
  Zn  Zn128  1  0.68597245  0.68867335  0.18694400  1
  Zn  Zn129  1  0.68644306  0.68733126  0.68507595  1
  Zn  Zn130  1  0.31137552  0.31109129  0.31424647  1
  Zn  Zn131  1  0.31284944  0.30940111  0.81359720  1
  Zn  Zn132  1  0.31115251  0.81243081  0.31589535  1
  Zn  Zn133  1  0.31568259  0.81042422  0.81920796  1
  Zn  Zn134  1  0.81233075  0.31273158  0.31143920  1
  Zn  Zn135  1  0.81386088  0.31366309  0.81066476  1
  Zn  Zn136  1  0.81241864  0.81403983  0.31146736  1
  Zn  Zn137  1  0.81554712  0.81422962  0.81159808  1
  Zn  Zn138  1  0.18767785  0.43635951  0.43777847  1
  Zn  Zn139  1  0.18585678  0.43775868  0.94062729  1
  Zn  Zn140  1  0.18699562  0.93666085  0.44260790  1
  Zn  Zn141  1  0.18928712  0.93391592  0.93806717  1
  Zn  Zn142  1  0.68636581  0.43745602  0.43762268  1
  Zn  Zn143  1  0.68571074  0.43831477  0.93617075  1
  Zn  Zn144  1  0.68821416  0.93815803  0.43708526  1
  Zn  Zn145  1  0.68907807  0.93778124  0.93711088  1
  Zn  Zn146  1  0.31348535  0.06146420  0.06118781  1
  Zn  Zn147  1  0.31120251  0.05994901  0.56447353  1
  Zn  Zn148  1  0.31076218  0.56098079  0.06615351  1
  Zn  Zn149  1  0.31252969  0.56263941  0.56614426  1
  Zn  Zn150  1  0.81316450  0.06412353  0.05974357  1
  Zn  Zn151  1  0.81266989  0.06385873  0.55923591  1
  Zn  Zn152  1  0.81310851  0.56355373  0.06090718  1
  Zn  Zn153  1  0.81161441  0.56312211  0.56140443  1
  Zn  Zn154  1  0.43368171  0.43990303  0.18566851  1
  Zn  Zn155  1  0.43603545  0.43642989  0.68781700  1
  Zn  Zn156  1  0.43885396  0.94040638  0.18962439  1
  Zn  Zn157  1  0.43548726  0.93641236  0.68651004  1
  Zn  Zn158  1  0.93653456  0.43847546  0.18659395  1
  Zn  Zn159  1  0.93667624  0.43680973  0.68635401  1
  Zn  Zn160  1  0.93944544  0.93738344  0.18826822  1
  Zn  Zn161  1  0.93873126  0.93759691  0.68600229  1
  Zn  Zn162  1  0.06263525  0.06267306  0.31071669  1
  Zn  Zn163  1  0.06321654  0.06452232  0.81446236  1
  Zn  Zn164  1  0.06254527  0.56413137  0.31221299  1
  Zn  Zn165  1  0.06635823  0.56371121  0.81305471  1
  Zn  Zn166  1  0.56240565  0.06357938  0.31224963  1
  Zn  Zn167  1  0.56429370  0.06404895  0.81278133  1
  Zn  Zn168  1  0.56007964  0.56448358  0.31032870  1
  Zn  Zn169  1  0.56455448  0.56233151  0.81085414  1
  Zn  Zn170  1  0.43781011  0.18734196  0.43931186  1
  Zn  Zn171  1  0.43691811  0.18800517  0.93781107  1
  Zn  Zn172  1  0.43588648  0.68750861  0.43520369  1
  Zn  Zn173  1  0.43590998  0.68641779  0.93663503  1
  Zn  Zn174  1  0.93719830  0.18885258  0.44073669  1
  Zn  Zn175  1  0.93739799  0.18611817  0.93926746  1
  Zn  Zn176  1  0.93752321  0.68760723  0.43815357  1
  Zn  Zn177  1  0.93720429  0.68708841  0.93644329  1
  Zn  Zn178  1  0.06194290  0.31125927  0.06004546  1
  Zn  Zn179  1  0.06049010  0.31221068  0.55940404  1
  Zn  Zn180  1  0.06773616  0.81399814  0.05729315  1
  Zn  Zn181  1  0.06257299  0.81336209  0.56657571  1
  Zn  Zn182  1  0.56080454  0.31307605  0.06008028  1
  Zn  Zn183  1  0.56140714  0.31157428  0.56100480  1
  Zn  Zn184  1  0.56584841  0.81405257  0.06248637  1
  Zn  Zn185  1  0.56395586  0.81190812  0.56276008  1
  O  O186  1  0.12109840  0.11959028  0.12133347  1
  O  O187  1  0.11905148  0.11903600  0.61742610  1
  O  O188  1  0.11739398  0.61402792  0.12413153  1
  O  O189  1  0.12372419  0.61567490  0.61799365  1
  O  O190  1  0.61842072  0.11887178  0.12302433  1
  O  O191  1  0.61822338  0.11885437  0.62344566  1
  O  O192  1  0.61670664  0.61626485  0.12531768  1
  O  O193  1  0.61776395  0.61722918  0.62344951  1
  O  O194  1  0.37992074  0.38008469  0.38099746  1
  O  O195  1  0.38531330  0.36707208  0.88431294  1
  O  O196  1  0.38038172  0.88041820  0.38164675  1
  O  O197  1  0.37797905  0.88541109  0.88053991  1
  O  O198  1  0.88126194  0.38056645  0.37958329  1
  O  O199  1  0.88394340  0.37612157  0.88016308  1
  O  O200  1  0.88209951  0.88237615  0.37480237  1
  O  O201  1  0.87533161  0.88877871  0.87521862  1
  O  O202  1  0.25435902  0.00357155  0.37195637  1
  O  O203  1  0.26265024  0.01049598  0.88675025  1
  O  O204  1  0.25407849  0.50096316  0.36773795  1
  O  O205  1  0.24360305  0.50800604  0.86464721  1
  O  O206  1  0.75568948  0.00601619  0.36853221  1
  O  O207  1  0.75551841  0.00768947  0.86761563  1
  O  O208  1  0.75454399  0.50471376  0.36874965  1
  O  O209  1  0.75064437  0.50908012  0.86844177  1
  O  O210  1  0.24023763  0.49749278  0.13312041  1
  O  O211  1  0.24501946  0.49378641  0.63401544  1
  O  O212  1  0.24580980  0.99244029  0.13110863  1
  O  O213  1  0.24038667  0.99027427  0.62050884  1
  O  O214  1  0.74156256  0.49661214  0.12887853  1
  O  O215  1  0.74404532  0.49458323  0.62948701  1
  O  O216  1  0.74459521  1.00098567  0.13048304  1
  O  O217  1  0.74655301  0.99735137  0.63170201  1
  O  O218  1  -0.00551855  0.37501461  0.26489663  1
  O  O219  1  0.00068712  0.37565350  0.76292556  1
  O  O220  1  0.00855728  0.87304636  0.25690625  1
  O  O221  1  -0.00603543  0.85926241  0.75166506  1
  O  O222  1  0.50344159  0.37143167  0.25451421  1
  O  O223  1  0.50359704  0.36983834  0.75692502  1
  O  O224  1  0.50627229  0.87436422  0.25665281  1
  O  O225  1  0.50874728  0.86647228  0.74857532  1
  O  O226  1  0.49775883  0.13241155  0.24351854  1
  O  O227  1  0.50014861  0.13202123  0.74354467  1
  O  O228  1  0.49050573  0.62665808  0.24211824  1
  O  O229  1  0.49425633  0.62962966  0.74652820  1
  O  O230  1  0.99367953  0.12749448  0.24325697  1
  O  O231  1  1.00349053  0.12656262  0.73451645  1
  O  O232  1  0.99202060  0.62697516  0.24307663  1
  O  O233  1  0.98878881  0.63008097  0.75036341  1
  O  O234  1  0.37049044  0.25764191  0.00589544  1
  O  O235  1  0.37362145  0.25694964  0.50733855  1
  O  O236  1  0.36226567  0.75095250  -0.00310182  1
  O  O237  1  0.36533905  0.75448607  0.50166299  1
  O  O238  1  0.86858199  0.25617298  0.00571966  1
  O  O239  1  0.87266042  0.25725711  0.51025820  1
  O  O240  1  0.86741415  0.74898431  0.00788736  1
  O  O241  1  0.86832691  0.75069169  0.50691605  1
  O  O242  1  0.12432262  0.23777699  0.49227667  1
  O  O243  1  0.13101180  0.24331182  0.99486877  1
  O  O244  1  0.13126031  0.74490704  0.49736567  1
  O  O245  1  0.14102399  0.74417323  0.99956462  1
  O  O246  1  0.62638585  0.24920822  0.49043843  1
  O  O247  1  0.63234769  0.25079196  0.99279934  1
  O  O248  1  0.63169596  0.74866662  0.49269363  1
  O  O249  1  0.63706208  0.74751914  0.99728957  1
  O  O250  1  0.49570531  0.24579216  0.12967219  1
  O  O251  1  0.49441084  0.24527274  0.63023122  1
  O  O252  1  0.50680401  0.73621226  0.12602976  1
  O  O253  1  0.50003597  0.74415756  0.63559772  1
  O  O254  1  0.99376916  0.24467503  0.12592813  1
  O  O255  1  0.99291983  0.24229861  0.62398424  1
  O  O256  1  0.99091267  0.74461024  0.12392671  1
  O  O257  1  0.99356695  0.74736452  0.63651264  1
  O  O258  1  0.00628812  0.25770512  0.37517493  1
  O  O259  1  0.00399635  0.25783382  0.87563039  1
  O  O260  1  0.00569604  0.75698003  0.37430611  1
  O  O261  1  -0.00078788  0.74810235  0.86038789  1
  O  O262  1  0.50393495  0.25649008  0.36908980  1
  O  O263  1  0.50610405  0.25771579  0.87011116  1
  O  O264  1  0.50633851  0.75761437  0.37390273  1
  O  O265  1  0.50323498  0.75050140  0.86276603  1
  O  O266  1  0.23908645  0.12470362  0.49555236  1
  O  O267  1  0.24514293  0.13104890  0.99326340  1
  O  O268  1  0.24525437  0.63450927  0.50144684  1
  O  O269  1  0.25376469  0.62880886  0.99239477  1
  O  O270  1  0.74638867  0.12732288  0.49026897  1
  O  O271  1  0.74813755  0.13282291  0.98941534  1
  O  O272  1  0.74766325  0.63105085  0.49231868  1
  O  O273  1  0.75058423  0.63308134  0.99022789  1
  O  O274  1  0.25811068  0.36777904  -0.00081667  1
  O  O275  1  0.25672044  0.37363997  0.50750717  1
  O  O276  1  0.25320888  0.86561090  0.01173260  1
  O  O277  1  0.25477577  0.86563047  0.50642250  1
  O  O278  1  0.75475871  0.37105760  0.00388515  1
  O  O279  1  0.75584157  0.37504032  0.50653622  1
  O  O280  1  0.75363676  0.86295646  0.00008012  1
  O  O281  1  0.75172722  0.86895926  0.50627919  1
  O  O282  1  0.13410762  0.50598508  0.24230411  1
  O  O283  1  0.13586644  0.49844176  0.74356045  1
  O  O284  1  0.13211240  0.99362959  0.24571930  1
  O  O285  1  0.12124114  1.00378676  0.73664489  1
  O  O286  1  0.62887102  0.49569629  0.24077069  1
  O  O287  1  0.63001190  0.49406556  0.74254886  1
  O  O288  1  0.63034826  0.99543869  0.24500433  1
  O  O289  1  0.63334943  0.99258858  0.74510506  1
  O  O290  1  0.36889200  0.00218653  0.25907740  1
  O  O291  1  0.38445658  0.00220795  0.76611192  1
  O  O292  1  0.36670609  0.50773245  0.25503978  1
  O  O293  1  0.36374558  0.50890432  0.74444780  1
  O  O294  1  0.87039953  0.00669075  0.25475386  1
  O  O295  1  0.86184648  -0.00482500  0.75579298  1
  O  O296  1  0.86799847  0.50555945  0.25439803  1
  O  O297  1  0.86839297  0.50932284  0.74961815  1
  O  O298  1  0.11429272  0.36357926  0.38489686  1
  O  O299  1  0.11506678  0.36850407  0.87723636  1
  O  O300  1  0.12066479  0.87042669  0.37123099  1
  O  O301  1  0.12769072  0.87197421  0.87100510  1
  O  O302  1  0.61838829  0.37193830  0.36764425  1
  O  O303  1  0.61791436  0.36959232  0.86902602  1
  O  O304  1  0.61987823  0.87096276  0.36959663  1
  O  O305  1  0.62434479  0.87494970  0.86126671  1
  O  O306  1  0.38159443  0.13243612  0.12588388  1
  O  O307  1  0.38034724  0.12941148  0.62685672  1
  O  O308  1  0.38512416  0.61637451  0.13514179  1
  O  O309  1  0.38032358  0.62789257  0.63707341  1
  O  O310  1  0.88011210  0.13082421  0.12924354  1
  O  O311  1  0.88530717  0.13428725  0.61638055  1
  O  O312  1  0.87949809  0.63256834  0.12922434  1
  O  O313  1  0.87363867  0.63025822  0.63541552  1
  O  O314  1  0.25486004  0.25170586  0.11968825  1
  O  O315  1  0.25520248  0.25538771  0.62477095  1
  O  O316  1  0.24668233  0.75771974  0.11967378  1
  O  O317  1  0.24845998  0.75706066  0.61506076  1
  O  O318  1  0.75385770  0.25654543  0.11920514  1
  O  O319  1  0.75717567  0.25556130  0.62414734  1
  O  O320  1  0.75930509  0.74788428  0.11544007  1
  O  O321  1  0.75416542  0.75541866  0.62009606  1
  O  O322  1  0.24072992  0.24424766  0.37840840  1
  O  O323  1  0.24515272  0.24114768  0.88160789  1
  O  O324  1  0.24281818  0.74968512  0.38823129  1
  O  O325  1  0.25180515  0.73889952  0.88358098  1
  O  O326  1  0.74334042  0.24508389  0.37434551  1
  O  O327  1  0.74717528  0.24459204  0.87695684  1
  O  O328  1  0.74536622  0.74532475  0.37933159  1
  O  O329  1  0.75205935  0.74221742  0.88138531  1
  O  O330  1  0.00759092  0.12277634  0.00720018  1
  O  O331  1  0.00847643  0.11959569  0.50798666  1
  O  O332  1  -0.00007565  0.61834291  0.00552772  1
  O  O333  1  0.00555538  0.61792672  0.50232325  1
  O  O334  1  0.50337688  0.11663458  0.00512799  1
  O  O335  1  0.50173355  0.11740477  0.50704190  1
  O  O336  1  0.49980557  0.62182354  0.00717918  1
  O  O337  1  0.49904953  0.61861046  0.50614851  1
  O  O338  1  0.49327951  0.38131559  0.49421264  1
  O  O339  1  0.49189266  0.37628014  0.99142307  1
  O  O340  1  0.49448247  0.87976867  0.49631194  1
  O  O341  1  0.49982576  0.88512634  0.99882329  1
  O  O342  1  0.99301695  0.38103332  0.49029937  1
  O  O343  1  0.99440592  0.37974678  0.99101522  1
  O  O344  1  0.99949905  0.88154396  0.49389742  1
  O  O345  1  0.99818719  0.87860306  0.99376489  1
  O  O346  1  0.49410690  0.49449987  0.37911069  1
  O  O347  1  0.50651177  0.48537256  0.87514486  1
  O  O348  1  0.49535873  0.99441813  0.38083988  1
  O  O349  1  0.49550458  1.00120167  0.88441284  1
  O  O350  1  0.99513987  0.49313351  0.37963186  1
  O  O351  1  1.00084452  0.49176054  0.88046151  1
  O  O352  1  0.99593515  0.99566365  0.37996779  1
  O  O353  1  0.98713722  1.00355108  0.87318623  1
  O  O354  1  0.00814057  0.00679970  0.12526492  1
  O  O355  1  0.00635844  0.00640406  0.62031629  1
  O  O356  1  0.00523156  0.50421606  0.12071838  1
  O  O357  1  0.00606628  0.49980313  0.61800049  1
  O  O358  1  0.50481469  0.00546609  0.11730004  1
  O  O359  1  0.50490378  0.00450605  0.62075014  1
  O  O360  1  0.50883689  0.50838987  0.12456142  1
  O  O361  1  0.50377758  0.50399240  0.62013405  1
  O  O362  1  0.25618021  0.38907179  0.24835600  1
  O  O363  1  0.25049737  0.38345553  0.74669824  1
  O  O364  1  0.24590929  0.87878020  0.24524367  1
  O  O365  1  0.25664043  0.86321990  0.73541770  1
  O  O366  1  0.74363780  0.38152481  0.24309852  1
  O  O367  1  0.74396336  0.38091677  0.74451127  1
  O  O368  1  0.74384583  0.88347621  0.24824812  1
  O  O369  1  0.74247073  0.88270128  0.74450042  1
  O  O370  1  0.25154309  0.11699174  0.25829429  1
  O  O371  1  0.24999453  0.12832935  0.76565486  1
  O  O372  1  0.25785625  0.61459588  0.25078844  1
  O  O373  1  0.25704814  0.61891947  0.75591779  1
  O  O374  1  0.75654552  0.12027796  0.25479112  1
  O  O375  1  0.74375211  0.11461473  0.75810208  1
  O  O376  1  0.75493306  0.61981600  0.25462300  1
  O  O377  1  0.75673311  0.62232082  0.75601614  1
  O  O378  1  0.36768751  0.11859135  0.37639541  1
  O  O379  1  0.36740598  0.11877987  0.87477344  1
  O  O380  1  0.37293181  0.61699815  0.36632725  1
  O  O381  1  0.36603735  0.62597581  0.86271302  1
  O  O382  1  0.87112646  0.12053425  0.37001598  1
  O  O383  1  0.86262850  0.11816070  0.87752675  1
  O  O384  1  0.86940926  0.61944170  0.36909125  1
  O  O385  1  0.86500651  0.62324771  0.86535264  1
  O  O386  1  0.12360150  0.38855049  0.12081966  1
  O  O387  1  0.13065903  0.37965675  0.62496658  1
  O  O388  1  0.13533728  0.87966798  0.13206550  1
  O  O389  1  0.13398819  0.88594408  0.61894390  1
  O  O390  1  0.62824733  0.38346902  0.12893122  1
  O  O391  1  0.62889895  0.37953998  0.63046277  1
  O  O392  1  0.62813877  0.88289889  0.13221476  1
  O  O393  1  0.63048474  0.88093444  0.63412199  1
  O  O394  1  0.12281700  0.24376607  0.26534379  1
  O  O395  1  0.12012400  0.25326095  0.75958863  1
  O  O396  1  0.12540932  0.75518543  0.25832828  1
  O  O397  1  0.10817388  0.74078943  0.74787079  1
  O  O398  1  0.61853300  0.25761295  0.25369217  1
  O  O399  1  0.61929777  0.25683275  0.75466225  1
  O  O400  1  0.62432754  0.75785362  0.25629935  1
  O  O401  1  0.61848270  0.75860828  0.74937067  1
  O  O402  1  0.38101979  0.24982110  0.24388158  1
  O  O403  1  0.38163060  0.24734278  0.74318822  1
  O  O404  1  0.37389520  0.73520703  0.25731624  1
  O  O405  1  0.38575991  0.74079735  0.74943412  1
  O  O406  1  0.87589604  0.24453797  0.24211949  1
  O  O407  1  0.87762294  0.25514034  0.73422134  1
  O  O408  1  0.87450804  0.74425172  0.23939775  1
  O  O409  1  0.88093443  0.74142925  0.74547530  1
  O  O410  1  0.37895531  0.49505482  0.49546511  1
  O  O411  1  0.37439524  0.48464242  1.00522716  1
  O  O412  1  0.38061992  0.99381622  0.49504992  1
  O  O413  1  0.38750724  0.99968264  0.99305171  1
  O  O414  1  0.87958594  0.49555901  0.49365861  1
  O  O415  1  0.88158229  0.49343651  0.99832534  1
  O  O416  1  0.88235002  0.99847814  0.49261092  1
  O  O417  1  0.87538152  0.99833560  0.98871818  1
  O  O418  1  0.12604687  0.00703819  0.00809437  1
  O  O419  1  0.11907185  0.01038210  0.50518013  1
  O  O420  1  0.11910240  0.50390968  0.01000995  1
  O  O421  1  0.12015768  0.50457388  0.50424865  1
  O  O422  1  0.61672471  0.00048000  0.00458645  1
  O  O423  1  0.61817043  -0.00018990  0.50725452  1
  O  O424  1  0.62343060  0.50204203  0.01172412  1
  O  O425  1  0.61652904  0.50088325  0.50543981  1
  O  O426  1  0.37416883  0.36769467  0.11538058  1
  O  O427  1  0.36963358  0.36921875  0.62030573  1
  O  O428  1  0.36231302  0.88035388  0.12644976  1
  O  O429  1  0.36602728  0.87410316  0.61828268  1
  O  O430  1  0.86854901  0.37069252  0.11951339  1
  O  O431  1  0.86981642  0.36835670  0.61916801  1
  O  O432  1  0.87350927  0.86341631  0.12458460  1
  O  O433  1  0.86781829  0.86888270  0.62335402  1
  O  O434  1  0.12793159  0.13032593  0.38381635  1
  O  O435  1  0.13238929  0.12822407  0.88170412  1
  O  O436  1  0.12666541  0.63155835  0.38280714  1
  O  O437  1  0.13909975  0.62983996  0.87601924  1
  O  O438  1  0.63121445  0.13252634  0.37398507  1
  O  O439  1  0.63714188  0.13172827  0.87582698  1
  O  O440  1  0.63104940  0.63091403  0.37423258  1
  O  O441  1  0.63724040  0.62739235  0.87451710  1
