# generated using pymatgen
data_V93Zn93O256
_symmetry_space_group_name_H-M   'P 1'
_cell_length_a   17.04884216
_cell_length_b   17.05027369
_cell_length_c   17.05231278
_cell_angle_alpha   89.94307269
_cell_angle_beta   90.01951444
_cell_angle_gamma   90.05718785
_symmetry_Int_Tables_number   1
_chemical_formula_structural   V93Zn93O256
_chemical_formula_sum   'V93 Zn93 O256'
_cell_volume   4956.88769061
_cell_formula_units_Z   1
loop_
 _symmetry_equiv_pos_site_id
 _symmetry_equiv_pos_as_xyz
  1  'x, y, z'
loop_
 _atom_site_type_symbol
 _atom_site_label
 _atom_site_symmetry_multiplicity
 _atom_site_fract_x
 _atom_site_fract_y
 _atom_site_fract_z
 _atom_site_occupancy
  V  V0  1  0.75089543  0.75013290  0.50047517  1
  V  V1  1  0.37595847  0.49945347  0.37543284  1
  V  V2  1  0.37905696  0.75037667  0.63219157  1
  V  V3  1  0.87447252  0.62502080  0.24986525  1
  V  V4  1  0.37430104  0.12602956  0.75070914  1
  V  V5  1  0.12697299  0.50113111  0.12515357  1
  V  V6  1  0.87552164  0.37631592  -0.00117880  1
  V  V7  1  0.87596273  0.12537253  0.74983639  1
  V  V8  1  0.87757510  0.37531501  0.49961345  1
  V  V9  1  0.87436268  -0.00091462  0.37478519  1
  V  V10  1  0.75072619  0.24991284  0.49900631  1
  V  V11  1  0.75000174  0.62402128  0.37508349  1
  V  V12  1  0.74979815  0.12466526  0.37476604  1
  V  V13  1  0.23585059  0.24692623  -0.00355676  1
  V  V14  1  0.00962668  0.50668770  0.49870695  1
  V  V15  1  0.62360578  0.00180004  0.62498174  1
  V  V16  1  0.62561708  0.49986261  0.12422809  1
  V  V17  1  0.37170938  0.50146008  0.87273451  1
  V  V18  1  0.87595966  0.49985815  0.37406656  1
  V  V19  1  0.25107803  0.37628034  0.62480783  1
  V  V20  1  0.23556756  0.12815928  0.87794847  1
  V  V21  1  0.12591157  0.24879225  0.37453348  1
  V  V22  1  0.50011129  -0.00029416  0.50079546  1
  V  V23  1  0.24731792  0.62456120  0.38080698  1
  V  V24  1  0.12726055  0.37336683  0.75014910  1
  V  V25  1  0.87618284  0.50410969  0.86701657  1
  V  V26  1  0.62355772  0.75005681  0.37545048  1
  V  V27  1  0.74793011  0.87516470  0.12506954  1
  V  V28  1  0.37561661  0.25069667  0.62427585  1
  V  V29  1  0.12446665  0.87469950  0.25040045  1
  V  V30  1  0.62373134  0.87497864  0.24989653  1
  V  V31  1  -0.00158291  0.74996382  0.25048717  1
  V  V32  1  0.87560890  0.25038350  0.12501095  1
  V  V33  1  0.87445249  0.87236746  0.50253673  1
  V  V34  1  0.12565740  0.74516223  0.38135514  1
  V  V35  1  0.12515980  0.12523983  0.49962451  1
  V  V36  1  0.00538682  0.37069605  0.87419640  1
  V  V37  1  0.24936823  -0.00062960  0.25030593  1
  V  V38  1  -0.00057278  0.24884664  0.24939462  1
  V  V39  1  0.24463576  0.75072679  -0.00640802  1
  V  V40  1  0.37298956  0.87381107  0.50140869  1
  V  V41  1  0.50089449  0.37479027  0.37554561  1
  V  V42  1  0.50052120  0.24988307  0.74998713  1
  V  V43  1  0.49948685  0.25007597  0.24931629  1
  V  V44  1  0.50058480  0.12594336  0.12549260  1
  V  V45  1  0.62630273  0.37513312  0.24939871  1
  V  V46  1  0.00314248  0.62752459  0.63019607  1
  V  V47  1  0.75040733  0.25108015  -0.00041782  1
  V  V48  1  0.12463205  -0.00057877  0.62550601  1
  V  V49  1  0.24945326  0.87383092  0.62594426  1
  V  V50  1  -0.00036802  -0.00120876  0.50062375  1
  V  V51  1  0.00049889  0.12471778  0.62530259  1
  V  V52  1  0.37487226  0.62604090  0.24985958  1
  V  V53  1  0.24837560  0.00113230  0.75150199  1
  V  V54  1  0.50061403  0.37543173  0.87568185  1
  V  V55  1  0.61831492  0.87081044  0.75688432  1
  V  V56  1  0.24954137  0.87384610  0.12466165  1
  V  V57  1  0.00134580  0.37445128  0.37545913  1
  V  V58  1  0.50019819  0.62550279  0.12463384  1
  V  V59  1  0.62528170  0.12529536  -0.00022300  1
  V  V60  1  0.37482756  0.00104473  0.87815358  1
  V  V61  1  0.62472915  0.62471288  0.50100656  1
  V  V62  1  0.00377136  0.86989081  0.87644314  1
  V  V63  1  -0.00009937  0.87370087  0.37612507  1
  V  V64  1  0.75009639  0.00080234  0.75060986  1
  V  V65  1  0.75526512  0.62699351  0.86807309  1
  V  V66  1  0.75145209  0.37613796  0.62529351  1
  V  V67  1  0.00541370  0.12515457  0.12195368  1
  V  V68  1  0.00105864  0.50052839  -0.00063308  1
  V  V69  1  0.37417477  -0.00041466  0.37546487  1
  V  V70  1  0.37514576  0.25055888  0.12080321  1
  V  V71  1  0.50043880  0.62828855  0.63317141  1
  V  V72  1  0.49830770  -0.00056450  -0.00044793  1
  V  V73  1  0.62838174  0.37532366  0.74921272  1
  V  V74  1  0.12143962  0.86676779  0.75392638  1
  V  V75  1  0.62595583  0.50007784  0.62495202  1
  V  V76  1  0.00655598  0.00438384  0.00153994  1
  V  V77  1  0.62524268  0.25052985  0.87433425  1
  V  V78  1  0.75048635  0.37621842  0.12444651  1
  V  V79  1  0.75094077  0.12628974  0.87494951  1
  V  V80  1  0.75115690  0.87473279  0.62559237  1
  V  V81  1  0.49911348  0.49860599  0.00019157  1
  V  V82  1  0.62481259  -0.00023150  0.12487930  1
  V  V83  1  0.87662085  0.25054272  0.62469732  1
  V  V84  1  0.87496906  0.87581822  0.00098074  1
  V  V85  1  0.87547918  0.00110520  0.87656864  1
  V  V86  1  0.00342953  0.25018916  0.75172941  1
  V  V87  1  0.74462406  0.74961986  -0.00476495  1
  V  V88  1  0.12452695  0.62835892  -0.00749336  1
  V  V89  1  0.87351342  0.74944033  0.12614022  1
  V  V90  1  0.24928912  0.12383282  0.37448577  1
  V  V91  1  0.49947485  0.87397348  0.37527212  1
  V  V92  1  0.12600638  0.37548576  0.24868067  1
  Zn  Zn93  1  0.37574115  0.37379019  0.49919082  1
  Zn  Zn94  1  0.24636904  0.62954900  0.87008385  1
  Zn  Zn95  1  0.24690630  0.74467803  0.50500717  1
  Zn  Zn96  1  0.12673433  0.00379820  0.12348391  1
  Zn  Zn97  1  0.37399145  0.75059364  0.12517551  1
  Zn  Zn98  1  0.37451985  0.87193933  0.00091706  1
  Zn  Zn99  1  -0.00665635  0.73798546  0.76244468  1
  Zn  Zn100  1  0.62461330  0.24882473  0.37611903  1
  Zn  Zn101  1  0.49953344  0.75084975  0.24914636  1
  Zn  Zn102  1  0.49943280  0.12579212  0.62344848  1
  Zn  Zn103  1  0.87443672  0.12275520  0.24829056  1
  Zn  Zn104  1  0.49368221  0.86786858  0.87544997  1
  Zn  Zn105  1  0.37434047  0.63029661  0.75406865  1
  Zn  Zn106  1  0.75157514  0.49989092  0.24867862  1
  Zn  Zn107  1  0.25111819  0.37438923  0.12368520  1
  Zn  Zn108  1  0.62374772  0.12693467  0.49984380  1
  Zn  Zn109  1  0.25189659  0.24984154  0.49796800  1
  Zn  Zn110  1  0.62447244  0.62470765  -0.00260849  1
  Zn  Zn111  1  0.37271747  0.37459726  -0.00164063  1
  Zn  Zn112  1  0.25023456  0.50484370  0.74904214  1
  Zn  Zn113  1  0.86955867  0.73615957  0.63597590  1
  Zn  Zn114  1  0.75039741  0.00084442  0.24926049  1
  Zn  Zn115  1  0.50109753  0.49988816  0.50137645  1
  Zn  Zn116  1  0.60284078  0.73314683  0.86314360  1
  Zn  Zn117  1  0.24984224  0.49848960  0.24858109  1
  Zn  Zn118  1  0.37446044  0.12488846  0.25036787  1
  Zn  Zn119  1  0.13221041  0.50709544  0.61878393  1
  Zn  Zn120  1  -0.00014081  0.62626428  0.12479849  1
  Zn  Zn121  1  0.75518301  0.50667657  0.74560977  1
  Zn  Zn122  1  0.18825407  0.18785730  0.18728972  1
  Zn  Zn123  1  0.18833671  0.18919459  0.68906957  1
  Zn  Zn124  1  0.18678996  0.68737312  0.18836371  1
  Zn  Zn125  1  0.18556374  0.68498990  0.68623628  1
  Zn  Zn126  1  0.68738734  0.18874650  0.18946861  1
  Zn  Zn127  1  0.68903400  0.18853167  0.68674079  1
  Zn  Zn128  1  0.68689666  0.68802566  0.18841629  1
  Zn  Zn129  1  0.68676150  0.68890842  0.68676173  1
  Zn  Zn130  1  0.31166642  0.31156331  0.30863713  1
  Zn  Zn131  1  0.31240756  0.31321147  0.81386414  1
  Zn  Zn132  1  0.31171426  0.81070504  0.31273647  1
  Zn  Zn133  1  0.31047886  0.81424204  0.81232396  1
  Zn  Zn134  1  0.81340183  0.31188054  0.31149158  1
  Zn  Zn135  1  0.81556340  0.31455026  0.81167905  1
  Zn  Zn136  1  0.81043162  0.81288991  0.31298571  1
  Zn  Zn137  1  0.81367512  0.81366429  0.81131085  1
  Zn  Zn138  1  0.19130356  0.43503227  0.43624276  1
  Zn  Zn139  1  0.18896723  0.43562900  0.93953505  1
  Zn  Zn140  1  0.18714829  0.93554829  0.43801893  1
  Zn  Zn141  1  0.18728300  0.93809032  0.93714490  1
  Zn  Zn142  1  0.68824003  0.43831582  0.43839034  1
  Zn  Zn143  1  0.68842394  0.44111368  0.93684020  1
  Zn  Zn144  1  0.68749231  0.93740611  0.43790531  1
  Zn  Zn145  1  0.68755088  0.93875391  0.93834063  1
  Zn  Zn146  1  0.31033172  0.06573539  0.06234047  1
  Zn  Zn147  1  0.31165338  0.06221749  0.56213323  1
  Zn  Zn148  1  0.31133632  0.56345438  0.05892173  1
  Zn  Zn149  1  0.31725658  0.56240864  0.56256442  1
  Zn  Zn150  1  0.81488380  0.06311393  0.06314375  1
  Zn  Zn151  1  0.81259510  0.06166237  0.56106942  1
  Zn  Zn152  1  0.81307988  0.56376988  0.05911823  1
  Zn  Zn153  1  0.81760341  0.56179132  0.56093715  1
  Zn  Zn154  1  0.43758260  0.43680152  0.18766299  1
  Zn  Zn155  1  0.43984895  0.43920109  0.68978369  1
  Zn  Zn156  1  0.43642369  0.93880601  0.18823298  1
  Zn  Zn157  1  0.43644420  0.93845701  0.68847227  1
  Zn  Zn158  1  0.93946606  0.43818544  0.18741666  1
  Zn  Zn159  1  0.94165845  0.44036405  0.68427697  1
  Zn  Zn160  1  0.93570646  0.93799535  0.18834418  1
  Zn  Zn161  1  0.93600779  0.93367744  0.68962583  1
  Zn  Zn162  1  0.06176103  0.06226460  0.31029019  1
  Zn  Zn163  1  0.06002552  0.05664832  0.81100273  1
  Zn  Zn164  1  0.06192330  0.56321738  0.31127919  1
  Zn  Zn165  1  0.06466428  0.55611407  0.80907388  1
  Zn  Zn166  1  0.56286299  0.06183639  0.31208772  1
  Zn  Zn167  1  0.56066393  0.06226646  0.81202256  1
  Zn  Zn168  1  0.56389437  0.56124143  0.31055308  1
  Zn  Zn169  1  0.56504616  0.55879560  0.81260225  1
  Zn  Zn170  1  0.43766864  0.18533970  0.43832119  1
  Zn  Zn171  1  0.43464356  0.18635210  0.93758860  1
  Zn  Zn172  1  0.43783261  0.68852610  0.44383300  1
  Zn  Zn173  1  0.43105753  0.68815174  0.94131311  1
  Zn  Zn174  1  0.93693262  0.18628122  0.43682894  1
  Zn  Zn175  1  0.93925699  0.18826601  0.93858999  1
  Zn  Zn176  1  0.93657693  0.68641929  0.44066051  1
  Zn  Zn177  1  0.93519969  0.68677963  0.94172667  1
  Zn  Zn178  1  0.06131724  0.31448533  0.06365558  1
  Zn  Zn179  1  0.06514260  0.31355844  0.56210112  1
  Zn  Zn180  1  0.06242426  0.81311608  0.06341505  1
  Zn  Zn181  1  0.06254153  0.81064902  0.56441593  1
  Zn  Zn182  1  0.56241585  0.31375987  0.06174308  1
  Zn  Zn183  1  0.56397204  0.31273915  0.56097894  1
  Zn  Zn184  1  0.56009414  0.81255279  0.05980918  1
  Zn  Zn185  1  0.56227285  0.81282390  0.56410332  1
  O  O186  1  0.10954704  0.12410114  0.12929254  1
  O  O187  1  0.12027166  0.11987142  0.62080649  1
  O  O188  1  0.12348690  0.61522965  0.11826816  1
  O  O189  1  0.11197930  0.62259967  0.62197568  1
  O  O190  1  0.62087535  0.12079631  0.11894878  1
  O  O191  1  0.62480337  0.11246737  0.62532468  1
  O  O192  1  0.61511895  0.61943870  0.12513187  1
  O  O193  1  0.61927136  0.62111294  0.62106092  1
  O  O194  1  0.38292506  0.38271724  0.37165622  1
  O  O195  1  0.38331838  0.38278210  0.87511628  1
  O  O196  1  0.37906073  0.87951275  0.38061000  1
  O  O197  1  0.37136149  0.89136023  0.87603470  1
  O  O198  1  0.88209067  0.37928790  0.37960216  1
  O  O199  1  0.88325131  0.38306237  0.87992775  1
  O  O200  1  0.88025416  0.87845905  0.38193569  1
  O  O201  1  0.88254333  0.88376374  0.88204071  1
  O  O202  1  0.25440046  0.00348579  0.37037515  1
  O  O203  1  0.25605506  0.00875888  0.87236112  1
  O  O204  1  0.25885339  0.50638916  0.37196244  1
  O  O205  1  0.26171519  0.49819142  0.87537466  1
  O  O206  1  0.75533563  0.00848640  0.37584176  1
  O  O207  1  0.75582026  0.00739332  0.87145186  1
  O  O208  1  0.75791353  0.50604931  0.37398846  1
  O  O209  1  0.75979913  0.50876758  0.87455388  1
  O  O210  1  0.23897283  0.49781437  0.12455432  1
  O  O211  1  0.25300505  0.48857858  0.62546415  1
  O  O212  1  0.24743071  0.99284826  0.12944747  1
  O  O213  1  0.24503529  0.99454689  0.63198367  1
  O  O214  1  0.74487603  0.49346802  0.12336037  1
  O  O215  1  0.74613078  0.49438634  0.62547963  1
  O  O216  1  0.74303233  0.99372228  0.12374970  1
  O  O217  1  0.74190913  0.99594915  0.62988525  1
  O  O218  1  0.00607958  0.36892818  0.25562558  1
  O  O219  1  0.00727030  0.37087441  0.75525640  1
  O  O220  1  0.00365471  0.86943053  0.25691903  1
  O  O221  1  0.00867822  0.88282759  0.76218202  1
  O  O222  1  0.50561408  0.37033970  0.25747640  1
  O  O223  1  0.50859655  0.36895546  0.75559360  1
  O  O224  1  0.50507128  0.87359488  0.25656377  1
  O  O225  1  0.51557617  0.88235458  0.75171764  1
  O  O226  1  0.49928776  0.13178723  0.24350244  1
  O  O227  1  0.49274516  0.13219534  0.74814927  1
  O  O228  1  0.49208926  0.62429897  0.24158244  1
  O  O229  1  0.50085675  0.62172894  0.73667395  1
  O  O230  1  0.99646712  0.13077994  0.24163180  1
  O  O231  1  0.99524547  0.12900718  0.74510501  1
  O  O232  1  0.99218899  0.63261831  0.24887018  1
  O  O233  1  1.00558578  0.62323898  0.73660825  1
  O  O234  1  0.37149037  0.25099587  0.01011176  1
  O  O235  1  0.37471153  0.25075551  0.51254000  1
  O  O236  1  0.35936852  0.75205067  0.00766370  1
  O  O237  1  0.37126832  0.75696349  0.51113287  1
  O  O238  1  0.86950465  0.25679731  0.00448186  1
  O  O239  1  0.87202517  0.25562796  0.50591941  1
  O  O240  1  0.86542879  0.75618545  0.00654376  1
  O  O241  1  0.86742144  0.75642691  0.50194240  1
  O  O242  1  0.12612912  0.24263730  0.49278452  1
  O  O243  1  0.13752186  0.25204877  1.00366001  1
  O  O244  1  0.12673042  0.75495673  0.48461572  1
  O  O245  1  0.13151629  0.73872543  1.00774429  1
  O  O246  1  0.63444608  0.24777236  0.49753089  1
  O  O247  1  0.63082959  0.24496067  0.99399983  1
  O  O248  1  0.63111130  0.74534799  0.49523679  1
  O  O249  1  0.63742379  0.75055862  0.99674169  1
  O  O250  1  0.49365235  0.24585468  0.12840881  1
  O  O251  1  0.49151757  0.25052469  0.63076154  1
  O  O252  1  0.49757314  0.73783664  0.12536866  1
  O  O253  1  0.49095683  0.74117522  0.61965877  1
  O  O254  1  0.99517243  0.24378564  0.12797844  1
  O  O255  1  0.99539957  0.24417186  0.62988815  1
  O  O256  1  0.99155141  0.75065714  0.13222963  1
  O  O257  1  0.99934620  0.73363572  0.62000987  1
  O  O258  1  0.00550264  0.25437973  0.36991614  1
  O  O259  1  -0.00763018  0.26335427  0.86897533  1
  O  O260  1  0.00653110  0.75391870  0.37117451  1
  O  O261  1  -0.00510174  0.76628828  0.88055607  1
  O  O262  1  0.49842420  0.25954081  0.36921566  1
  O  O263  1  0.50583850  0.25410755  0.87011355  1
  O  O264  1  0.50592217  0.75634464  0.37604361  1
  O  O265  1  0.49604042  0.75539111  0.88135783  1
  O  O266  1  0.24237140  0.12514111  0.49329122  1
  O  O267  1  0.25163921  0.13756470  0.99237521  1
  O  O268  1  0.25679919  0.62497377  0.48458593  1
  O  O269  1  0.24097150  0.63403871  0.99892220  1
  O  O270  1  0.75032714  0.13072171  0.49102699  1
  O  O271  1  0.74556099  0.13121507  0.99447982  1
  O  O272  1  0.74499579  0.63000570  0.49494063  1
  O  O273  1  0.74929517  0.63467498  0.99094209  1
  O  O274  1  0.25269706  0.35919475  0.00102886  1
  O  O275  1  0.25445969  0.37074886  0.51069723  1
  O  O276  1  0.24651095  0.86890522  0.00905157  1
  O  O277  1  0.25585284  0.87509207  0.50874950  1
  O  O278  1  0.75519985  0.36989648  0.00407789  1
  O  O279  1  0.75767765  0.37011920  0.50521445  1
  O  O280  1  0.75440629  0.86852366  0.00368066  1
  O  O281  1  0.75424666  0.86951507  0.50500273  1
  O  O282  1  0.12432056  0.49524832  0.24030855  1
  O  O283  1  0.12839107  0.48429233  0.74370088  1
  O  O284  1  0.13100353  0.99171116  0.24948074  1
  O  O285  1  0.13014598  0.99261157  0.74309176  1
  O  O286  1  0.62799582  0.49284382  0.24208340  1
  O  O287  1  0.63002596  0.49187695  0.74275022  1
  O  O288  1  0.62626165  0.99314408  0.24221455  1
  O  O289  1  0.63014915  0.99442993  0.74295007  1
  O  O290  1  0.36756155  0.00156615  0.25793019  1
  O  O291  1  0.36811983  0.00503125  0.75765697  1
  O  O292  1  0.37500341  0.50845557  0.25911543  1
  O  O293  1  0.37469105  0.50155839  0.76164430  1
  O  O294  1  0.87112520  0.00087980  0.25933370  1
  O  O295  1  0.86990585  0.00640909  0.75594997  1
  O  O296  1  0.87547467  0.50589732  0.25632507  1
  O  O297  1  0.87500714  0.49326094  0.76335042  1
  O  O298  1  0.12065740  0.36846072  0.36873088  1
  O  O299  1  0.11311550  0.38190503  0.86689660  1
  O  O300  1  0.11990915  0.86663139  0.36964036  1
  O  O301  1  0.11506095  0.88327134  0.86591176  1
  O  O302  1  0.61575390  0.37568735  0.36927710  1
  O  O303  1  0.62175641  0.36973739  0.86989097  1
  O  O304  1  0.61921743  0.87038266  0.37058072  1
  O  O305  1  0.62503188  0.87977916  0.86125318  1
  O  O306  1  0.38197662  0.13418706  0.12597006  1
  O  O307  1  0.37340916  0.13476252  0.63173863  1
  O  O308  1  0.38259603  0.62103733  0.13456221  1
  O  O309  1  0.38359116  0.63314529  0.62603541  1
  O  O310  1  0.88369426  0.13271588  0.12611254  1
  O  O311  1  0.88062436  0.12960020  0.63019670  1
  O  O312  1  0.87573992  0.63137125  0.13085078  1
  O  O313  1  0.89332859  0.62166469  0.62050606  1
  O  O314  1  0.25719373  0.24649869  0.11275365  1
  O  O315  1  0.26030449  0.25814558  0.62557364  1
  O  O316  1  0.24871288  0.76006655  0.11979139  1
  O  O317  1  0.25734194  0.75585340  0.62330773  1
  O  O318  1  0.75480502  0.25582964  0.11835188  1
  O  O319  1  0.75762231  0.25518155  0.61966555  1
  O  O320  1  0.75302161  0.75496231  0.11590990  1
  O  O321  1  0.75035605  0.75635971  0.61784187  1
  O  O322  1  0.24421931  0.24280387  0.37508497  1
  O  O323  1  0.25590681  0.24277789  0.88841238  1
  O  O324  1  0.24230949  0.74197093  0.37581976  1
  O  O325  1  0.25227943  0.75183532  0.88939115  1
  O  O326  1  0.75117148  0.24135447  0.38052756  1
  O  O327  1  0.74599537  0.24582402  0.87959111  1
  O  O328  1  0.74330288  0.74418284  0.38099508  1
  O  O329  1  0.75451587  0.74311662  0.88408017  1
  O  O330  1  -0.00705603  0.11581339  0.00891623  1
  O  O331  1  0.00494191  0.11876114  0.50582921  1
  O  O332  1  0.00791389  0.61955326  0.00257625  1
  O  O333  1  -0.00095734  0.61270327  0.50404342  1
  O  O334  1  0.50662638  0.12035197  0.00487308  1
  O  O335  1  0.50388853  0.11591846  0.50306684  1
  O  O336  1  0.49940063  0.61815473  0.01182075  1
  O  O337  1  0.50747600  0.62232997  0.51033656  1
  O  O338  1  0.49834407  0.37678169  0.48753098  1
  O  O339  1  0.49917679  0.38093737  0.99260222  1
  O  O340  1  0.49372102  0.88041371  0.49522417  1
  O  O341  1  0.49482093  0.88561648  0.99928947  1
  O  O342  1  0.99551237  0.38081075  0.49447216  1
  O  O343  1  0.99644680  0.37935402  0.99134927  1
  O  O344  1  0.99552289  0.87999607  0.49566666  1
  O  O345  1  0.99499830  0.88301717  0.99524253  1
  O  O346  1  0.49265210  0.49131558  0.37352669  1
  O  O347  1  0.49353769  0.49503047  0.88020685  1
  O  O348  1  0.49455716  0.99401188  0.38063287  1
  O  O349  1  0.48905345  1.00112956  0.88074218  1
  O  O350  1  0.99650031  0.49435630  0.38010132  1
  O  O351  1  0.99329831  0.49119988  0.87910146  1
  O  O352  1  0.99563671  0.99357374  0.38111882  1
  O  O353  1  0.99394980  0.99473467  0.88415041  1
  O  O354  1  -0.00152737  0.00765523  0.11802048  1
  O  O355  1  0.00446585  0.00531447  0.62042106  1
  O  O356  1  0.00979069  0.50052853  0.11770143  1
  O  O357  1  0.00392482  0.50803705  0.61563499  1
  O  O358  1  0.50464615  0.00649400  0.11983825  1
  O  O359  1  0.50819620  0.00077451  0.62027420  1
  O  O360  1  0.50471892  0.50641152  0.12097746  1
  O  O361  1  0.50646128  0.50793906  0.62273566  1
  O  O362  1  0.24125529  0.37739973  0.24546524  1
  O  O363  1  0.24303609  0.37356300  0.74203830  1
  O  O364  1  0.24509345  0.87878157  0.24322253  1
  O  O365  1  0.23991315  0.88114993  0.74632485  1
  O  O366  1  0.74497995  0.37583228  0.24217643  1
  O  O367  1  0.74535348  0.37496651  0.74240409  1
  O  O368  1  0.74179271  0.87575025  0.24301879  1
  O  O369  1  0.74067525  0.88374854  0.74615898  1
  O  O370  1  0.24993691  0.11745580  0.25654023  1
  O  O371  1  0.25481824  0.12167142  0.75814217  1
  O  O372  1  0.26034551  0.62306448  0.25830010  1
  O  O373  1  0.25220432  0.62253236  0.75419479  1
  O  O374  1  0.75259388  0.12410155  0.26085860  1
  O  O375  1  0.75649973  0.12131965  0.75555755  1
  O  O376  1  0.75630072  0.62364251  0.25697103  1
  O  O377  1  0.74757229  0.62688979  0.76339828  1
  O  O378  1  0.36787943  0.11739633  0.37421190  1
  O  O379  1  0.36719591  0.11654367  0.86997378  1
  O  O380  1  0.37152242  0.61853534  0.36821223  1
  O  O381  1  0.37262049  0.61320809  0.87430490  1
  O  O382  1  0.86610988  0.11848604  0.37483210  1
  O  O383  1  0.87047468  0.12149551  0.86949380  1
  O  O384  1  0.86931853  0.62015516  0.36999500  1
  O  O385  1  0.86870261  0.61441878  0.88097855  1
  O  O386  1  0.12472503  0.38512458  0.13000895  1
  O  O387  1  0.13633610  0.37527718  0.63104609  1
  O  O388  1  0.13398197  0.87671567  0.13214548  1
  O  O389  1  0.12819046  0.88059720  0.63244037  1
  O  O390  1  0.63054069  0.37975278  0.12943169  1
  O  O391  1  0.63148693  0.37980638  0.62919758  1
  O  O392  1  0.62837627  0.88007510  0.12921736  1
  O  O393  1  0.62954101  0.88377778  0.63478463  1
  O  O394  1  0.11890098  0.25507545  0.25461091  1
  O  O395  1  0.11838454  0.26335231  0.74451994  1
  O  O396  1  0.11863743  0.75523475  0.25867967  1
  O  O397  1  0.11707878  0.76464649  0.74528571  1
  O  O398  1  0.61740776  0.25775482  0.25172115  1
  O  O399  1  0.62114023  0.25456790  0.75512943  1
  O  O400  1  0.62238903  0.75646831  0.25754990  1
  O  O401  1  0.63015288  0.76746282  0.75133979  1
  O  O402  1  0.38008070  0.24787982  0.23796891  1
  O  O403  1  0.38034179  0.24651944  0.74286878  1
  O  O404  1  0.37759512  0.73761046  0.24855478  1
  O  O405  1  0.37131481  0.75251485  0.73610393  1
  O  O406  1  0.88278397  0.25025635  0.24203963  1
  O  O407  1  0.88197344  0.24465153  0.74398546  1
  O  O408  1  0.87855417  0.74535298  0.24600408  1
  O  O409  1  0.88563497  0.76574905  0.74296980  1
  O  O410  1  0.37884208  0.49770816  0.48552636  1
  O  O411  1  0.38072951  0.49715592  0.99170625  1
  O  O412  1  0.38018683  0.99377538  0.49597142  1
  O  O413  1  0.37880340  1.00258009  0.99150027  1
  O  O414  1  0.88524856  0.49296110  0.49212576  1
  O  O415  1  0.88161253  0.49444715  0.99163656  1
  O  O416  1  0.88112657  0.99356319  0.49459798  1
  O  O417  1  0.88284865  0.99468350  0.99597289  1
  O  O418  1  0.10970346  -0.00470361  0.00278476  1
  O  O419  1  0.11891784  0.00447585  0.50576577  1
  O  O420  1  0.12119059  0.50594015  0.00756682  1
  O  O421  1  0.11359485  0.49118149  0.49911239  1
  O  O422  1  0.61938502  0.00633368  0.00480961  1
  O  O423  1  0.61957583  -0.00219136  0.51154104  1
  O  O424  1  0.61777748  0.50152086  0.00684697  1
  O  O425  1  0.62496162  0.50679349  0.50738963  1
  O  O426  1  0.37356835  0.36392210  0.12335845  1
  O  O427  1  0.36892725  0.36689263  0.62701945  1
  O  O428  1  0.36104409  0.87502924  0.12512851  1
  O  O429  1  0.37041816  0.86944053  0.62220205  1
  O  O430  1  0.87145981  0.37076144  0.11825594  1
  O  O431  1  0.87208839  0.36992151  0.61981927  1
  O  O432  1  0.86786189  0.86957378  0.12050160  1
  O  O433  1  0.86655936  0.88002676  0.61648009  1
  O  O434  1  0.12888907  0.12912109  0.38004087  1
  O  O435  1  0.13687556  0.12025415  0.86836345  1
  O  O436  1  0.13594763  0.63378401  0.36582003  1
  O  O437  1  0.12525196  0.61533809  0.88903562  1
  O  O438  1  0.63670865  0.12557848  0.37723491  1
  O  O439  1  0.63092449  0.13043765  0.87954006  1
  O  O440  1  0.62937836  0.62927199  0.38007840  1
  O  O441  1  0.63620982  0.62368530  0.87814733  1
