# generated using pymatgen
data_V93Zn93O256
_symmetry_space_group_name_H-M   'P 1'
_cell_length_a   17.05804120
_cell_length_b   17.05638541
_cell_length_c   17.05752141
_cell_angle_alpha   89.94079918
_cell_angle_beta   90.00780356
_cell_angle_gamma   90.06158335
_symmetry_Int_Tables_number   1
_chemical_formula_structural   V93Zn93O256
_chemical_formula_sum   'V93 Zn93 O256'
_cell_volume   4962.85513632
_cell_formula_units_Z   1
loop_
 _symmetry_equiv_pos_site_id
 _symmetry_equiv_pos_as_xyz
  1  'x, y, z'
loop_
 _atom_site_type_symbol
 _atom_site_label
 _atom_site_symmetry_multiplicity
 _atom_site_fract_x
 _atom_site_fract_y
 _atom_site_fract_z
 _atom_site_occupancy
  V  V0  1  0.75072685  0.12459068  0.87283387  1
  V  V1  1  0.25112407  0.49789883  0.75023687  1
  V  V2  1  0.75280881  0.51119446  0.25432236  1
  V  V3  1  -0.00407844  0.37387496  0.87716370  1
  V  V4  1  0.50063666  0.25090109  0.24892769  1
  V  V5  1  0.87845540  0.74789031  0.13437924  1
  V  V6  1  0.50560570  0.62732389  0.12137945  1
  V  V7  1  0.12518839  0.00151231  0.12518273  1
  V  V8  1  0.49984202  0.62493704  0.62420611  1
  V  V9  1  0.62962240  0.50370643  0.12191051  1
  V  V10  1  0.12464472  0.49883022  0.62393025  1
  V  V11  1  0.62453011  -0.00104122  0.62463526  1
  V  V12  1  0.00017599  -0.00057942  0.50028047  1
  V  V13  1  0.49916072  0.75009263  0.75136308  1
  V  V14  1  0.62338993  0.87734284  0.25144419  1
  V  V15  1  0.37509793  0.62395715  0.74992314  1
  V  V16  1  0.12326219  -0.00249489  0.62558929  1
  V  V17  1  0.24432043  0.62443188  0.87954636  1
  V  V18  1  0.87373260  0.62435679  0.74972733  1
  V  V19  1  0.37584497  0.37367254  0.50044752  1
  V  V20  1  0.87430180  0.75015522  0.62443944  1
  V  V21  1  0.24885862  0.87227580  0.62579365  1
  V  V22  1  0.24192645  0.74614567  0.00110338  1
  V  V23  1  0.37660922  0.49987794  0.37458047  1
  V  V24  1  0.37456823  -0.00015615  0.87552576  1
  V  V25  1  0.49677888  -0.00048754  0.49658587  1
  V  V26  1  0.37314017  0.74981278  0.62507953  1
  V  V27  1  0.12143950  0.87061402  0.25204326  1
  V  V28  1  0.25104223  0.49797267  0.24858525  1
  V  V29  1  0.62330587  0.87331113  0.75005528  1
  V  V30  1  0.74865498  0.87768646  0.12599503  1
  V  V31  1  0.37630989  0.25090112  0.12436273  1
  V  V32  1  0.75272345  0.25566671  0.00139102  1
  V  V33  1  0.87385314  0.87522145  0.49998401  1
  V  V34  1  0.12742195  0.37518265  0.24800831  1
  V  V35  1  0.37645699  0.37460665  -0.00032538  1
  V  V36  1  0.12560192  0.36820187  0.75443145  1
  V  V37  1  0.74830648  0.74830254  0.49717273  1
  V  V38  1  0.00027745  0.49925050  0.49961973  1
  V  V39  1  0.62360530  0.00200457  0.12478259  1
  V  V40  1  0.12328198  0.87058912  0.75781938  1
  V  V41  1  0.62437861  0.37461681  0.74870774  1
  V  V42  1  0.87447102  0.00063032  0.37501930  1
  V  V43  1  0.37546687  0.75088224  0.12404489  1
  V  V44  1  0.87525915  0.24806135  0.62471027  1
  V  V45  1  0.87163736  0.87462369  0.00173571  1
  V  V46  1  -0.00063925  0.86843897  0.37122409  1
  V  V47  1  0.87424485  -0.00103477  0.87557463  1
  V  V48  1  0.37474280  0.12481049  0.74862192  1
  V  V49  1  0.50143423  0.37577270  0.37504716  1
  V  V50  1  0.49882966  0.12512682  0.62540019  1
  V  V51  1  0.25086209  0.37333070  0.62434888  1
  V  V52  1  0.87263956  0.50771293  0.37514169  1
  V  V53  1  0.74999474  0.12630345  0.37428253  1
  V  V54  1  0.49872833  0.87533476  0.87442029  1
  V  V55  1  0.24971520  0.87485601  0.12551513  1
  V  V56  1  0.62390111  0.12563856  -0.00009938  1
  V  V57  1  0.25423902  -0.00015400  0.25511711  1
  V  V58  1  0.50424240  0.50314056  -0.00060190  1
  V  V59  1  0.37288840  0.87799768  0.49595806  1
  V  V60  1  0.62614474  0.25127644  0.37417464  1
  V  V61  1  0.24924318  0.62568601  0.37715230  1
  V  V62  1  0.87609351  0.37502353  0.49870857  1
  V  V63  1  0.12548700  0.24875214  0.37509810  1
  V  V64  1  0.25090808  0.24894209  0.50022478  1
  V  V65  1  0.00252302  0.24683809  0.75130698  1
  V  V66  1  0.62381469  0.12499504  0.49946634  1
  V  V67  1  0.75106923  0.50006571  0.74848403  1
  V  V68  1  0.49906137  0.00075675  -0.00061426  1
  V  V69  1  0.74868233  0.00297336  0.25024418  1
  V  V70  1  0.62425447  0.25087958  0.87370344  1
  V  V71  1  -0.00055545  0.74928284  0.75059917  1
  V  V72  1  0.24840250  -0.00128529  0.75122665  1
  V  V73  1  0.24966860  0.24965361  -0.00420870  1
  V  V74  1  0.49592658  0.87838786  0.37546399  1
  V  V75  1  0.25184475  0.12275150  0.37489632  1
  V  V76  1  0.00218635  0.24987501  0.24992537  1
  V  V77  1  0.62645444  0.74944598  0.37532449  1
  V  V78  1  0.37606654  0.49937152  0.87622022  1
  V  V79  1  0.12549747  0.12271319  0.50039360  1
  V  V80  1  0.12461649  0.12897332  -0.00426595  1
  V  V81  1  0.62857932  0.62531057  0.49532778  1
  V  V82  1  0.74339488  0.62807574  0.88116861  1
  V  V83  1  0.00069243  0.62323394  0.62586234  1
  V  V84  1  0.75079924  0.25060709  0.49941278  1
  V  V85  1  0.50169306  0.50088046  0.49924109  1
  V  V86  1  0.50046867  0.75176627  0.24921559  1
  V  V87  1  0.00077482  0.12685585  0.12481508  1
  V  V88  1  0.62742115  0.37795690  0.24954214  1
  V  V89  1  0.87660980  0.12748695  0.24919782  1
  V  V90  1  0.37585018  0.12296995  0.25328546  1
  V  V91  1  0.74820609  0.87502949  0.62513283  1
  V  V92  1  0.24750718  0.12545250  0.87482228  1
  Zn  Zn93  1  0.75641958  0.37834645  0.12678595  1
  Zn  Zn94  1  0.25104998  0.37792777  0.12098448  1
  Zn  Zn95  1  0.74957241  -0.00114225  0.74895531  1
  Zn  Zn96  1  0.10669423  0.73073830  0.89031598  1
  Zn  Zn97  1  0.00089270  0.37670794  0.37358166  1
  Zn  Zn98  1  0.01502653  0.63142755  0.12641600  1
  Zn  Zn99  1  0.87711657  0.25368967  0.12550128  1
  Zn  Zn100  1  0.49790681  0.25098446  0.74986685  1
  Zn  Zn101  1  0.37698248  0.62451732  0.25123293  1
  Zn  Zn102  1  0.74182926  0.74356416  0.00781020  1
  Zn  Zn103  1  0.37641581  0.24917179  0.62608733  1
  Zn  Zn104  1  0.00508353  0.51692667  0.00343755  1
  Zn  Zn105  1  0.87687742  0.12170784  0.74851233  1
  Zn  Zn106  1  0.74939852  0.37497075  0.62387728  1
  Zn  Zn107  1  0.12846294  0.51393080  0.11309117  1
  Zn  Zn108  1  0.00053459  0.00051513  -0.00056715  1
  Zn  Zn109  1  0.24673162  0.74928696  0.49939804  1
  Zn  Zn110  1  0.11966733  0.74403793  0.37452883  1
  Zn  Zn111  1  0.87808500  0.37925397  0.00611351  1
  Zn  Zn112  1  -0.00316692  0.87239286  0.87727670  1
  Zn  Zn113  1  0.12549611  0.62633537  0.50057235  1
  Zn  Zn114  1  0.61784879  0.74563797  0.88458058  1
  Zn  Zn115  1  0.50048269  0.37406815  0.87438623  1
  Zn  Zn116  1  0.88741494  0.63335899  0.25840071  1
  Zn  Zn117  1  0.62588043  0.49944128  0.62266913  1
  Zn  Zn118  1  0.49985651  0.12566263  0.12439585  1
  Zn  Zn119  1  0.87590599  0.50270892  0.87959984  1
  Zn  Zn120  1  0.00030316  0.12292653  0.62545374  1
  Zn  Zn121  1  0.37336853  0.87663867  -0.00101088  1
  Zn  Zn122  1  0.18894643  0.18899674  0.18398155  1
  Zn  Zn123  1  0.18811894  0.18569575  0.68516825  1
  Zn  Zn124  1  0.18793695  0.68569149  0.19241064  1
  Zn  Zn125  1  0.18655803  0.68667533  0.69070030  1
  Zn  Zn126  1  0.68756745  0.18904201  0.18537277  1
  Zn  Zn127  1  0.68692888  0.18766865  0.68671608  1
  Zn  Zn128  1  0.68968054  0.69019961  0.18785678  1
  Zn  Zn129  1  0.68498174  0.68789113  0.68694961  1
  Zn  Zn130  1  0.31353838  0.31104603  0.31398862  1
  Zn  Zn131  1  0.31477315  0.31120968  0.81373940  1
  Zn  Zn132  1  0.31183930  0.81108834  0.31200567  1
  Zn  Zn133  1  0.31132341  0.81018823  0.81504890  1
  Zn  Zn134  1  0.81435268  0.31842432  0.31104202  1
  Zn  Zn135  1  0.81338954  0.31124921  0.81081191  1
  Zn  Zn136  1  0.80862307  0.81479480  0.31436852  1
  Zn  Zn137  1  0.81046688  0.81101900  0.81142459  1
  Zn  Zn138  1  0.18744392  0.43756194  0.43630907  1
  Zn  Zn139  1  0.18561931  0.43681024  0.93611668  1
  Zn  Zn140  1  0.18669226  0.93608948  0.43717177  1
  Zn  Zn141  1  0.18869095  0.93783525  0.94042312  1
  Zn  Zn142  1  0.69047477  0.43845151  0.43633216  1
  Zn  Zn143  1  0.68768655  0.43920653  0.93443064  1
  Zn  Zn144  1  0.68514261  0.93678985  0.43766970  1
  Zn  Zn145  1  0.68509964  0.93589411  0.93733685  1
  Zn  Zn146  1  0.31273599  0.06377219  0.06498954  1
  Zn  Zn147  1  0.31124275  0.05996752  0.56440564  1
  Zn  Zn148  1  0.31497038  0.56448831  0.06348051  1
  Zn  Zn149  1  0.31310627  0.56029705  0.56188250  1
  Zn  Zn150  1  0.81253575  0.06498306  0.06173232  1
  Zn  Zn151  1  0.81160119  0.06257476  0.56186125  1
  Zn  Zn152  1  0.82166988  0.55978974  0.06094921  1
  Zn  Zn153  1  0.81208294  0.56248631  0.56261287  1
  Zn  Zn154  1  0.43826762  0.43714932  0.18603697  1
  Zn  Zn155  1  0.43881358  0.43773326  0.68566737  1
  Zn  Zn156  1  0.43753843  0.93819390  0.18590092  1
  Zn  Zn157  1  0.43643293  0.93798312  0.68559703  1
  Zn  Zn158  1  0.94114114  0.44179085  0.18512595  1
  Zn  Zn159  1  0.93672429  0.43518847  0.68780967  1
  Zn  Zn160  1  0.93797402  0.93982760  0.18670731  1
  Zn  Zn161  1  0.93699923  0.93632900  0.68890514  1
  Zn  Zn162  1  0.06353670  0.05967231  0.31272367  1
  Zn  Zn163  1  0.06083643  0.06079584  0.81337517  1
  Zn  Zn164  1  0.06048067  0.56368693  0.30646058  1
  Zn  Zn165  1  0.06213142  0.55607567  0.80937691  1
  Zn  Zn166  1  0.56031363  0.06280264  0.31410319  1
  Zn  Zn167  1  0.56232715  0.06143714  0.81096841  1
  Zn  Zn168  1  0.56360104  0.56445191  0.31019173  1
  Zn  Zn169  1  0.56363906  0.56103889  0.81083750  1
  Zn  Zn170  1  0.43784779  0.18812450  0.43662794  1
  Zn  Zn171  1  0.43763054  0.18690664  0.93462931  1
  Zn  Zn172  1  0.43695402  0.68973887  0.43776457  1
  Zn  Zn173  1  0.43265216  0.68750216  0.93812481  1
  Zn  Zn174  1  0.93971294  0.18736568  0.43659040  1
  Zn  Zn175  1  0.93738302  0.18948202  0.93724832  1
  Zn  Zn176  1  0.93806656  0.68643853  0.44159165  1
  Zn  Zn177  1  0.92976507  0.68669444  0.94197295  1
  Zn  Zn178  1  0.06721244  0.31636418  0.06316433  1
  Zn  Zn179  1  0.06266737  0.31231846  0.56322369  1
  Zn  Zn180  1  0.05898411  0.81472061  0.06486428  1
  Zn  Zn181  1  0.06334020  0.81020126  0.56081015  1
  Zn  Zn182  1  0.56462051  0.31561816  0.06277973  1
  Zn  Zn183  1  0.56242279  0.31136044  0.56437043  1
  Zn  Zn184  1  0.56441844  0.81562746  0.05911489  1
  Zn  Zn185  1  0.55998927  0.81156808  0.56286638  1
  O  O186  1  0.12149035  0.12053836  0.11632807  1
  O  O187  1  0.12472569  0.11527402  0.61776583  1
  O  O188  1  0.13078573  0.62714756  0.12178510  1
  O  O189  1  0.11864839  0.61588476  0.62787107  1
  O  O190  1  0.62354110  0.11927407  0.11818242  1
  O  O191  1  0.62014673  0.11965431  0.61846794  1
  O  O192  1  0.61550205  0.61651560  0.12960514  1
  O  O193  1  0.61684785  0.62506191  0.61400897  1
  O  O194  1  0.38232629  0.37918552  0.38082497  1
  O  O195  1  0.37833776  0.38232534  0.88099866  1
  O  O196  1  0.37984246  0.86774298  0.38725605  1
  O  O197  1  0.38013670  0.88258440  0.87501126  1
  O  O198  1  0.87847702  0.38528142  0.38192329  1
  O  O199  1  0.88840561  0.37640544  0.87038752  1
  O  O200  1  0.88051353  0.88158739  0.37944306  1
  O  O201  1  0.86919650  0.88298519  0.88379676  1
  O  O202  1  0.24507643  0.00529233  0.36214331  1
  O  O203  1  0.25487434  0.00494560  0.86990722  1
  O  O204  1  0.25725554  0.50545697  0.36871765  1
  O  O205  1  0.25595845  0.50526398  0.87054280  1
  O  O206  1  0.75398285  0.00606027  0.37037035  1
  O  O207  1  0.75687251  0.00913986  0.87582605  1
  O  O208  1  0.76032797  0.49666072  0.36638125  1
  O  O209  1  0.75050004  0.50965745  0.86404264  1
  O  O210  1  0.25323567  0.49870227  0.13764359  1
  O  O211  1  0.24602984  0.49288130  0.63119935  1
  O  O212  1  0.24518247  0.99508363  0.13400741  1
  O  O213  1  0.24305594  0.99196301  0.63248914  1
  O  O214  1  0.74217455  0.50218833  0.13096500  1
  O  O215  1  0.74808628  0.49780104  0.63630551  1
  O  O216  1  0.74388763  0.99826334  0.13155663  1
  O  O217  1  0.74288760  0.99351987  0.62471904  1
  O  O218  1  0.01241780  0.36845351  0.25195108  1
  O  O219  1  0.00686624  0.36673592  0.75458461  1
  O  O220  1  0.00996892  0.88567973  0.25995179  1
  O  O221  1  0.00814766  0.86818201  0.75096401  1
  O  O222  1  0.50666930  0.37107299  0.25570688  1
  O  O223  1  0.51183235  0.37559638  0.75141767  1
  O  O224  1  0.50421311  0.87161594  0.25479921  1
  O  O225  1  0.50307776  0.86990084  0.75418523  1
  O  O226  1  0.49154954  0.13111010  0.25021577  1
  O  O227  1  0.49322046  0.12430230  0.74296720  1
  O  O228  1  0.49901781  0.63245187  0.23891294  1
  O  O229  1  0.49408370  0.62873157  0.74504321  1
  O  O230  1  0.99671038  0.12936021  0.24552352  1
  O  O231  1  0.99944632  0.13371722  0.74748593  1
  O  O232  1  0.99870782  0.62943794  0.24269460  1
  O  O233  1  0.99426021  0.62840278  0.74556552  1
  O  O234  1  0.36988617  0.25336757  0.00434126  1
  O  O235  1  0.36856620  0.25621541  0.49995207  1
  O  O236  1  0.36636231  0.75215164  0.01099025  1
  O  O237  1  0.37364336  0.76045956  0.50785043  1
  O  O238  1  0.86283364  0.25189326  -0.00007312  1
  O  O239  1  0.87150630  0.25348981  0.50578746  1
  O  O240  1  0.86374702  0.76276397  0.00982807  1
  O  O241  1  0.86878287  0.75572425  0.50546300  1
  O  O242  1  0.13094450  0.24359970  0.49569766  1
  O  O243  1  0.13779924  0.23870732  1.00646699  1
  O  O244  1  0.12867123  0.74547774  0.49430053  1
  O  O245  1  0.13791902  0.75880167  0.99950362  1
  O  O246  1  0.63032098  0.24475114  0.49382168  1
  O  O247  1  0.63250936  0.24649458  0.99401065  1
  O  O248  1  0.62748582  0.74359268  0.49574218  1
  O  O249  1  0.63071189  0.75352399  0.99670570  1
  O  O250  1  0.49555524  0.24945346  0.13153850  1
  O  O251  1  0.49752260  0.24044494  0.62733794  1
  O  O252  1  0.49447440  0.74566012  0.12768550  1
  O  O253  1  0.49243808  0.74446765  0.63141035  1
  O  O254  1  1.00191439  0.24322215  0.13243602  1
  O  O255  1  0.99101883  0.24833161  0.63188081  1
  O  O256  1  0.97983906  0.75702187  0.12385721  1
  O  O257  1  0.99361966  0.74392483  0.63006417  1
  O  O258  1  0.00856065  0.25078912  0.36835597  1
  O  O259  1  -0.00711414  0.25750667  0.85840199  1
  O  O260  1  -0.00291347  0.76537154  0.37912096  1
  O  O261  1  -0.00397323  0.75219026  0.86703504  1
  O  O262  1  0.50692589  0.25622585  0.36918969  1
  O  O263  1  0.50922926  0.25235688  0.87181330  1
  O  O264  1  0.50517120  0.75735063  0.36832559  1
  O  O265  1  0.49652590  0.75538007  0.86883791  1
  O  O266  1  0.24569479  0.12738881  0.49471589  1
  O  O267  1  0.24398920  0.13053879  0.99577597  1
  O  O268  1  0.24973096  0.62338568  0.48963295  1
  O  O269  1  0.25732601  0.63332053  0.99013464  1
  O  O270  1  0.74377458  0.13046916  0.49306086  1
  O  O271  1  0.74456756  0.13296422  0.99081622  1
  O  O272  1  0.73661879  0.63191889  0.50746493  1
  O  O273  1  0.75553418  0.62112726  0.98253480  1
  O  O274  1  0.25746736  0.36431153  -0.00169834  1
  O  O275  1  0.25577517  0.36952828  0.50427848  1
  O  O276  1  0.25279438  0.86633229  0.00701474  1
  O  O277  1  0.25739843  0.87470999  0.50593112  1
  O  O278  1  0.75052848  0.36523078  -0.00210941  1
  O  O279  1  0.75675401  0.36777678  0.50136331  1
  O  O280  1  0.75894765  0.88134394  0.00858701  1
  O  O281  1  0.75462044  0.87003743  0.50551787  1
  O  O282  1  0.13845906  0.48859170  0.25451517  1
  O  O283  1  0.13180385  0.48788617  0.74321995  1
  O  O284  1  0.13534292  0.99373141  0.24473891  1
  O  O285  1  0.12865768  0.99075597  0.74603709  1
  O  O286  1  0.63253654  0.49811022  0.24324374  1
  O  O287  1  0.63332933  0.49150194  0.74780223  1
  O  O288  1  0.62927564  0.99733032  0.24572506  1
  O  O289  1  0.62599043  0.99241949  0.74192127  1
  O  O290  1  0.36457609  0.00983193  0.24272986  1
  O  O291  1  0.36755896  0.00455276  0.75482347  1
  O  O292  1  0.36782054  0.49877211  0.25613277  1
  O  O293  1  0.37036137  0.50378412  0.75544092  1
  O  O294  1  0.86840968  0.00702736  0.25551294  1
  O  O295  1  0.87079947  0.00044021  0.76060613  1
  O  O296  1  0.86748107  0.50128361  0.25949418  1
  O  O297  1  0.86539850  0.50448122  0.75003972  1
  O  O298  1  0.12661083  0.36693372  0.36555934  1
  O  O299  1  0.11525504  0.37439510  0.85947251  1
  O  O300  1  0.11509797  0.87669924  0.36816507  1
  O  O301  1  0.12282981  0.87676512  0.86399477  1
  O  O302  1  0.62039695  0.37036952  0.36996404  1
  O  O303  1  0.62427495  0.37029926  0.86443961  1
  O  O304  1  0.61693132  0.86986830  0.37003761  1
  O  O305  1  0.61633971  0.87510238  0.86673369  1
  O  O306  1  0.37644292  0.13186352  0.13688815  1
  O  O307  1  0.38038590  0.12373669  0.63116878  1
  O  O308  1  0.38542282  0.63514468  0.12766480  1
  O  O309  1  0.37955958  0.62888803  0.63034740  1
  O  O310  1  0.88188863  0.12764644  0.13158851  1
  O  O311  1  0.87679246  0.13512363  0.62552447  1
  O  O312  1  0.86623450  0.64578776  0.12496799  1
  O  O313  1  0.88049280  0.63100109  0.62969569  1
  O  O314  1  0.25882390  0.24995530  0.11268711  1
  O  O315  1  0.25191521  0.25564147  0.61725131  1
  O  O316  1  0.25859361  0.75431513  0.11987539  1
  O  O317  1  0.25576858  0.75487484  0.62581726  1
  O  O318  1  0.74979000  0.25261109  0.11259506  1
  O  O319  1  0.75970793  0.24903628  0.61841336  1
  O  O320  1  0.75624402  0.76150293  0.12595867  1
  O  O321  1  0.75479337  0.75584184  0.61858846  1
  O  O322  1  0.24503392  0.24260217  0.38104778  1
  O  O323  1  0.25643682  0.24200890  0.88811936  1
  O  O324  1  0.25103112  0.73606870  0.37474265  1
  O  O325  1  0.25085484  0.73982177  0.88519518  1
  O  O326  1  0.74545538  0.24574674  0.37912468  1
  O  O327  1  0.74581713  0.24254541  0.88093594  1
  O  O328  1  0.73938994  0.75802744  0.38450168  1
  O  O329  1  0.74863047  0.73459660  0.87257731  1
  O  O330  1  0.01000247  0.12728842  0.00407329  1
  O  O331  1  0.00776374  0.11718535  0.50024165  1
  O  O332  1  -0.00119204  0.63145346  0.00748641  1
  O  O333  1  0.00181360  0.61710688  0.50902743  1
  O  O334  1  0.50670805  0.11891480  0.00018825  1
  O  O335  1  0.50459041  0.11999483  0.50327789  1
  O  O336  1  0.49270850  0.61485435  0.01046578  1
  O  O337  1  0.50691239  0.62074420  0.50465176  1
  O  O338  1  0.49693580  0.38026602  0.49436733  1
  O  O339  1  0.49545641  0.38725399  0.99932298  1
  O  O340  1  0.49160437  0.87905658  0.49606344  1
  O  O341  1  0.49606519  0.88364037  0.99272599  1
  O  O342  1  0.99390517  0.38125099  0.49933931  1
  O  O343  1  0.99985689  0.35588210  0.97850195  1
  O  O344  1  0.99339554  0.88045210  0.49238981  1
  O  O345  1  0.98553833  0.87860408  0.99832255  1
  O  O346  1  0.49657486  0.49484240  0.37876099  1
  O  O347  1  0.49571888  0.50252007  0.88538802  1
  O  O348  1  0.50452109  0.99137290  0.38365043  1
  O  O349  1  0.49373600  0.99563064  0.87956861  1
  O  O350  1  0.99136438  0.49800076  0.38194879  1
  O  O351  1  0.99956458  0.48206762  0.87168186  1
  O  O352  1  0.99350182  0.99241514  0.38082486  1
  O  O353  1  0.98572005  0.99757505  0.87701022  1
  O  O354  1  0.00719688  0.00884270  0.12336928  1
  O  O355  1  0.00484543  -0.00053275  0.61836127  1
  O  O356  1  0.00784847  0.50749473  0.12470616  1
  O  O357  1  0.00409407  0.50369756  0.62105476  1
  O  O358  1  0.50614292  0.00220027  0.11844252  1
  O  O359  1  0.50557580  0.00509916  0.61719464  1
  O  O360  1  0.50754566  0.50838682  0.11968185  1
  O  O361  1  0.50195611  0.50713875  0.61678370  1
  O  O362  1  0.24619568  0.38228027  0.25170772  1
  O  O363  1  0.24377612  0.37704043  0.74646813  1
  O  O364  1  0.24451415  0.88362715  0.24681267  1
  O  O365  1  0.24158316  0.87801827  0.74702659  1
  O  O366  1  0.74329291  0.38680169  0.24838859  1
  O  O367  1  0.74252885  0.38312147  0.75043844  1
  O  O368  1  0.74199252  0.88479101  0.24677705  1
  O  O369  1  0.74211395  0.87471618  0.74219108  1
  O  O370  1  0.25625361  0.11859531  0.25344361  1
  O  O371  1  0.25253443  0.11829322  0.75501444  1
  O  O372  1  0.25480621  0.61407139  0.26018812  1
  O  O373  1  0.25673351  0.61799260  0.75744164  1
  O  O374  1  0.75498932  0.12214356  0.25557302  1
  O  O375  1  0.75074564  0.12438457  0.76299048  1
  O  O376  1  0.75325552  0.61336170  0.24721217  1
  O  O377  1  0.75356167  0.61716648  0.75325840  1
  O  O378  1  0.36892881  0.13156964  0.36062215  1
  O  O379  1  0.36798325  0.11828793  0.86848723  1
  O  O380  1  0.36931371  0.61816542  0.37410124  1
  O  O381  1  0.36612391  0.61845124  0.86914749  1
  O  O382  1  0.86935235  0.11976222  0.37018266  1
  O  O383  1  0.86610822  0.11652584  0.87609589  1
  O  O384  1  0.87797081  0.61238788  0.37770122  1
  O  O385  1  0.86259253  0.62366486  0.86512095  1
  O  O386  1  0.13325083  0.36865435  0.14208878  1
  O  O387  1  0.13106053  0.37918235  0.63293805  1
  O  O388  1  0.12907098  0.88075756  0.13364499  1
  O  O389  1  0.12903445  0.87797064  0.63533973  1
  O  O390  1  0.62604785  0.38905618  0.13165970  1
  O  O391  1  0.62853728  0.37591098  0.63496575  1
  O  O392  1  0.62846081  0.88329080  0.13286620  1
  O  O393  1  0.62837275  0.87940960  0.62901417  1
  O  O394  1  0.12366340  0.25443907  0.25604490  1
  O  O395  1  0.11525878  0.25803844  0.73962829  1
  O  O396  1  0.13381346  0.76822994  0.25467539  1
  O  O397  1  0.11841803  0.75789629  0.75345858  1
  O  O398  1  0.62111746  0.25620758  0.25484851  1
  O  O399  1  0.62671880  0.25949817  0.75520558  1
  O  O400  1  0.61973135  0.75748522  0.25455598  1
  O  O401  1  0.61540179  0.75606512  0.75149417  1
  O  O402  1  0.38025252  0.24362758  0.24481491  1
  O  O403  1  0.37648704  0.24079687  0.74777353  1
  O  O404  1  0.38106475  0.75048245  0.23858260  1
  O  O405  1  0.37920837  0.74358927  0.74501395  1
  O  O406  1  0.88280785  0.24383204  0.25181943  1
  O  O407  1  0.88207133  0.24800916  0.73938856  1
  O  O408  1  0.86673777  0.75311232  0.23853206  1
  O  O409  1  0.87965362  0.74553544  0.74256653  1
  O  O410  1  0.38222131  0.49298601  0.49438000  1
  O  O411  1  0.38343989  0.49484848  0.99658437  1
  O  O412  1  0.38023044  0.98571519  0.50741863  1
  O  O413  1  0.37968311  1.00082329  0.99389290  1
  O  O414  1  0.87862162  0.49524684  0.49468779  1
  O  O415  1  0.88505503  0.49394078  0.99491615  1
  O  O416  1  0.87891195  0.99456873  0.49432880  1
  O  O417  1  0.87496457  0.99381137  0.99244075  1
  O  O418  1  0.12512548  0.00968340  0.00721608  1
  O  O419  1  0.12020316  0.00267707  0.50580549  1
  O  O420  1  0.11265599  0.47208970  0.00874157  1
  O  O421  1  0.11879809  0.49921213  0.50727704  1
  O  O422  1  0.61937384  0.00566832  0.00519206  1
  O  O423  1  0.61871221  0.00596515  0.50500347  1
  O  O424  1  0.61575559  0.49530974  0.00971709  1
  O  O425  1  0.62073788  0.50854482  0.49889412  1
  O  O426  1  0.37424637  0.36852739  0.11779515  1
  O  O427  1  0.36878359  0.37381491  0.61828035  1
  O  O428  1  0.36944270  0.86560845  0.12472317  1
  O  O429  1  0.36852611  0.86914227  0.61864236  1
  O  O430  1  0.87342042  0.37060706  0.12379332  1
  O  O431  1  0.87352183  0.36306453  0.61908527  1
  O  O432  1  0.86863417  0.87193241  0.12040547  1
  O  O433  1  0.86908094  0.86977505  0.61921665  1
  O  O434  1  0.13187372  0.12843777  0.38070109  1
  O  O435  1  0.13090523  0.11733137  0.88756903  1
  O  O436  1  0.13705353  0.62329322  0.37534064  1
  O  O437  1  0.14003546  0.62124092  0.86658693  1
  O  O438  1  0.63020200  0.13155127  0.37979902  1
  O  O439  1  0.63321594  0.12888257  0.87950883  1
  O  O440  1  0.61650224  0.63294876  0.38745324  1
  O  O441  1  0.63968869  0.62484737  0.86839452  1
