# generated using pymatgen
data_V93Zn93O256
_symmetry_space_group_name_H-M   'P 1'
_cell_length_a   17.05224653
_cell_length_b   17.05204146
_cell_length_c   17.05042163
_cell_angle_alpha   90.01364725
_cell_angle_beta   89.98360879
_cell_angle_gamma   89.97623610
_symmetry_Int_Tables_number   1
_chemical_formula_structural   V93Zn93O256
_chemical_formula_sum   'V93 Zn93 O256'
_cell_volume   4957.84606261
_cell_formula_units_Z   1
loop_
 _symmetry_equiv_pos_site_id
 _symmetry_equiv_pos_as_xyz
  1  'x, y, z'
loop_
 _atom_site_type_symbol
 _atom_site_label
 _atom_site_symmetry_multiplicity
 _atom_site_fract_x
 _atom_site_fract_y
 _atom_site_fract_z
 _atom_site_occupancy
  V  V0  1  0.74601025  -0.00152794  0.75004451  1
  V  V1  1  0.62495618  0.49792915  0.62376563  1
  V  V2  1  0.87703611  0.74901276  0.12424814  1
  V  V3  1  0.62216372  0.12365421  0.50036510  1
  V  V4  1  0.62427989  0.24958481  0.87569410  1
  V  V5  1  0.62468866  0.12353203  0.00104855  1
  V  V6  1  0.87989854  0.12696746  0.74355323  1
  V  V7  1  0.62620446  0.87406881  0.24930010  1
  V  V8  1  0.60879345  0.36996065  0.25180182  1
  V  V9  1  0.24956566  0.37623059  0.62604972  1
  V  V10  1  0.88069353  0.49628108  0.87353853  1
  V  V11  1  0.49948537  0.49548180  0.49253901  1
  V  V12  1  0.62576250  0.49807393  0.12561293  1
  V  V13  1  0.00514272  0.37346808  0.37576712  1
  V  V14  1  0.12621194  0.50005420  0.12403054  1
  V  V15  1  0.87411500  0.87454375  0.49924310  1
  V  V16  1  -0.00147464  0.00682666  0.50438617  1
  V  V17  1  0.75081091  0.62320174  0.87413450  1
  V  V18  1  0.75200293  0.37241110  0.62385622  1
  V  V19  1  0.87496858  -0.00189658  0.87767911  1
  V  V20  1  0.25443531  0.75366895  0.00040728  1
  V  V21  1  0.37984868  0.24592743  0.13235565  1
  V  V22  1  0.12614279  0.75132252  0.87551669  1
  V  V23  1  0.12578174  0.50185095  0.62481234  1
  V  V24  1  0.12425280  0.87679910  0.75042319  1
  V  V25  1  0.50020622  0.74971629  0.75055875  1
  V  V26  1  0.49946621  0.37520758  0.87467685  1
  V  V27  1  0.62564779  -0.00166800  0.12490948  1
  V  V28  1  0.37541577  0.62468789  0.24960523  1
  V  V29  1  0.74886273  0.12396740  0.87559499  1
  V  V30  1  0.11962537  0.00930214  0.62545057  1
  V  V31  1  -0.00036204  0.62630697  0.62396870  1
  V  V32  1  0.37345757  -0.00178615  0.87841798  1
  V  V33  1  0.00135538  0.62557376  0.12489905  1
  V  V34  1  0.25199686  0.62671520  0.87452042  1
  V  V35  1  0.87447381  0.12535455  0.25001629  1
  V  V36  1  0.12667728  0.62672286  0.49953735  1
  V  V37  1  0.37411846  0.12524163  0.75076029  1
  V  V38  1  0.62573256  0.74818573  0.37493459  1
  V  V39  1  0.62568599  0.62313089  0.49834303  1
  V  V40  1  0.60934838  0.25168978  0.36988868  1
  V  V41  1  0.49896503  0.24991208  0.75052597  1
  V  V42  1  0.25039368  0.37490953  0.12432569  1
  V  V43  1  0.37388629  0.25090002  0.62631636  1
  V  V44  1  0.25587586  0.87681904  0.12236732  1
  V  V45  1  0.12436026  0.12616315  -0.00155892  1
  V  V46  1  0.24118024  0.25074308  0.49826652  1
  V  V47  1  0.62585680  0.62272191  0.00059266  1
  V  V48  1  0.74913078  0.74857765  0.49940052  1
  V  V49  1  0.00225919  0.49706287  -0.00260010  1
  V  V50  1  0.75031933  0.24954391  0.00001791  1
  V  V51  1  0.00027514  0.87552859  0.37627692  1
  V  V52  1  0.74828901  0.87329948  0.62485853  1
  V  V53  1  0.49784409  0.87450216  0.87827726  1
  V  V54  1  0.25080764  0.50166704  0.25064908  1
  V  V55  1  0.25057122  0.75193874  0.49959054  1
  V  V56  1  0.37699770  0.37563408  0.49358568  1
  V  V57  1  0.49754157  0.87837571  0.37688418  1
  V  V58  1  0.75209411  0.74902599  -0.00035312  1
  V  V59  1  0.12621259  0.87652738  0.24984593  1
  V  V60  1  0.74946943  0.24996509  0.49989364  1
  V  V61  1  0.12591054  0.00075152  0.12626187  1
  V  V62  1  0.37559592  0.37428998  -0.00137435  1
  V  V63  1  0.88021901  0.37303221  -0.00346395  1
  V  V64  1  0.50018758  0.12462744  0.62564847  1
  V  V65  1  0.11698415  0.37750662  0.75487218  1
  V  V66  1  0.74889784  0.12441758  0.37374328  1
  V  V67  1  0.62525649  0.74883065  0.87464582  1
  V  V68  1  0.75075637  0.87292702  0.12471234  1
  V  V69  1  0.37629824  0.75356571  0.12157554  1
  V  V70  1  0.62551396  0.37334115  0.74949284  1
  V  V71  1  0.11851180  0.25542544  0.87484856  1
  V  V72  1  0.87548224  0.37677147  0.49747462  1
  V  V73  1  0.37437676  0.75174964  0.62432016  1
  V  V74  1  0.00055735  0.12447406  0.12627911  1
  V  V75  1  0.23916510  0.12931981  0.37274778  1
  V  V76  1  0.12530209  0.37444463  0.25174065  1
  V  V77  1  0.50074384  0.75021864  0.24909040  1
  V  V78  1  0.25145750  0.50135159  0.75032957  1
  V  V79  1  -0.00064551  0.87440553  0.87597941  1
  V  V80  1  0.49613250  -0.00200892  0.00357430  1
  V  V81  1  0.37502624  0.62468844  0.75021720  1
  V  V82  1  0.24943790  0.87627719  0.62457663  1
  V  V83  1  0.75077719  0.49851977  0.74983899  1
  V  V84  1  0.50203750  0.62512692  0.12406583  1
  V  V85  1  0.12664501  0.75059339  0.37526057  1
  V  V86  1  0.00002982  0.74949515  0.74965199  1
  V  V87  1  0.12721744  0.62509998  -0.00046314  1
  V  V88  1  0.00683302  0.24911766  0.25388408  1
  V  V89  1  0.24936533  0.00137356  0.74991113  1
  V  V90  1  0.50002916  0.62469761  0.62449516  1
  V  V91  1  0.00097164  0.74955776  0.24894503  1
  V  V92  1  0.75084685  0.37430181  0.12928870  1
  Zn  Zn93  1  0.25298355  0.00263908  0.25230539  1
  Zn  Zn94  1  0.62440663  0.87286325  0.74929304  1
  Zn  Zn95  1  0.25241483  0.62503386  0.37530875  1
  Zn  Zn96  1  0.87586029  0.24940970  0.12347733  1
  Zn  Zn97  1  0.00121835  0.50153407  0.49616942  1
  Zn  Zn98  1  0.87405691  0.74787732  0.62577755  1
  Zn  Zn99  1  0.37445411  0.87777196  0.49974444  1
  Zn  Zn100  1  0.75166393  -0.00176845  0.24906817  1
  Zn  Zn101  1  0.75399384  0.62201090  0.37289872  1
  Zn  Zn102  1  0.37668949  0.50038748  0.87552096  1
  Zn  Zn103  1  -0.00047374  -0.00166454  0.00166860  1
  Zn  Zn104  1  0.00271392  0.24776661  0.74476380  1
  Zn  Zn105  1  0.87536617  0.62439135  0.74894065  1
  Zn  Zn106  1  0.38871534  0.12842510  0.26303279  1
  Zn  Zn107  1  0.24812950  0.12686623  0.87447272  1
  Zn  Zn108  1  0.87656106  0.87404892  0.00143434  1
  Zn  Zn109  1  0.24913340  0.25077795  -0.00189069  1
  Zn  Zn110  1  0.87411765  0.62217345  0.25150585  1
  Zn  Zn111  1  0.88380198  0.24395157  0.61839447  1
  Zn  Zn112  1  0.50538346  0.13010531  0.13236707  1
  Zn  Zn113  1  0.11419250  0.13562272  0.50307047  1
  Zn  Zn114  1  0.87472539  0.50161698  0.36976672  1
  Zn  Zn115  1  0.50114137  0.50034769  -0.00194624  1
  Zn  Zn116  1  0.37684561  0.49893684  0.37172659  1
  Zn  Zn117  1  0.37176322  0.00430120  0.37745067  1
  Zn  Zn118  1  0.87575578  -0.00057436  0.37553202  1
  Zn  Zn119  1  0.49504489  -0.00112193  0.50363303  1
  Zn  Zn120  1  0.75152083  0.50108056  0.25338670  1
  Zn  Zn121  1  0.62201499  -0.00114097  0.62496356  1
  Zn  Zn122  1  0.18972269  0.19058623  0.18460813  1
  Zn  Zn123  1  0.18799006  0.19029637  0.68895359  1
  Zn  Zn124  1  0.18871057  0.68898994  0.18755770  1
  Zn  Zn125  1  0.18733036  0.68918412  0.68739313  1
  Zn  Zn126  1  0.68541862  0.18942683  0.18812894  1
  Zn  Zn127  1  0.69028412  0.18762644  0.68651529  1
  Zn  Zn128  1  0.68991917  0.68627404  0.18826547  1
  Zn  Zn129  1  0.68675313  0.68515226  0.68729305  1
  Zn  Zn130  1  0.31005637  0.31136365  0.31375013  1
  Zn  Zn131  1  0.30694221  0.31199973  0.81467805  1
  Zn  Zn132  1  0.31315886  0.81245464  0.30997282  1
  Zn  Zn133  1  0.31318798  0.81440155  0.81134808  1
  Zn  Zn134  1  0.81277166  0.30938369  0.31461925  1
  Zn  Zn135  1  0.81183931  0.31154778  0.81358939  1
  Zn  Zn136  1  0.81380798  0.80939638  0.31217063  1
  Zn  Zn137  1  0.81433645  0.81033958  0.81114267  1
  Zn  Zn138  1  0.18835581  0.43922800  0.43667067  1
  Zn  Zn139  1  0.19076860  0.43827189  0.93582379  1
  Zn  Zn140  1  0.18549222  0.94101344  0.43993575  1
  Zn  Zn141  1  0.18691182  0.93852621  0.93996057  1
  Zn  Zn142  1  0.68734228  0.43567929  0.43217886  1
  Zn  Zn143  1  0.69006199  0.43694319  0.93845811  1
  Zn  Zn144  1  0.68536923  0.93774538  0.43623345  1
  Zn  Zn145  1  0.68545288  0.93450688  0.93896900  1
  Zn  Zn146  1  0.30996775  0.06318334  0.06189266  1
  Zn  Zn147  1  0.31073987  0.06319356  0.55882313  1
  Zn  Zn148  1  0.31432821  0.56347226  0.06282794  1
  Zn  Zn149  1  0.31314424  0.56364697  0.56216174  1
  Zn  Zn150  1  0.81133568  0.06187748  0.06416596  1
  Zn  Zn151  1  0.80994359  0.05909759  0.56155319  1
  Zn  Zn152  1  0.81394105  0.56076973  0.06344405  1
  Zn  Zn153  1  0.81266763  0.56066203  0.56039934  1
  Zn  Zn154  1  0.43610989  0.43923719  0.18354950  1
  Zn  Zn155  1  0.43721695  0.43767439  0.68463730  1
  Zn  Zn156  1  0.43474947  0.94329254  0.19456355  1
  Zn  Zn157  1  0.43721810  0.93784412  0.68921554  1
  Zn  Zn158  1  0.93704819  0.43814184  0.18624245  1
  Zn  Zn159  1  0.93710068  0.43836477  0.68299017  1
  Zn  Zn160  1  0.93792512  0.93757711  0.18781032  1
  Zn  Zn161  1  0.93582852  0.93709525  0.68759068  1
  Zn  Zn162  1  0.06453761  0.06123274  0.31608857  1
  Zn  Zn163  1  0.06162701  0.06249923  0.81480134  1
  Zn  Zn164  1  0.06208002  0.56182612  0.31336820  1
  Zn  Zn165  1  0.06332830  0.56352620  0.81202925  1
  Zn  Zn166  1  0.56237638  0.06128870  0.30956702  1
  Zn  Zn167  1  0.56068188  0.06286481  0.81404899  1
  Zn  Zn168  1  0.56712147  0.56019716  0.30960241  1
  Zn  Zn169  1  0.56252486  0.56067926  0.81274872  1
  Zn  Zn170  1  0.43053191  0.18628056  0.44094562  1
  Zn  Zn171  1  0.43744495  0.18598079  0.94094075  1
  Zn  Zn172  1  0.43733065  0.68767155  0.43657995  1
  Zn  Zn173  1  0.43715137  0.68767347  0.93927268  1
  Zn  Zn174  1  0.93605093  0.19018225  0.43433641  1
  Zn  Zn175  1  0.93924372  0.18701284  0.93307525  1
  Zn  Zn176  1  0.93641543  0.68859395  0.43717549  1
  Zn  Zn177  1  0.93800326  0.68472122  0.93760706  1
  Zn  Zn178  1  0.06156180  0.31053536  0.06572079  1
  Zn  Zn179  1  0.05814816  0.31499959  0.56992922  1
  Zn  Zn180  1  0.06458211  0.81443598  0.06174991  1
  Zn  Zn181  1  0.06300720  0.81572917  0.56271959  1
  Zn  Zn182  1  0.56203526  0.31346193  0.06296575  1
  Zn  Zn183  1  0.56238446  0.31094641  0.56033115  1
  Zn  Zn184  1  0.56382076  0.81221529  0.06097847  1
  Zn  Zn185  1  0.56300839  0.81122753  0.56138025  1
  O  O186  1  0.12083451  0.12182040  0.11777380  1
  O  O187  1  0.12828241  0.11244022  0.62516105  1
  O  O188  1  0.12209024  0.61988767  0.11810014  1
  O  O189  1  0.11806124  0.62209168  0.62059846  1
  O  O190  1  0.62696314  0.11751043  0.11755003  1
  O  O191  1  0.62039262  0.12699584  0.61528045  1
  O  O192  1  0.62111270  0.61920634  0.11959073  1
  O  O193  1  0.61943139  0.61756311  0.61887050  1
  O  O194  1  0.36976822  0.37564825  0.39035137  1
  O  O195  1  0.37942164  0.37416665  0.88304069  1
  O  O196  1  0.38742243  0.87364878  0.37480131  1
  O  O197  1  0.38555563  0.88681176  0.86877491  1
  O  O198  1  0.88400854  0.37288615  0.38324111  1
  O  O199  1  0.86758959  0.38475364  0.88531169  1
  O  O200  1  0.88131698  0.87666170  0.38102358  1
  O  O201  1  0.87924636  0.88404733  0.87469622  1
  O  O202  1  0.24722974  0.01660384  0.37741246  1
  O  O203  1  0.25909587  -0.00094145  0.87042723  1
  O  O204  1  0.25300370  0.50334148  0.36545143  1
  O  O205  1  0.25322526  0.50922656  0.86823361  1
  O  O206  1  0.75022906  0.01357019  0.37346883  1
  O  O207  1  0.75577649  0.00183705  0.86872619  1
  O  O208  1  0.75444466  0.50224338  0.37252715  1
  O  O209  1  0.75856343  0.50372487  0.86994049  1
  O  O210  1  0.24525950  0.49499277  0.13033208  1
  O  O211  1  0.24497078  0.49689686  0.63086534  1
  O  O212  1  0.24473369  0.99234327  0.12588034  1
  O  O213  1  0.24078886  0.99578218  0.63033742  1
  O  O214  1  0.74355746  0.48747425  0.12185902  1
  O  O215  1  0.74439993  0.49290508  0.62968769  1
  O  O216  1  0.74355995  0.99139309  0.12501030  1
  O  O217  1  0.74691468  0.99088691  0.63382930  1
  O  O218  1  0.00406333  0.36719024  0.25543442  1
  O  O219  1  0.01538865  0.37991537  0.74689035  1
  O  O220  1  0.00660045  0.87010861  0.25534833  1
  O  O221  1  0.00476144  0.87005447  0.75574211  1
  O  O222  1  0.51016778  0.37615490  0.24486840  1
  O  O223  1  0.50555203  0.36894320  0.75345852  1
  O  O224  1  0.50613411  0.86957011  0.25687568  1
  O  O225  1  0.50257370  0.86935975  0.76049348  1
  O  O226  1  0.49969959  0.12333932  0.24367539  1
  O  O227  1  0.49463358  0.13121252  0.74634199  1
  O  O228  1  0.49696252  0.63052085  0.24338265  1
  O  O229  1  0.49550275  0.62974574  0.74451711  1
  O  O230  1  0.99482098  0.13122857  0.24870841  1
  O  O231  1  0.98114344  0.11889233  0.75298794  1
  O  O232  1  1.00380681  0.63281844  0.24098779  1
  O  O233  1  1.00164781  0.63034541  0.73933166  1
  O  O234  1  0.37198108  0.26035617  0.00539307  1
  O  O235  1  0.36627990  0.25907027  0.50781783  1
  O  O236  1  0.36723993  0.74631727  0.00872836  1
  O  O237  1  0.36904429  0.75174828  0.50754065  1
  O  O238  1  0.87043964  0.25726820  -0.00342696  1
  O  O239  1  0.86818146  0.25906929  0.49863991  1
  O  O240  1  0.86935956  0.75047036  0.00487110  1
  O  O241  1  0.86741860  0.75765262  0.50402675  1
  O  O242  1  0.13773869  0.25322731  0.51017183  1
  O  O243  1  0.12316313  0.24390320  0.99295430  1
  O  O244  1  0.13093685  0.74682862  0.49532793  1
  O  O245  1  0.13266431  0.74452273  0.99420016  1
  O  O246  1  0.62963086  0.24211208  0.49194992  1
  O  O247  1  0.62975927  0.24409830  0.99482939  1
  O  O248  1  0.62946018  0.74260763  0.49505108  1
  O  O249  1  0.63170308  0.74278310  0.99389892  1
  O  O250  1  0.48332863  0.24973586  0.11805688  1
  O  O251  1  0.49425100  0.24526220  0.63172396  1
  O  O252  1  0.49673386  0.74602013  0.12926876  1
  O  O253  1  0.49553832  0.74465953  0.63069853  1
  O  O254  1  0.99647412  0.24329219  0.13626325  1
  O  O255  1  0.99498299  0.24950112  0.63257627  1
  O  O256  1  0.99752269  0.74557035  0.12852347  1
  O  O257  1  1.00140356  0.74180095  0.63048011  1
  O  O258  1  -0.00277920  0.25942150  0.36385992  1
  O  O259  1  0.01373539  0.24548488  0.86614444  1
  O  O260  1  0.00733767  0.75690042  0.36998275  1
  O  O261  1  0.00672649  0.75374885  0.87056802  1
  O  O262  1  0.51132579  0.24478147  0.38176608  1
  O  O263  1  0.50519614  0.25414725  0.86970042  1
  O  O264  1  0.50603517  0.75762049  0.36910018  1
  O  O265  1  0.50357016  0.75735559  0.87151774  1
  O  O266  1  0.24623965  0.13620719  0.49370911  1
  O  O267  1  0.23490240  0.12696416  0.99834264  1
  O  O268  1  0.24403833  0.63361404  0.50001475  1
  O  O269  1  0.24584210  0.63147280  0.99475019  1
  O  O270  1  0.74225434  0.12867286  0.49343861  1
  O  O271  1  0.74505752  0.12932702  0.99432453  1
  O  O272  1  0.74213051  0.63110668  0.50180930  1
  O  O273  1  0.74537820  0.62904531  0.99430170  1
  O  O274  1  0.25947094  0.37575622  0.00577605  1
  O  O275  1  0.25623949  0.37033238  0.50604786  1
  O  O276  1  0.24343357  0.86935721  0.01339259  1
  O  O277  1  0.24942901  0.86909577  0.50722842  1
  O  O278  1  0.75784512  0.36912240  0.00793508  1
  O  O279  1  0.75712058  0.36943631  0.50362890  1
  O  O280  1  0.75117857  0.86650523  0.00594668  1
  O  O281  1  0.75243030  0.87124136  0.50731921  1
  O  O282  1  0.13028359  0.49471449  0.24251706  1
  O  O283  1  0.13210546  0.49567209  0.74634886  1
  O  O284  1  0.12829384  0.99473003  0.24374320  1
  O  O285  1  0.12819144  0.99644764  0.74475107  1
  O  O286  1  0.62862525  0.48703692  0.24324226  1
  O  O287  1  0.63049746  0.49269036  0.74389687  1
  O  O288  1  0.62874233  0.99107611  0.24222314  1
  O  O289  1  0.63692828  0.99940782  0.75150519  1
  O  O290  1  0.36811955  0.00926076  0.25737802  1
  O  O291  1  0.36984905  0.00586925  0.75880267  1
  O  O292  1  0.36936126  0.50581849  0.24922677  1
  O  O293  1  0.36911282  0.50694599  0.74924952  1
  O  O294  1  0.87448125  0.01328364  0.25291458  1
  O  O295  1  0.86457547  0.00665157  0.75729707  1
  O  O296  1  0.87172383  0.50275909  0.24949921  1
  O  O297  1  0.87009393  0.49803079  0.75849151  1
  O  O298  1  0.11414050  0.37970424  0.36801539  1
  O  O299  1  0.13089952  0.36828598  0.86644358  1
  O  O300  1  0.12049582  0.87030698  0.37005325  1
  O  O301  1  0.12000003  0.87121065  0.86992817  1
  O  O302  1  0.63077208  0.36273420  0.36353760  1
  O  O303  1  0.62116311  0.36883385  0.86960447  1
  O  O304  1  0.61829945  0.86858104  0.36974133  1
  O  O305  1  0.61550076  0.86787587  0.87270019  1
  O  O306  1  0.37123516  0.14159569  0.12121478  1
  O  O307  1  0.37956617  0.13119017  0.63091757  1
  O  O308  1  0.38245202  0.63172398  0.12999194  1
  O  O309  1  0.38053440  0.63163451  0.63078275  1
  O  O310  1  0.88004167  0.12562899  0.13382456  1
  O  O311  1  0.86476773  0.12302586  0.64096920  1
  O  O312  1  0.88477375  0.63159938  0.12226573  1
  O  O313  1  0.88766042  0.62414604  0.62504925  1
  O  O314  1  0.25935135  0.25789494  0.12008496  1
  O  O315  1  0.25575104  0.25611187  0.61921303  1
  O  O316  1  0.25533432  0.75829665  0.12023950  1
  O  O317  1  0.25436958  0.75662721  0.62065392  1
  O  O318  1  0.75216454  0.25751802  0.11731244  1
  O  O319  1  0.75395248  0.25555522  0.61771284  1
  O  O320  1  0.75643100  0.75399619  0.11855154  1
  O  O321  1  0.74927893  0.75863653  0.62036432  1
  O  O322  1  0.25177155  0.24135239  0.38653540  1
  O  O323  1  0.23613444  0.24608181  0.87787864  1
  O  O324  1  0.24374201  0.75007037  0.38090701  1
  O  O325  1  0.24576363  0.74722724  0.87933147  1
  O  O326  1  0.74396788  0.23815028  0.38044548  1
  O  O327  1  0.74284245  0.24420990  0.88056382  1
  O  O328  1  0.74213612  0.75004281  0.38290409  1
  O  O329  1  0.74574336  0.74343485  0.87866991  1
  O  O330  1  0.00887360  0.12468191  0.00606119  1
  O  O331  1  -0.00258318  0.11218677  0.49369672  1
  O  O332  1  0.00880310  0.61853730  0.00451599  1
  O  O333  1  0.00748266  0.62637387  0.50972373  1
  O  O334  1  0.50623235  0.11359204  0.00331938  1
  O  O335  1  0.50844990  0.12640727  0.50713422  1
  O  O336  1  0.50806110  0.62445107  0.00605605  1
  O  O337  1  0.50465793  0.61695667  0.50634903  1
  O  O338  1  0.48921284  0.38438107  0.50911628  1
  O  O339  1  0.49207049  0.37539587  0.99314643  1
  O  O340  1  0.50037408  0.87511989  0.48960160  1
  O  O341  1  0.50529481  0.88454431  0.98839316  1
  O  O342  1  0.99313798  0.37358124  0.49123919  1
  O  O343  1  0.98792265  0.37977907  1.00668063  1
  O  O344  1  0.99373234  0.88229880  0.49582449  1
  O  O345  1  0.99782124  0.87793580  0.99164550  1
  O  O346  1  0.49972540  0.50407716  0.38971142  1
  O  O347  1  0.49710988  0.49134669  0.87662544  1
  O  O348  1  0.50234477  0.98669912  0.37723629  1
  O  O349  1  0.49376643  0.99380075  0.88188422  1
  O  O350  1  0.99766878  0.48699632  0.37608240  1
  O  O351  1  0.98896925  0.50602476  0.88065583  1
  O  O352  1  1.00021955  0.99268639  0.38593532  1
  O  O353  1  0.98900978  0.99355916  0.87488050  1
  O  O354  1  0.00726748  0.00699849  0.12408815  1
  O  O355  1  0.00784834  -0.00684867  0.61670442  1
  O  O356  1  0.00800139  0.50491756  0.11732828  1
  O  O357  1  0.00721251  0.51068822  0.62282672  1
  O  O358  1  0.50513656  -0.00551075  0.11380717  1
  O  O359  1  0.50385945  0.00807928  0.62620067  1
  O  O360  1  0.50819023  0.50736355  0.12190222  1
  O  O361  1  0.50589182  0.50551029  0.61748866  1
  O  O362  1  0.24462672  0.38058301  0.24471505  1
  O  O363  1  0.24289858  0.38222916  0.74470809  1
  O  O364  1  0.24292381  0.87519283  0.23969847  1
  O  O365  1  0.24352154  0.88194801  0.74514737  1
  O  O366  1  0.75035377  0.37070150  0.23556133  1
  O  O367  1  0.74478460  0.37850423  0.74492608  1
  O  O368  1  0.74433838  0.87446441  0.24361813  1
  O  O369  1  0.74970080  0.88203788  0.74277649  1
  O  O370  1  0.24562253  0.13090367  0.26651708  1
  O  O371  1  0.25644119  0.11822876  0.75176406  1
  O  O372  1  0.25743164  0.61930619  0.24847644  1
  O  O373  1  0.25523443  0.62190747  0.75472389  1
  O  O374  1  0.75797566  0.12617936  0.25722331  1
  O  O375  1  0.75529865  0.11618332  0.75643010  1
  O  O376  1  0.75380952  0.62146808  0.25248144  1
  O  O377  1  0.75182052  0.61602818  0.75500395  1
  O  O378  1  0.35890208  0.12669383  0.37717811  1
  O  O379  1  0.37454664  0.11472920  0.87001364  1
  O  O380  1  0.37394323  0.62356728  0.36463749  1
  O  O381  1  0.36971592  0.62492117  0.86804859  1
  O  O382  1  0.86528294  0.12484959  0.36701340  1
  O  O383  1  0.86826309  0.11526398  0.86716754  1
  O  O384  1  0.87430375  0.62186490  0.37234462  1
  O  O385  1  0.86906333  0.61288899  0.87440949  1
  O  O386  1  0.13024794  0.38092177  0.12998116  1
  O  O387  1  0.13139739  0.38315969  0.63416192  1
  O  O388  1  0.13287153  0.88080941  0.13055988  1
  O  O389  1  0.12993605  0.88421922  0.63234175  1
  O  O390  1  0.63244940  0.37630518  0.13156433  1
  O  O391  1  0.63112552  0.37786012  0.62985118  1
  O  O392  1  0.63110048  0.87797370  0.12958368  1
  O  O393  1  0.63596426  0.87662940  0.62687558  1
  O  O394  1  0.11340099  0.25737898  0.24304609  1
  O  O395  1  0.12660638  0.26072188  0.75683197  1
  O  O396  1  0.12037703  0.75643749  0.25478350  1
  O  O397  1  0.12050304  0.75701063  0.75655742  1
  O  O398  1  0.62823862  0.25783609  0.25843026  1
  O  O399  1  0.62019276  0.25383412  0.75566877  1
  O  O400  1  0.61900510  0.75515803  0.25412976  1
  O  O401  1  0.61800520  0.74876564  0.75722182  1
  O  O402  1  0.36935122  0.25106316  0.23480560  1
  O  O403  1  0.37897881  0.24571743  0.74648673  1
  O  O404  1  0.38196337  0.74449271  0.24169782  1
  O  O405  1  0.38050629  0.74452256  0.74462358  1
  O  O406  1  0.88429671  0.23849819  0.24914487  1
  O  O407  1  0.87270781  0.23320531  0.75488796  1
  O  O408  1  0.88483065  0.74911094  0.24164424  1
  O  O409  1  0.88363884  0.74535060  0.74687729  1
  O  O410  1  0.38242305  0.49263995  0.50074653  1
  O  O411  1  0.37769435  0.48690821  1.00043829  1
  O  O412  1  0.37788339  0.99554704  0.49592621  1
  O  O413  1  0.38431775  1.00639103  0.99041857  1
  O  O414  1  0.87829043  0.48561765  0.49934871  1
  O  O415  1  0.88044540  0.49192693  0.99235182  1
  O  O416  1  0.88196420  0.99367809  0.49960295  1
  O  O417  1  0.87506312  0.99997430  0.98735996  1
  O  O418  1  0.12224696  0.01050898  0.00544896  1
  O  O419  1  0.11436366  0.00100737  0.51088088  1
  O  O420  1  0.12213479  0.50473937  0.00382966  1
  O  O421  1  0.12495052  0.50765004  0.50746884  1
  O  O422  1  0.61653179  0.00395713  0.00387114  1
  O  O423  1  0.62342173  0.01450659  0.50075331  1
  O  O424  1  0.62488271  0.50514299  0.00613597  1
  O  O425  1  0.61721286  0.50119760  0.50501417  1
  O  O426  1  0.37101355  0.36615365  0.11747911  1
  O  O427  1  0.36809983  0.37026022  0.61805799  1
  O  O428  1  0.36322580  0.87026611  0.13290437  1
  O  O429  1  0.36789544  0.86859564  0.62670552  1
  O  O430  1  0.86729142  0.37301112  0.11356134  1
  O  O431  1  0.86922219  0.37351907  0.61471652  1
  O  O432  1  0.86958710  0.86855979  0.12340187  1
  O  O433  1  0.86217006  0.87465475  0.62012427  1
  O  O434  1  0.13491470  0.12651622  0.38252029  1
  O  O435  1  0.12439203  0.13171176  0.88306644  1
  O  O436  1  0.12602701  0.63287918  0.38168825  1
  O  O437  1  0.13192498  0.63167809  0.87982700  1
  O  O438  1  0.63139434  0.13150220  0.38105154  1
  O  O439  1  0.62933449  0.12963448  0.88097045  1
  O  O440  1  0.62421724  0.63179605  0.38183343  1
  O  O441  1  0.63091413  0.62873185  0.87995547  1
