# generated using pymatgen
data_V93Zn93O256
_symmetry_space_group_name_H-M   'P 1'
_cell_length_a   17.05653053
_cell_length_b   17.06015773
_cell_length_c   17.05925174
_cell_angle_alpha   89.91530325
_cell_angle_beta   90.10242342
_cell_angle_gamma   89.93608386
_symmetry_Int_Tables_number   1
_chemical_formula_structural   V93Zn93O256
_chemical_formula_sum   'V93 Zn93 O256'
_cell_volume   4964.00575414
_cell_formula_units_Z   1
loop_
 _symmetry_equiv_pos_site_id
 _symmetry_equiv_pos_as_xyz
  1  'x, y, z'
loop_
 _atom_site_type_symbol
 _atom_site_label
 _atom_site_symmetry_multiplicity
 _atom_site_fract_x
 _atom_site_fract_y
 _atom_site_fract_z
 _atom_site_occupancy
  V  V0  1  0.12512024  0.37298259  0.24975868  1
  V  V1  1  0.00104525  0.12480091  0.62433784  1
  V  V2  1  0.49593796  0.24935199  0.24772155  1
  V  V3  1  0.75127198  0.24976483  0.49942907  1
  V  V4  1  0.37355478  0.62492807  0.75133567  1
  V  V5  1  0.37533084  0.74820718  0.12491244  1
  V  V6  1  0.00480272  0.74710215  0.25363531  1
  V  V7  1  0.12881299  0.12375344  0.50007116  1
  V  V8  1  0.37482008  0.50120680  0.87490370  1
  V  V9  1  0.87532746  0.37654393  0.50026159  1
  V  V10  1  0.50047474  0.37568312  0.87580975  1
  V  V11  1  0.25504769  0.25059329  0.50011955  1
  V  V12  1  0.87004462  0.87579665  0.49620689  1
  V  V13  1  0.37378853  0.75022078  0.62329135  1
  V  V14  1  0.37507153  0.25471026  0.62596912  1
  V  V15  1  0.87647069  0.25080003  0.62424547  1
  V  V16  1  0.25094302  0.12400280  0.37684635  1
  V  V17  1  0.62521803  -0.00037247  0.12601624  1
  V  V18  1  0.12543192  0.62374442  -0.00115810  1
  V  V19  1  0.50076398  0.00037916  0.00120288  1
  V  V20  1  0.62590693  0.37494046  0.25075602  1
  V  V21  1  0.62555225  0.49682537  0.62495556  1
  V  V22  1  0.50129911  0.87634334  0.87502938  1
  V  V23  1  0.62611428  0.50043484  0.12561355  1
  V  V24  1  0.87511144  0.87464231  -0.00217816  1
  V  V25  1  0.87554873  0.74923462  0.12510259  1
  V  V26  1  0.75059222  0.12574753  0.87520505  1
  V  V27  1  0.00141552  0.49956565  -0.00013999  1
  V  V28  1  0.00088151  0.24846479  0.24982375  1
  V  V29  1  0.49992887  0.50052794  0.00079574  1
  V  V30  1  -0.00147901  0.75196112  0.74804003  1
  V  V31  1  0.74180611  0.00220257  0.74570601  1
  V  V32  1  0.24930152  0.00089869  0.75172407  1
  V  V33  1  0.00053903  0.37516172  0.87469807  1
  V  V34  1  0.25123321  0.37739275  0.62042960  1
  V  V35  1  0.12446894  0.74935679  0.87496434  1
  V  V36  1  0.12395710  -0.00070542  0.12512147  1
  V  V37  1  0.37460335  0.87385342  0.00126214  1
  V  V38  1  0.87296105  0.62603176  0.74896054  1
  V  V39  1  0.87461495  0.50124491  0.87429035  1
  V  V40  1  0.87551297  0.37493263  0.00031806  1
  V  V41  1  0.87534737  0.24771739  0.12667830  1
  V  V42  1  0.49924776  0.75154686  0.74983360  1
  V  V43  1  0.75012225  0.87525498  0.12500696  1
  V  V44  1  0.49390556  0.37451419  0.38001147  1
  V  V45  1  0.86744033  0.75172873  0.61934649  1
  V  V46  1  0.74973273  0.75061133  -0.00060733  1
  V  V47  1  -0.00232857  0.87557411  0.87492437  1
  V  V48  1  0.74977631  0.24889040  0.00078268  1
  V  V49  1  0.87507896  0.62323399  0.25039564  1
  V  V50  1  0.24113702  0.74800220  0.49373836  1
  V  V51  1  0.00071742  0.24953638  0.74982399  1
  V  V52  1  0.12820797  0.49540411  0.12381453  1
  V  V53  1  0.24886735  0.87477553  0.62561436  1
  V  V54  1  0.75794432  -0.00033117  0.25372871  1
  V  V55  1  0.49948686  0.25135435  0.75009210  1
  V  V56  1  0.62446916  0.75133379  0.87268646  1
  V  V57  1  0.12682636  0.24995669  0.87648173  1
  V  V58  1  0.12310696  0.87550315  0.75009171  1
  V  V59  1  0.75167749  0.50074391  0.25143737  1
  V  V60  1  0.12495925  0.37592118  0.74926807  1
  V  V61  1  0.37737294  -0.00153434  0.37563345  1
  V  V62  1  0.62510010  0.62525595  -0.00023557  1
  V  V63  1  0.50039541  0.62532940  0.12680026  1
  V  V64  1  0.37368025  0.00100564  0.87667761  1
  V  V65  1  0.12567197  0.87001693  0.25289098  1
  V  V66  1  0.75684528  0.12213096  0.37415433  1
  V  V67  1  0.74987954  0.62536859  0.87372419  1
  V  V68  1  0.75048108  0.37363941  0.12592032  1
  V  V69  1  0.62903452  0.63013048  0.49696583  1
  V  V70  1  0.49350812  0.49522447  0.50035063  1
  V  V71  1  0.62538510  0.25160643  0.87643612  1
  V  V72  1  0.12280374  0.50396035  0.62162806  1
  V  V73  1  0.49983845  0.87393284  0.37529610  1
  V  V74  1  -0.00131114  0.62672544  0.62264852  1
  V  V75  1  0.24834857  -0.00067608  0.24991072  1
  V  V76  1  0.24958568  0.74889226  0.00006754  1
  V  V77  1  0.62581896  0.87377525  0.25062057  1
  V  V78  1  0.62581009  0.24690752  0.37747382  1
  V  V79  1  0.37297960  0.36818258  0.00634759  1
  V  V80  1  -0.00464160  0.00077633  0.49478169  1
  V  V81  1  0.49709887  0.12684700  0.12602051  1
  V  V82  1  0.50078203  0.74906548  0.25047873  1
  V  V83  1  0.24905164  0.12521143  0.87600336  1
  V  V84  1  0.74363625  0.88022830  0.62237977  1
  V  V85  1  0.00025110  0.37488197  0.37543597  1
  V  V86  1  0.25361077  0.49902231  0.25237120  1
  V  V87  1  -0.00244604  0.87612985  0.37346006  1
  V  V88  1  0.12668025  0.00017025  0.62417301  1
  V  V89  1  0.12441897  0.12395858  0.00022684  1
  V  V90  1  0.37449994  0.12637771  0.24831030  1
  V  V91  1  0.00036787  0.12408209  0.12522015  1
  V  V92  1  0.87474548  0.12494701  0.74976629  1
  Zn  Zn93  1  0.87436059  0.00003200  0.87462919  1
  Zn  Zn94  1  0.63508961  0.75490646  0.38055157  1
  Zn  Zn95  1  0.50574868  0.11825586  0.62501963  1
  Zn  Zn96  1  0.62267423  0.87891269  0.74444294  1
  Zn  Zn97  1  0.24817727  0.62337984  0.87433907  1
  Zn  Zn98  1  0.12695977  0.24864005  0.37541518  1
  Zn  Zn99  1  0.37539913  0.12663962  0.75272734  1
  Zn  Zn100  1  0.24618971  0.62688293  0.37132344  1
  Zn  Zn101  1  0.75455904  0.63032361  0.37987739  1
  Zn  Zn102  1  -0.00157516  0.50474275  0.49678458  1
  Zn  Zn103  1  0.62713483  0.11394376  0.51076197  1
  Zn  Zn104  1  0.50729495  -0.00179195  0.51055166  1
  Zn  Zn105  1  0.75099010  0.37444027  0.62859361  1
  Zn  Zn106  1  0.25412338  0.24444691  0.00761559  1
  Zn  Zn107  1  0.00148119  0.62410319  0.12477284  1
  Zn  Zn108  1  0.62617020  0.12470991  0.00159872  1
  Zn  Zn109  1  0.62794750  0.37746589  0.75114686  1
  Zn  Zn110  1  0.37211590  0.50076614  0.38073379  1
  Zn  Zn111  1  -0.00209239  -0.00062407  -0.00126178  1
  Zn  Zn112  1  0.11555446  0.63288690  0.48741483  1
  Zn  Zn113  1  0.37597056  0.62318481  0.25405902  1
  Zn  Zn114  1  0.24969197  0.50010260  0.74977359  1
  Zn  Zn115  1  0.74882837  0.49870142  0.74956328  1
  Zn  Zn116  1  0.87304449  0.50030080  0.37594047  1
  Zn  Zn117  1  0.50002675  0.62429240  0.62258758  1
  Zn  Zn118  1  0.24939812  0.87331683  0.12550475  1
  Zn  Zn119  1  0.87994314  0.11932537  0.25304381  1
  Zn  Zn120  1  0.25889535  0.36348147  0.13222144  1
  Zn  Zn121  1  0.37457830  0.87222140  0.49834467  1
  Zn  Zn122  1  0.18806908  0.18811046  0.18610102  1
  Zn  Zn123  1  0.18860470  0.18770288  0.68800016  1
  Zn  Zn124  1  0.18855406  0.68338808  0.18504391  1
  Zn  Zn125  1  0.18684107  0.68760416  0.68541896  1
  Zn  Zn126  1  0.68611395  0.18503955  0.18987660  1
  Zn  Zn127  1  0.68718671  0.19031593  0.68833688  1
  Zn  Zn128  1  0.68788015  0.68848655  0.19017002  1
  Zn  Zn129  1  0.68566529  0.68691108  0.68504920  1
  Zn  Zn130  1  0.31296391  0.31290903  0.31393662  1
  Zn  Zn131  1  0.31144693  0.31464711  0.81432552  1
  Zn  Zn132  1  0.31446621  0.81140529  0.31030881  1
  Zn  Zn133  1  0.31116069  0.81295622  0.81438754  1
  Zn  Zn134  1  0.81432232  0.31039784  0.31232267  1
  Zn  Zn135  1  0.81165435  0.31356670  0.81181469  1
  Zn  Zn136  1  0.81320748  0.80983374  0.31413523  1
  Zn  Zn137  1  0.81084198  0.81408636  0.80885032  1
  Zn  Zn138  1  0.18480579  0.43855900  0.43704160  1
  Zn  Zn139  1  0.19143824  0.43753564  0.93586138  1
  Zn  Zn140  1  0.18692478  0.93462924  0.43653369  1
  Zn  Zn141  1  0.18625768  0.93657668  0.93885545  1
  Zn  Zn142  1  0.68616429  0.44003950  0.43667504  1
  Zn  Zn143  1  0.68833989  0.43767676  0.93761585  1
  Zn  Zn144  1  0.68458852  0.94143599  0.43778630  1
  Zn  Zn145  1  0.68762763  0.93951097  0.93510926  1
  Zn  Zn146  1  0.31142792  0.06133127  0.06354518  1
  Zn  Zn147  1  0.33778415  0.05360586  0.57588508  1
  Zn  Zn148  1  0.31268089  0.56092562  0.06363754  1
  Zn  Zn149  1  0.31073504  0.56558521  0.56337798  1
  Zn  Zn150  1  0.81413982  0.06156770  0.06275143  1
  Zn  Zn151  1  0.81070686  0.06310887  0.56209744  1
  Zn  Zn152  1  0.81291299  0.56287221  0.06330241  1
  Zn  Zn153  1  0.81068639  0.56049163  0.56358981  1
  Zn  Zn154  1  0.44038201  0.43707862  0.18912876  1
  Zn  Zn155  1  0.43871488  0.43688451  0.68722118  1
  Zn  Zn156  1  0.43714121  0.93692459  0.18810619  1
  Zn  Zn157  1  0.43526316  0.93651474  0.69102932  1
  Zn  Zn158  1  0.93942739  0.43636180  0.18673890  1
  Zn  Zn159  1  0.93851538  0.43956386  0.68729886  1
  Zn  Zn160  1  0.93846408  0.93571321  0.18436107  1
  Zn  Zn161  1  0.93343964  0.94011020  0.68566375  1
  Zn  Zn162  1  0.06470848  0.06105534  0.31307846  1
  Zn  Zn163  1  0.06183157  0.06168312  0.81396446  1
  Zn  Zn164  1  0.06580721  0.56123136  0.31314993  1
  Zn  Zn165  1  0.06102283  0.56378912  0.80949854  1
  Zn  Zn166  1  0.56622339  0.06102464  0.31461752  1
  Zn  Zn167  1  0.56292947  0.06691939  0.81363625  1
  Zn  Zn168  1  0.56245753  0.56105940  0.31492603  1
  Zn  Zn169  1  0.56062292  0.56376233  0.81131418  1
  Zn  Zn170  1  0.43807366  0.18462455  0.44012231  1
  Zn  Zn171  1  0.43907485  0.18636040  0.93685559  1
  Zn  Zn172  1  0.43606086  0.68201564  0.43613142  1
  Zn  Zn173  1  0.43790694  0.68790143  0.93733885  1
  Zn  Zn174  1  0.93847087  0.18921847  0.43740068  1
  Zn  Zn175  1  0.93787364  0.18711748  0.93802587  1
  Zn  Zn176  1  0.93631253  0.69142501  0.43536367  1
  Zn  Zn177  1  0.93855297  0.68743769  0.93695658  1
  Zn  Zn178  1  0.06417794  0.31003684  0.06230513  1
  Zn  Zn179  1  0.06560231  0.31236178  0.56136877  1
  Zn  Zn180  1  0.06169160  0.81180179  0.06405629  1
  Zn  Zn181  1  0.05913793  0.81497742  0.56331606  1
  Zn  Zn182  1  0.56255448  0.31242947  0.06256750  1
  Zn  Zn183  1  0.56461705  0.30904456  0.56390185  1
  Zn  Zn184  1  0.56260706  0.81235862  0.06281733  1
  Zn  Zn185  1  0.55917410  0.81320284  0.56065315  1
  O  O186  1  0.11893115  0.11814455  0.12027060  1
  O  O187  1  0.12057358  0.11910336  0.61989356  1
  O  O188  1  0.12350077  0.61138108  0.11839725  1
  O  O189  1  0.11755687  0.61765035  0.62442485  1
  O  O190  1  0.61384185  0.11811789  0.12615055  1
  O  O191  1  0.61344794  0.15295375  0.61660048  1
  O  O192  1  0.62121275  0.62000699  0.11901514  1
  O  O193  1  0.62217058  0.61675695  0.61499193  1
  O  O194  1  0.39101760  0.37648753  0.37113287  1
  O  O195  1  0.38101899  0.38233019  0.88388731  1
  O  O196  1  0.38396438  0.88251008  0.37107185  1
  O  O197  1  0.38123175  0.88039730  0.88125839  1
  O  O198  1  0.88352792  0.37350127  0.38314366  1
  O  O199  1  0.88108381  0.38039544  0.88111804  1
  O  O200  1  0.88659816  0.87191478  0.38357655  1
  O  O201  1  0.88013490  0.87318528  0.88021059  1
  O  O202  1  0.25609343  0.00306536  0.36841825  1
  O  O203  1  0.25329934  0.00464607  0.87103375  1
  O  O204  1  0.25249070  0.49420714  0.36365981  1
  O  O205  1  0.25829959  0.50321227  0.86960332  1
  O  O206  1  0.74418010  0.01037193  0.36392612  1
  O  O207  1  0.75196117  0.00699386  0.86494798  1
  O  O208  1  0.75232402  0.50516125  0.36575655  1
  O  O209  1  0.75686069  0.50805372  0.87574548  1
  O  O210  1  0.24135051  0.49376025  0.13144281  1
  O  O211  1  0.24180354  0.49333882  0.62488702  1
  O  O212  1  0.24303900  0.99736156  0.13314806  1
  O  O213  1  0.24761640  0.99472161  0.63056263  1
  O  O214  1  0.74516338  0.49303549  0.12964956  1
  O  O215  1  0.73868633  0.49694405  0.62673905  1
  O  O216  1  0.74465206  0.99491171  0.13252397  1
  O  O217  1  0.75627294  0.99169629  0.63440319  1
  O  O218  1  0.00425733  0.36905991  0.25742338  1
  O  O219  1  0.00470919  0.36928733  0.75529040  1
  O  O220  1  0.00462377  0.86850983  0.25574233  1
  O  O221  1  0.00366874  0.87109502  0.75281565  1
  O  O222  1  0.50640470  0.36697049  0.25630191  1
  O  O223  1  0.50080212  0.36729088  0.75868935  1
  O  O224  1  0.50587818  0.86978366  0.25621631  1
  O  O225  1  0.50200748  0.87049770  0.75619194  1
  O  O226  1  0.49670653  0.13084540  0.24524741  1
  O  O227  1  0.49699600  0.14007782  0.74985102  1
  O  O228  1  0.50105670  0.63020465  0.24393708  1
  O  O229  1  0.48816695  0.63250640  0.74794456  1
  O  O230  1  0.99987059  0.12950803  0.24530020  1
  O  O231  1  0.99601027  0.13004732  0.74379485  1
  O  O232  1  0.99352359  0.63138387  0.24850068  1
  O  O233  1  0.99236742  0.63292425  0.74295789  1
  O  O234  1  0.37812476  0.26589193  -0.00520965  1
  O  O235  1  0.36243157  0.24775663  0.50891500  1
  O  O236  1  0.37048845  0.75462590  0.00466968  1
  O  O237  1  0.36646016  0.74896631  0.51115291  1
  O  O238  1  0.87006277  0.25608911  0.00628226  1
  O  O239  1  0.87194904  0.25791718  0.50475581  1
  O  O240  1  0.86875238  0.75349457  0.00501090  1
  O  O241  1  0.88105299  0.76322554  0.50948410  1
  O  O242  1  0.13654560  0.24214092  0.50049232  1
  O  O243  1  0.12530064  0.24241315  0.99200558  1
  O  O244  1  0.13783719  0.75276139  0.50663100  1
  O  O245  1  0.12874809  0.74408491  0.99555332  1
  O  O246  1  0.63301744  0.25661971  0.48497658  1
  O  O247  1  0.63194428  0.24904318  0.99509988  1
  O  O248  1  0.61715472  0.73251383  0.50178812  1
  O  O249  1  0.63013304  0.74480940  0.99403996  1
  O  O250  1  0.50895793  0.24004094  0.13756345  1
  O  O251  1  0.48715470  0.26254985  0.63564243  1
  O  O252  1  0.49568138  0.74435325  0.12965635  1
  O  O253  1  0.48803165  0.75091418  0.63041317  1
  O  O254  1  0.99546936  0.24418348  0.13040569  1
  O  O255  1  0.99746520  0.24401058  0.62971159  1
  O  O256  1  0.99391480  0.74850124  0.13619922  1
  O  O257  1  0.98968800  0.74761606  0.62945003  1
  O  O258  1  0.00216417  0.25914958  0.36976581  1
  O  O259  1  0.00573504  0.25598505  0.86917099  1
  O  O260  1  -0.00303113  0.76057461  0.36195160  1
  O  O261  1  0.00481017  0.75539477  0.86747337  1
  O  O262  1  0.50786894  0.25492048  0.36885732  1
  O  O263  1  0.50447025  0.25507456  0.86855131  1
  O  O264  1  0.49887947  0.76102272  0.36977752  1
  O  O265  1  0.50451412  0.75670315  0.87020173  1
  O  O266  1  0.24704263  0.13290478  0.49597065  1
  O  O267  1  0.24312088  0.12352053  0.99340356  1
  O  O268  1  0.24666207  0.64144842  0.50373198  1
  O  O269  1  0.24312942  0.63032157  0.99822640  1
  O  O270  1  0.75019319  0.13136530  0.49027495  1
  O  O271  1  0.74963404  0.13166916  0.99467476  1
  O  O272  1  0.73293585  0.61788601  0.50008529  1
  O  O273  1  0.74482908  0.63106953  0.99487486  1
  O  O274  1  0.26635547  0.37570058  0.00021223  1
  O  O275  1  0.24073835  0.36485193  0.51128045  1
  O  O276  1  0.25630963  0.86756605  0.00190300  1
  O  O277  1  0.25114227  0.86465767  0.50641149  1
  O  O278  1  0.75619758  0.36960206  0.00637777  1
  O  O279  1  0.76230098  0.36944923  0.49720614  1
  O  O280  1  0.75404397  0.86912674  0.00490416  1
  O  O281  1  0.76354836  0.88651733  0.50668221  1
  O  O282  1  0.13225918  0.49254063  0.24099131  1
  O  O283  1  0.12478523  0.49550853  0.73837228  1
  O  O284  1  0.12916104  0.99062130  0.24508769  1
  O  O285  1  0.12961351  0.99488967  0.74382363  1
  O  O286  1  0.63082139  0.49501263  0.24430921  1
  O  O287  1  0.62311558  0.50110659  0.73802778  1
  O  O288  1  0.63443194  0.99320561  0.24488078  1
  O  O289  1  0.63704331  1.00129611  0.75172492  1
  O  O290  1  0.36867369  0.00432065  0.25753453  1
  O  O291  1  0.36565470  0.00159699  0.76099295  1
  O  O292  1  0.36356190  0.49789627  0.24829371  1
  O  O293  1  0.37645815  0.51008346  0.75435936  1
  O  O294  1  0.86178729  -0.00155872  0.24495429  1
  O  O295  1  0.86496739  0.00804247  0.75084543  1
  O  O296  1  0.87150892  0.50837276  0.24778016  1
  O  O297  1  0.87526565  0.50844092  0.75643220  1
  O  O298  1  0.11493491  0.37235604  0.36988749  1
  O  O299  1  0.11990199  0.37116338  0.86981947  1
  O  O300  1  0.11320419  0.87912441  0.36208712  1
  O  O301  1  0.11824902  0.86898323  0.86907010  1
  O  O302  1  0.61855083  0.36696696  0.36822056  1
  O  O303  1  0.61742731  0.36991733  0.87699490  1
  O  O304  1  0.61496130  0.87432772  0.36929192  1
  O  O305  1  0.61862638  0.86854800  0.87268368  1
  O  O306  1  0.38953793  0.11665512  0.13216481  1
  O  O307  1  0.36998613  0.14796667  0.63371394  1
  O  O308  1  0.38379744  0.63019323  0.12576023  1
  O  O309  1  0.37562366  0.63476910  0.63401237  1
  O  O310  1  0.88222884  0.13097557  0.12702734  1
  O  O311  1  0.88210093  0.13126426  0.62912826  1
  O  O312  1  0.87798791  0.63006806  0.13370437  1
  O  O313  1  0.87720607  0.63373045  0.62737999  1
  O  O314  1  0.24987695  0.25201064  0.12036239  1
  O  O315  1  0.25362281  0.25867697  0.61970505  1
  O  O316  1  0.25670010  0.75040266  0.11809796  1
  O  O317  1  0.25642028  0.75547877  0.61874959  1
  O  O318  1  0.75383758  0.25454381  0.12175605  1
  O  O319  1  0.76031144  0.25276191  0.61727607  1
  O  O320  1  0.75477405  0.75598594  0.11952009  1
  O  O321  1  0.76222218  0.76032250  0.63069382  1
  O  O322  1  0.25113280  0.24455622  0.38461818  1
  O  O323  1  0.24365300  0.24390495  0.87850028  1
  O  O324  1  0.25562470  0.75385547  0.39234857  1
  O  O325  1  0.24192587  0.74840042  0.88160582  1
  O  O326  1  0.74303512  0.24342015  0.37709512  1
  O  O327  1  0.74569208  0.24572889  0.88118297  1
  O  O328  1  0.74660424  0.74327609  0.37079460  1
  O  O329  1  0.74452340  0.74519574  0.87938034  1
  O  O330  1  0.00641784  0.12335636  0.00678121  1
  O  O331  1  0.00546481  0.11816102  0.50327915  1
  O  O332  1  0.00673412  0.61751218  0.00139720  1
  O  O333  1  -0.00117716  0.62527281  0.50655589  1
  O  O334  1  0.50101811  0.11974627  0.01024253  1
  O  O335  1  0.50374166  0.11998007  0.50170103  1
  O  O336  1  0.50638633  0.62020311  0.00554465  1
  O  O337  1  0.50947888  0.61390724  0.50138321  1
  O  O338  1  0.50835938  0.38264962  0.48941461  1
  O  O339  1  0.49195210  0.38053988  0.99636424  1
  O  O340  1  0.49500080  0.87660759  0.48784943  1
  O  O341  1  0.49495469  0.88058472  0.99491274  1
  O  O342  1  0.99226928  0.37272033  0.49175995  1
  O  O343  1  0.99510268  0.37964167  0.99405102  1
  O  O344  1  0.99423518  0.88190373  0.49249230  1
  O  O345  1  0.99297676  0.87320375  0.99313010  1
  O  O346  1  0.50063853  0.48988410  0.38256990  1
  O  O347  1  0.49533640  0.49614822  0.88179006  1
  O  O348  1  0.49104358  0.98933038  0.36813503  1
  O  O349  1  0.49510780  0.99673976  0.88070427  1
  O  O350  1  0.99745060  0.48526530  0.37511368  1
  O  O351  1  0.99482640  0.49458061  0.87964668  1
  O  O352  1  1.00358749  0.99159108  0.38553811  1
  O  O353  1  0.99636621  0.99104044  0.87627721  1
  O  O354  1  0.00631724  0.00598378  0.12406563  1
  O  O355  1  0.00649895  0.00483118  0.61625692  1
  O  O356  1  0.01098694  0.49894267  0.11862268  1
  O  O357  1  0.00742227  0.50764434  0.62341125  1
  O  O358  1  0.50579494  0.00663467  0.12203206  1
  O  O359  1  0.45282875  0.01414158  0.61359943  1
  O  O360  1  0.50785064  0.50507883  0.12087732  1
  O  O361  1  0.50769311  0.49884802  0.61714314  1
  O  O362  1  0.24427485  0.38088612  0.24963204  1
  O  O363  1  0.24213100  0.37609736  0.73940839  1
  O  O364  1  0.23966410  0.87813192  0.25010845  1
  O  O365  1  0.24257903  0.88029839  0.74609459  1
  O  O366  1  0.74601297  0.37947137  0.24493962  1
  O  O367  1  0.74676530  0.38002471  0.74730506  1
  O  O368  1  0.74657142  0.88147557  0.24497133  1
  O  O369  1  0.74821953  0.88499874  0.74062580  1
  O  O370  1  0.25464289  0.11941204  0.25672672  1
  O  O371  1  0.24923260  0.11840944  0.75833450  1
  O  O372  1  0.25148349  0.61063776  0.24785829  1
  O  O373  1  0.26250690  0.62533593  0.75031724  1
  O  O374  1  0.75225150  0.11653077  0.25620872  1
  O  O375  1  0.75495098  0.12044563  0.75401010  1
  O  O376  1  0.76153406  0.61840668  0.24614433  1
  O  O377  1  0.75595154  0.62451245  0.75631046  1
  O  O378  1  0.37064523  0.11662906  0.36774995  1
  O  O379  1  0.36783708  0.11828002  0.87607328  1
  O  O380  1  0.36621212  0.61913085  0.37134632  1
  O  O381  1  0.37487017  0.62075545  0.86645302  1
  O  O382  1  0.86137558  0.13203078  0.37234978  1
  O  O383  1  0.86857318  0.12634169  0.86741080  1
  O  O384  1  0.87701051  0.62259580  0.36202439  1
  O  O385  1  0.86987853  0.62121035  0.86945523  1
  O  O386  1  0.12434700  0.38379875  0.12988171  1
  O  O387  1  0.13020976  0.38332065  0.62982007  1
  O  O388  1  0.12417851  0.88040063  0.13658436  1
  O  O389  1  0.12864816  0.88137261  0.63107392  1
  O  O390  1  0.63042678  0.38038886  0.13068151  1
  O  O391  1  0.62756521  0.38542965  0.62515767  1
  O  O392  1  0.63094532  0.87970098  0.13037210  1
  O  O393  1  0.64014386  0.86611534  0.62357485  1
  O  O394  1  0.11817378  0.25585955  0.25271717  1
  O  O395  1  0.11922363  0.25546277  0.75530117  1
  O  O396  1  0.11555567  0.75798200  0.24116749  1
  O  O397  1  0.11885362  0.75603509  0.75335640  1
  O  O398  1  0.61744786  0.25430630  0.25906317  1
  O  O399  1  0.61476438  0.25495585  0.75875290  1
  O  O400  1  0.61724598  0.75705810  0.25024049  1
  O  O401  1  0.61686775  0.75027306  0.75523020  1
  O  O402  1  0.38942216  0.24359634  0.25739335  1
  O  O403  1  0.38351302  0.25289496  0.74643928  1
  O  O404  1  0.38231866  0.74808051  0.24209975  1
  O  O405  1  0.37803184  0.74436407  0.74381802  1
  O  O406  1  0.88278073  0.24832946  0.24254777  1
  O  O407  1  0.88185922  0.24527470  0.74427374  1
  O  O408  1  0.88412345  0.74193067  0.24421059  1
  O  O409  1  0.87959391  0.74609901  0.74020036  1
  O  O410  1  0.38940170  0.50522737  0.50330582  1
  O  O411  1  0.38170739  0.49347817  0.99437438  1
  O  O412  1  0.36821834  0.99524823  0.47989191  1
  O  O413  1  0.38087876  0.99365460  0.99583749  1
  O  O414  1  0.87724465  0.48891680  0.49866147  1
  O  O415  1  0.88081210  0.49477701  0.99519398  1
  O  O416  1  0.88856731  0.99144511  0.50739178  1
  O  O417  1  0.87610751  0.98999616  0.99702190  1
  O  O418  1  0.12236361  0.00510083  0.00717615  1
  O  O419  1  0.11690517  0.00293683  0.50522310  1
  O  O420  1  0.12182362  0.50211214  0.00553440  1
  O  O421  1  0.12158852  0.50070829  0.51361076  1
  O  O422  1  0.61867454  0.00096248  0.00725208  1
  O  O423  1  0.62017025  0.00112378  0.50303757  1
  O  O424  1  0.62022406  0.50549029  0.00593830  1
  O  O425  1  0.61638180  0.50639711  0.50734354  1
  O  O426  1  0.37901317  0.38011136  0.10915260  1
  O  O427  1  0.36056835  0.36840881  0.63164950  1
  O  O428  1  0.37451568  0.86771661  0.11862312  1
  O  O429  1  0.36695646  0.86256314  0.62584396  1
  O  O430  1  0.87023523  0.36886257  0.11957101  1
  O  O431  1  0.87843165  0.36984401  0.61466818  1
  O  O432  1  0.86915001  0.86814773  0.11883371  1
  O  O433  1  0.86832420  0.86901758  0.61671475  1
  O  O434  1  0.13323693  0.12507474  0.38225880  1
  O  O435  1  0.12913225  0.12995363  0.88025038  1
  O  O436  1  0.13290508  0.61986663  0.37766159  1
  O  O437  1  0.12453474  0.63169869  0.87961659  1
  O  O438  1  0.63556316  0.13629212  0.37224015  1
  O  O439  1  0.63245760  0.13365607  0.87879994  1
  O  O440  1  0.62349793  0.62461927  0.38946746  1
  O  O441  1  0.62914551  0.63071996  0.88067726  1
