# generated using pymatgen
data_V93Zn93O256
_symmetry_space_group_name_H-M   'P 1'
_cell_length_a   17.05211774
_cell_length_b   17.06265940
_cell_length_c   17.06063255
_cell_angle_alpha   89.99545264
_cell_angle_beta   89.95083143
_cell_angle_gamma   90.03743017
_symmetry_Int_Tables_number   1
_chemical_formula_structural   V93Zn93O256
_chemical_formula_sum   'V93 Zn93 O256'
_cell_volume   4963.86452002
_cell_formula_units_Z   1
loop_
 _symmetry_equiv_pos_site_id
 _symmetry_equiv_pos_as_xyz
  1  'x, y, z'
loop_
 _atom_site_type_symbol
 _atom_site_label
 _atom_site_symmetry_multiplicity
 _atom_site_fract_x
 _atom_site_fract_y
 _atom_site_fract_z
 _atom_site_occupancy
  V  V0  1  0.50374750  0.12167896  0.11054435  1
  V  V1  1  0.25028468  0.37410522  0.12603498  1
  V  V2  1  -0.00054002  0.74924485  0.25056866  1
  V  V3  1  0.75011473  0.74871744  0.49950665  1
  V  V4  1  0.50641082  0.12367585  0.62285581  1
  V  V5  1  0.50039205  0.25284517  0.74886468  1
  V  V6  1  0.74953589  0.87484606  0.12567071  1
  V  V7  1  0.87492950  0.37472400  0.00145438  1
  V  V8  1  0.87476810  0.50003708  0.87583441  1
  V  V9  1  0.25186121  0.00101450  0.75000672  1
  V  V10  1  0.87379921  0.49402815  0.37815821  1
  V  V11  1  -0.00087156  0.49943435  0.00226336  1
  V  V12  1  0.62508949  0.24515645  0.87760382  1
  V  V13  1  0.25056985  0.75041312  0.50039828  1
  V  V14  1  0.50062946  0.37521611  0.87437668  1
  V  V15  1  -0.00056709  0.62511408  0.12645222  1
  V  V16  1  0.62433273  0.87678871  0.25036135  1
  V  V17  1  0.37554707  0.49988347  0.37612446  1
  V  V18  1  0.37411976  0.12560089  0.74989085  1
  V  V19  1  0.87557780  0.74942921  0.62591929  1
  V  V20  1  -0.00034536  0.00003565  0.49958242  1
  V  V21  1  0.24912212  0.49870642  0.25089891  1
  V  V22  1  0.12268529  0.37289077  0.75168380  1
  V  V23  1  0.87258459  0.00933428  0.86984762  1
  V  V24  1  -0.00090086  0.24897164  0.25098958  1
  V  V25  1  0.37527737  -0.00030156  0.37515063  1
  V  V26  1  0.24912854  0.25021898  0.00022240  1
  V  V27  1  0.12487152  0.50007145  0.62575276  1
  V  V28  1  0.75145733  0.75317087  -0.00049096  1
  V  V29  1  0.50738252  0.00043371  0.50478022  1
  V  V30  1  -0.00481614  0.49246760  0.50050491  1
  V  V31  1  0.49956212  0.37450340  0.37518921  1
  V  V32  1  0.62507537  0.75561982  0.87415908  1
  V  V33  1  0.37417574  0.37585069  -0.00009413  1
  V  V34  1  0.75049790  0.50007738  0.25102391  1
  V  V35  1  0.50045794  0.49988253  -0.00027501  1
  V  V36  1  0.74870747  0.37413263  0.12481705  1
  V  V37  1  0.12509895  0.00072013  0.62479559  1
  V  V38  1  0.50093313  0.62417807  0.62491924  1
  V  V39  1  0.87405170  0.12461262  0.24948732  1
  V  V40  1  0.24939919  0.25081835  0.49916155  1
  V  V41  1  0.62639905  0.62521584  -0.00089005  1
  V  V42  1  0.74926032  0.87938972  0.62449471  1
  V  V43  1  0.37602934  0.62600239  0.75074345  1
  V  V44  1  0.12589323  0.87477009  0.74951998  1
  V  V45  1  0.62195018  0.00240334  0.10912721  1
  V  V46  1  0.25035301  0.12375090  0.37479279  1
  V  V47  1  0.37720247  0.24848473  0.12491137  1
  V  V48  1  0.50001026  0.75013877  0.25151825  1
  V  V49  1  0.25244933  0.87416589  0.12148235  1
  V  V50  1  0.25107019  0.87607339  0.62481330  1
  V  V51  1  0.87274604  0.24808346  0.12542720  1
  V  V52  1  0.37429189  0.75131830  0.12145534  1
  V  V53  1  0.12521926  -0.00057935  0.12416554  1
  V  V54  1  0.49964867  0.62403072  0.12566352  1
  V  V55  1  0.75052627  0.50120291  0.74994576  1
  V  V56  1  0.87497310  0.24805065  0.63184584  1
  V  V57  1  0.74884066  0.12516547  0.37616432  1
  V  V58  1  0.25083909  -0.00031048  0.25102907  1
  V  V59  1  0.75482758  0.25213788  0.49920040  1
  V  V60  1  0.12679981  0.62623932  -0.00076807  1
  V  V61  1  0.37524761  0.87521452  0.50214215  1
  V  V62  1  0.50013853  0.49929317  0.50023044  1
  V  V63  1  0.12327724  0.37390282  0.25196510  1
  V  V64  1  0.62500840  0.49941357  0.12491802  1
  V  V65  1  0.12518860  0.62454087  0.49980197  1
  V  V66  1  0.37534038  0.50193660  0.87443465  1
  V  V67  1  0.62605835  0.74972481  0.37539283  1
  V  V68  1  0.37408305  0.62456517  0.25029471  1
  V  V69  1  0.75528331  0.00767035  0.74507596  1
  V  V70  1  0.12451344  0.87408541  0.25047338  1
  V  V71  1  0.00014337  0.75016735  0.74949116  1
  V  V72  1  -0.00449062  0.12489606  0.63364141  1
  V  V73  1  0.12465887  0.12507289  0.50033538  1
  V  V74  1  0.50073952  0.24550970  0.25091814  1
  V  V75  1  0.49976987  0.87528585  0.37634440  1
  V  V76  1  0.12414356  0.12356751  0.00152361  1
  V  V77  1  0.00008861  0.87530792  0.87618447  1
  V  V78  1  0.25037924  0.12437742  0.87447281  1
  V  V79  1  0.37494869  0.25208427  0.62325701  1
  V  V80  1  0.74591791  0.24200688  -0.00054164  1
  V  V81  1  0.62376287  0.37387912  0.25009670  1
  V  V82  1  0.25013469  0.50145311  0.74991207  1
  V  V83  1  0.24900621  0.62525488  0.37572001  1
  V  V84  1  0.62658323  0.88105884  0.74747780  1
  V  V85  1  0.00013137  0.87430999  0.37508414  1
  V  V86  1  0.62576717  0.49994811  0.62421690  1
  V  V87  1  0.74823936  0.00051682  0.24943485  1
  V  V88  1  0.50184211  0.75441932  0.75121095  1
  V  V89  1  0.87484388  0.75008713  0.12529564  1
  V  V90  1  0.87553036  -0.00071643  0.37455866  1
  V  V91  1  0.75748744  0.37743330  0.61841926  1
  V  V92  1  -0.00002107  0.62541548  0.62544686  1
  Zn  Zn93  1  0.12413130  0.49967215  0.12533045  1
  Zn  Zn94  1  0.37398732  0.37601043  0.49945938  1
  Zn  Zn95  1  0.12775768  0.74991462  0.87462583  1
  Zn  Zn96  1  -0.00324163  0.00002077  0.00099429  1
  Zn  Zn97  1  0.39350677  0.88392142  -0.00700326  1
  Zn  Zn98  1  0.12362233  0.74874598  0.37495773  1
  Zn  Zn99  1  -0.00545618  0.24706951  0.75549370  1
  Zn  Zn100  1  0.00071914  0.37247827  0.87698010  1
  Zn  Zn101  1  0.37626840  0.75142635  0.62703812  1
  Zn  Zn102  1  -0.00174396  0.12152120  0.12462083  1
  Zn  Zn103  1  0.25034183  0.62757046  0.87507412  1
  Zn  Zn104  1  0.87654254  0.62607260  0.75194782  1
  Zn  Zn105  1  0.24907202  0.37629810  0.62442445  1
  Zn  Zn106  1  0.37594484  0.12239449  0.24842415  1
  Zn  Zn107  1  0.12268569  0.24890808  0.37631211  1
  Zn  Zn108  1  0.75061273  0.62649370  0.87412815  1
  Zn  Zn109  1  0.39306503  -0.00085185  0.88292799  1
  Zn  Zn110  1  0.75165538  0.12754396  0.87014235  1
  Zn  Zn111  1  0.62450958  0.24837372  0.37867913  1
  Zn  Zn112  1  0.62419096  0.62452541  0.49800491  1
  Zn  Zn113  1  0.87455312  0.62398011  0.25209307  1
  Zn  Zn114  1  0.87528631  0.87686597  -0.00112717  1
  Zn  Zn115  1  0.87662411  0.87445093  0.49964579  1
  Zn  Zn116  1  0.25216191  0.75046544  -0.00534284  1
  Zn  Zn117  1  -0.00450964  0.37064183  0.38114149  1
  Zn  Zn118  1  0.62562592  0.37592135  0.74970519  1
  Zn  Zn119  1  0.62845950  0.12298303  0.50180819  1
  Zn  Zn120  1  0.12069965  0.25044347  0.87524701  1
  Zn  Zn121  1  0.75028055  0.62400154  0.37390238  1
  Zn  Zn122  1  0.18806583  0.18675547  0.18749333  1
  Zn  Zn123  1  0.18537409  0.18803485  0.68684713  1
  Zn  Zn124  1  0.18569758  0.68739867  0.18694474  1
  Zn  Zn125  1  0.18825593  0.68855942  0.68748286  1
  Zn  Zn126  1  0.68413046  0.18409717  0.18615630  1
  Zn  Zn127  1  0.68642663  0.19269231  0.68765135  1
  Zn  Zn128  1  0.68819145  0.68607305  0.18858263  1
  Zn  Zn129  1  0.68764541  0.68676632  0.68543581  1
  Zn  Zn130  1  0.31410907  0.31175396  0.31309973  1
  Zn  Zn131  1  0.30994086  0.31369632  0.81225543  1
  Zn  Zn132  1  0.31242854  0.81238432  0.31263397  1
  Zn  Zn133  1  0.31460914  0.81330823  0.81638264  1
  Zn  Zn134  1  0.81215404  0.31358478  0.31313881  1
  Zn  Zn135  1  0.81079868  0.31625705  0.81230845  1
  Zn  Zn136  1  0.81400618  0.81310804  0.31193334  1
  Zn  Zn137  1  0.81350816  0.81655389  0.81319889  1
  Zn  Zn138  1  0.18496199  0.43688482  0.43746511  1
  Zn  Zn139  1  0.18710319  0.44036360  0.93605333  1
  Zn  Zn140  1  0.18642252  0.93684375  0.43767970  1
  Zn  Zn141  1  0.19336240  0.93781303  0.93573222  1
  Zn  Zn142  1  0.68588132  0.43626423  0.43702100  1
  Zn  Zn143  1  0.68764342  0.43332922  0.93726336  1
  Zn  Zn144  1  0.68839240  0.93612199  0.43699620  1
  Zn  Zn145  1  0.55797292  0.93652285  0.93074282  1
  Zn  Zn146  1  0.31679683  0.06109467  0.06214670  1
  Zn  Zn147  1  0.31554498  0.06297662  0.56212434  1
  Zn  Zn148  1  0.31092690  0.56157582  0.06346990  1
  Zn  Zn149  1  0.31347843  0.56369433  0.56430053  1
  Zn  Zn150  1  0.81112664  0.05924393  0.06025792  1
  Zn  Zn151  1  0.81573484  0.06482616  0.56078795  1
  Zn  Zn152  1  0.81249914  0.56464824  0.06404276  1
  Zn  Zn153  1  0.81486191  0.56511215  0.56163389  1
  Zn  Zn154  1  0.43710929  0.43608920  0.18855657  1
  Zn  Zn155  1  0.43708540  0.43777850  0.68754204  1
  Zn  Zn156  1  0.43895409  0.93961702  0.18476168  1
  Zn  Zn157  1  0.43781074  0.93949422  0.69166701  1
  Zn  Zn158  1  0.93580531  0.43752502  0.18873503  1
  Zn  Zn159  1  0.93759813  0.43628308  0.68799225  1
  Zn  Zn160  1  0.93772898  0.93643661  0.18673540  1
  Zn  Zn161  1  0.93692866  0.93601976  0.68727384  1
  Zn  Zn162  1  0.06375230  0.06233982  0.31250540  1
  Zn  Zn163  1  0.06530032  0.06001380  0.81482652  1
  Zn  Zn164  1  0.06052215  0.56142713  0.31434803  1
  Zn  Zn165  1  0.06165466  0.56140611  0.81382151  1
  Zn  Zn166  1  0.56434093  0.06236573  0.31303043  1
  Zn  Zn167  1  0.56805089  0.06796321  0.80390720  1
  Zn  Zn168  1  0.56390207  0.56315951  0.31391774  1
  Zn  Zn169  1  0.56422523  0.56555201  0.81234226  1
  Zn  Zn170  1  0.43634261  0.18537419  0.43703930  1
  Zn  Zn171  1  0.43535341  0.18813005  0.93501280  1
  Zn  Zn172  1  0.43664293  0.68716314  0.43951221  1
  Zn  Zn173  1  0.44075869  0.69024666  0.93627133  1
  Zn  Zn174  1  0.93511974  0.18657578  0.44059283  1
  Zn  Zn175  1  0.93902127  0.18956548  0.93880522  1
  Zn  Zn176  1  0.93563616  0.68322749  0.43670567  1
  Zn  Zn177  1  0.93897548  0.68674697  0.93812945  1
  Zn  Zn178  1  0.06145630  0.31120321  0.06489962  1
  Zn  Zn179  1  0.06302310  0.31122765  0.56759229  1
  Zn  Zn180  1  0.06338360  0.81171071  0.06221145  1
  Zn  Zn181  1  0.06372335  0.81210648  0.56156857  1
  Zn  Zn182  1  0.56217734  0.31066166  0.06215664  1
  Zn  Zn183  1  0.56789713  0.31441682  0.56121130  1
  Zn  Zn184  1  0.56544194  0.81120070  0.06648361  1
  Zn  Zn185  1  0.56434009  0.81264927  0.56468473  1
  O  O186  1  0.12675713  0.11853160  0.11612219  1
  O  O187  1  0.11748261  0.11975597  0.61881679  1
  O  O188  1  0.11835640  0.62257883  0.11701208  1
  O  O189  1  0.11940192  0.61914774  0.61976677  1
  O  O190  1  0.61644438  0.11406597  0.12841021  1
  O  O191  1  0.60922197  0.13259981  0.62394639  1
  O  O192  1  0.61861043  0.61919275  0.11992460  1
  O  O193  1  0.61870703  0.61759156  0.62268899  1
  O  O194  1  0.38144129  0.38239840  0.37583166  1
  O  O195  1  0.38026897  0.38058832  0.88070373  1
  O  O196  1  0.38097405  0.87958204  0.38157059  1
  O  O197  1  0.35377504  0.88921094  0.88480868  1
  O  O198  1  0.87698313  0.38862847  0.37151152  1
  O  O199  1  0.87412392  0.38607995  0.88199395  1
  O  O200  1  0.88215788  0.88242324  0.37566888  1
  O  O201  1  0.88559564  0.88409945  0.87560456  1
  O  O202  1  0.25524689  0.00375321  0.37102435  1
  O  O203  1  0.24359951  0.01652973  0.86708086  1
  O  O204  1  0.25535890  0.50496214  0.37042139  1
  O  O205  1  0.25858141  0.50337971  0.86836593  1
  O  O206  1  0.75543721  0.00425029  0.36983200  1
  O  O207  1  0.76703699  0.00457532  0.86330998  1
  O  O208  1  0.75666309  0.49920470  0.37072573  1
  O  O209  1  0.75663458  0.49953734  0.86744901  1
  O  O210  1  0.24961611  0.49150585  0.13371930  1
  O  O211  1  0.24319082  0.49885591  0.63095752  1
  O  O212  1  0.24604489  0.99169545  0.13171734  1
  O  O213  1  0.24467995  0.99681721  0.62893375  1
  O  O214  1  0.74426188  0.49357035  0.12929176  1
  O  O215  1  0.74870815  0.49475272  0.62939451  1
  O  O216  1  0.74192719  0.99551071  0.13002865  1
  O  O217  1  0.76189478  0.98827924  0.63070610  1
  O  O218  1  0.00743688  0.36513508  0.24910825  1
  O  O219  1  0.01152140  0.37486287  0.75147294  1
  O  O220  1  0.00535453  0.86955916  0.25533034  1
  O  O221  1  0.00623489  0.87060209  0.75659886  1
  O  O222  1  0.50403318  0.36564804  0.25385483  1
  O  O223  1  0.50010459  0.36959368  0.75659682  1
  O  O224  1  0.50421446  0.86951796  0.25649445  1
  O  O225  1  0.51319897  0.86399119  0.73750237  1
  O  O226  1  0.49950555  0.13620309  0.24689850  1
  O  O227  1  0.49430064  0.13429184  0.73949844  1
  O  O228  1  0.49413835  0.62961045  0.24529318  1
  O  O229  1  0.49663180  0.63267417  0.74389097  1
  O  O230  1  0.99440240  0.13386658  0.24963021  1
  O  O231  1  1.00949992  0.12589858  0.73610192  1
  O  O232  1  1.00029999  0.63123869  0.24371016  1
  O  O233  1  1.00001338  0.63131793  0.74317429  1
  O  O234  1  0.36890937  0.25688418  0.00501982  1
  O  O235  1  0.36652332  0.24966457  0.50741136  1
  O  O236  1  0.37441358  0.74687088  0.01493825  1
  O  O237  1  0.36947062  0.75766110  0.50281609  1
  O  O238  1  0.86681814  0.25528059  0.00580095  1
  O  O239  1  0.86256198  0.24617682  0.51174148  1
  O  O240  1  0.86704463  0.74981499  0.00568984  1
  O  O241  1  0.86584213  0.75133695  0.50540337  1
  O  O242  1  0.13407661  0.24454378  0.50067503  1
  O  O243  1  0.13127564  0.24065038  1.00228544  1
  O  O244  1  0.13206522  0.74265457  0.49846706  1
  O  O245  1  0.12631053  0.73767119  0.99963554  1
  O  O246  1  0.63995422  0.24696302  0.49956899  1
  O  O247  1  0.63550535  0.25819648  0.99029562  1
  O  O248  1  0.63436578  0.75109822  0.49441035  1
  O  O249  1  0.63325778  0.74432712  0.99267094  1
  O  O250  1  0.49771746  0.24301584  0.13257714  1
  O  O251  1  0.49199821  0.24578593  0.62663054  1
  O  O252  1  0.49304891  0.74342022  0.13272443  1
  O  O253  1  0.50165848  0.74285782  0.63470121  1
  O  O254  1  0.99223226  0.24701597  0.13587596  1
  O  O255  1  0.99091600  0.24219343  0.62545993  1
  O  O256  1  0.99406767  0.74610915  0.13068523  1
  O  O257  1  0.99516448  0.74589201  0.62918445  1
  O  O258  1  -0.00143881  0.25143462  0.36509317  1
  O  O259  1  0.00197072  0.25460534  0.87115900  1
  O  O260  1  -0.00009761  0.75563670  0.36946351  1
  O  O261  1  0.00026611  0.76021384  0.86902483  1
  O  O262  1  0.49944958  0.25439670  0.36652220  1
  O  O263  1  0.50612371  0.25518427  0.86997840  1
  O  O264  1  0.50434095  0.75579850  0.37084813  1
  O  O265  1  0.51198805  0.74323134  0.86050106  1
  O  O266  1  0.24544166  0.13225974  0.49592931  1
  O  O267  1  0.24297665  0.13025193  0.99338231  1
  O  O268  1  0.24550660  0.62980166  0.49532673  1
  O  O269  1  0.23882536  0.62480371  1.00098561  1
  O  O270  1  0.74888676  0.13228213  0.49535986  1
  O  O271  1  0.75521966  0.13998171  0.99665000  1
  O  O272  1  0.74752109  0.63886020  0.50042428  1
  O  O273  1  0.74422011  0.63584267  1.00122766  1
  O  O274  1  0.25449252  0.37093862  0.00553526  1
  O  O275  1  0.25022897  0.36305955  0.50134954  1
  O  O276  1  0.24366750  0.87164054  0.01758169  1
  O  O277  1  0.25519294  0.87118216  0.50516413  1
  O  O278  1  0.75578964  0.36668834  0.00641879  1
  O  O279  1  0.74600870  0.36680338  0.50983476  1
  O  O280  1  0.75085566  0.85730723  0.00867119  1
  O  O281  1  0.75083147  0.86697370  0.50811713  1
  O  O282  1  0.12959396  0.48945708  0.24961532  1
  O  O283  1  0.12949362  0.49381472  0.74543755  1
  O  O284  1  0.13104568  0.99416206  0.24449087  1
  O  O285  1  0.13174776  0.99479576  0.74313980  1
  O  O286  1  0.62886477  0.49369780  0.24404884  1
  O  O287  1  0.63481899  0.49978821  0.74466929  1
  O  O288  1  0.63200211  0.99301535  0.24792145  1
  O  O289  1  0.64015943  0.98773919  0.75350132  1
  O  O290  1  0.36867719  -0.00093828  0.25753155  1
  O  O291  1  0.36641864  0.01056856  0.74783540  1
  O  O292  1  0.36976981  0.50507604  0.25556985  1
  O  O293  1  0.37086054  0.50549253  0.75501941  1
  O  O294  1  0.86828418  0.00499531  0.25407665  1
  O  O295  1  0.86963433  -0.00493249  0.76009231  1
  O  O296  1  0.86826305  0.50050874  0.25834189  1
  O  O297  1  0.86793579  0.49992732  0.75902374  1
  O  O298  1  0.12230999  0.37119934  0.36238952  1
  O  O299  1  0.12415636  0.37420687  0.86520650  1
  O  O300  1  0.11849665  0.87374972  0.36800272  1
  O  O301  1  0.11583772  0.87745015  0.86839724  1
  O  O302  1  0.61740844  0.37204465  0.36726632  1
  O  O303  1  0.61825835  0.36616345  0.87261365  1
  O  O304  1  0.61883757  0.86945844  0.36960802  1
  O  O305  1  0.62844453  0.86129864  0.86104020  1
  O  O306  1  0.38499838  0.13156575  0.12871773  1
  O  O307  1  0.38239378  0.13628547  0.62847726  1
  O  O308  1  0.37952617  0.63149735  0.13096263  1
  O  O309  1  0.38315153  0.62745537  0.63311274  1
  O  O310  1  0.87458010  0.12985711  0.13175979  1
  O  O311  1  0.88605769  0.13340865  0.62213907  1
  O  O312  1  0.88228280  0.63213702  0.12678201  1
  O  O313  1  0.88264808  0.63212921  0.62756968  1
  O  O314  1  0.25707145  0.25463500  0.12069967  1
  O  O315  1  0.25871010  0.24783752  0.61548957  1
  O  O316  1  0.25986961  0.75750925  0.12808472  1
  O  O317  1  0.25215024  0.75794757  0.61841742  1
  O  O318  1  0.75207830  0.25405174  0.11836952  1
  O  O319  1  0.75619347  0.25743037  0.62001141  1
  O  O320  1  0.75379060  0.75400115  0.11966987  1
  O  O321  1  0.75517183  0.75740667  0.61812937  1
  O  O322  1  0.25076524  0.24370782  0.38493324  1
  O  O323  1  0.24841068  0.23958678  0.88074546  1
  O  O324  1  0.24922216  0.74309681  0.38149928  1
  O  O325  1  0.24553841  0.74462040  0.87817830  1
  O  O326  1  0.75234035  0.24504553  0.38402618  1
  O  O327  1  0.74416573  0.25066924  0.88120918  1
  O  O328  1  0.74562057  0.75233903  0.38444745  1
  O  O329  1  0.74415848  0.74867456  0.88176435  1
  O  O330  1  0.01276776  0.12364507  0.00236551  1
  O  O331  1  0.00552304  0.11944191  0.50826846  1
  O  O332  1  0.00702577  0.61976464  0.00645601  1
  O  O333  1  0.00613014  0.61644200  0.50601941  1
  O  O334  1  0.49927540  0.13420966  0.01233944  1
  O  O335  1  0.50032551  0.11738229  0.50643456  1
  O  O336  1  0.50627608  0.61949810  0.00608598  1
  O  O337  1  0.50051917  0.61802429  0.50691808  1
  O  O338  1  0.49893769  0.38069683  0.49337248  1
  O  O339  1  0.49384702  0.38034514  0.99543528  1
  O  O340  1  0.49610023  0.88170841  0.49766207  1
  O  O341  1  0.50371744  0.85964224  0.99078330  1
  O  O342  1  1.00803005  0.38860632  0.50051907  1
  O  O343  1  0.99250443  0.38080624  1.00211372  1
  O  O344  1  1.00002369  0.88213393  0.49400339  1
  O  O345  1  1.00038096  0.87701883  0.98832347  1
  O  O346  1  0.49472038  0.49494630  0.37944546  1
  O  O347  1  0.49630541  0.49546236  0.88048671  1
  O  O348  1  0.49510795  0.99444402  0.38324239  1
  O  O349  1  0.50318756  0.99711090  0.85652419  1
  O  O350  1  0.99231336  0.49777801  0.38392140  1
  O  O351  1  0.98883182  0.49769225  0.88224326  1
  O  O352  1  0.99527519  0.99509135  0.37917664  1
  O  O353  1  0.99073029  0.99197372  0.87284662  1
  O  O354  1  0.00844351  0.00114766  0.12208317  1
  O  O355  1  0.00398651  0.00641996  0.62055687  1
  O  O356  1  -0.00055934  0.50627352  0.11946410  1
  O  O357  1  0.00355530  0.50510719  0.61836602  1
  O  O358  1  0.51025937  0.01078247  0.13241056  1
  O  O359  1  0.49184948  0.01229388  0.61589462  1
  O  O360  1  0.50460273  0.50429689  0.11988335  1
  O  O361  1  0.50548508  0.50358058  0.62046675  1
  O  O362  1  0.24240541  0.37745285  0.24658359  1
  O  O363  1  0.24124790  0.38227355  0.74827259  1
  O  O364  1  0.24533157  0.87928897  0.24205612  1
  O  O365  1  0.24432580  0.88115726  0.74269132  1
  O  O366  1  0.74336058  0.37903508  0.24359356  1
  O  O367  1  0.74958217  0.38772019  0.74035313  1
  O  O368  1  0.74453059  0.88044969  0.24465747  1
  O  O369  1  0.74600883  0.88160153  0.74150060  1
  O  O370  1  0.25132884  0.11806401  0.25648091  1
  O  O371  1  0.25292873  0.12280489  0.75617593  1
  O  O372  1  0.25429952  0.61900432  0.25493495  1
  O  O373  1  0.25753260  0.61902671  0.74990135  1
  O  O374  1  0.75517733  0.12042177  0.25568546  1
  O  O375  1  0.74442892  0.11153560  0.74555105  1
  O  O376  1  0.75149225  0.61520296  0.25167934  1
  O  O377  1  0.75326188  0.61213402  0.74957451  1
  O  O378  1  0.36811238  0.11704686  0.37294239  1
  O  O379  1  0.36475018  0.12653626  0.86763024  1
  O  O380  1  0.36956821  0.61976407  0.36904239  1
  O  O381  1  0.37729751  0.61860007  0.86855072  1
  O  O382  1  0.86911885  0.11860470  0.36913550  1
  O  O383  1  0.87926459  0.11175059  0.87583350  1
  O  O384  1  0.87140636  0.61119991  0.37237024  1
  O  O385  1  0.87250456  0.61199644  0.87509723  1
  O  O386  1  0.13121537  0.37452938  0.13645640  1
  O  O387  1  0.12690794  0.38183279  0.63482757  1
  O  O388  1  0.13263380  0.87893711  0.13157977  1
  O  O389  1  0.13038688  0.88203974  0.62923464  1
  O  O390  1  0.62868277  0.38071368  0.12980303  1
  O  O391  1  0.63743680  0.38190570  0.62799989  1
  O  O392  1  0.62988808  0.88247812  0.13277457  1
  O  O393  1  0.63975400  0.86869808  0.63463219  1
  O  O394  1  0.11633164  0.25594026  0.25057128  1
  O  O395  1  0.12417030  0.26190665  0.74972580  1
  O  O396  1  0.11796165  0.75645865  0.25152150  1
  O  O397  1  0.11777011  0.75763528  0.74989327  1
  O  O398  1  0.61516801  0.25565897  0.25020520  1
  O  O399  1  0.61905321  0.25546685  0.75828757  1
  O  O400  1  0.61939767  0.75654033  0.25417642  1
  O  O401  1  0.62252176  0.75542797  0.75564453  1
  O  O402  1  0.38571818  0.25032018  0.24347792  1
  O  O403  1  0.37870060  0.24612150  0.74143630  1
  O  O404  1  0.38022700  0.74454549  0.24224368  1
  O  O405  1  0.38726188  0.74640947  0.75016022  1
  O  O406  1  0.88073205  0.24527136  0.24545711  1
  O  O407  1  0.87348721  0.25410087  0.73647128  1
  O  O408  1  0.88108817  0.74829906  0.24315403  1
  O  O409  1  0.88141047  0.74907395  0.74432941  1
  O  O410  1  0.38093740  0.49844509  0.49411241  1
  O  O411  1  0.38110399  0.49542604  0.99558708  1
  O  O412  1  0.38388544  0.99458403  0.49457185  1
  O  O413  1  0.37968291  0.99877385  0.99863966  1
  O  O414  1  0.88549890  0.50502450  0.49281315  1
  O  O415  1  0.87723645  0.49500538  0.99400091  1
  O  O416  1  0.88237272  0.99843100  0.49186031  1
  O  O417  1  0.87507006  0.99668471  0.98524143  1
  O  O418  1  0.12714161  0.01041568  0.00516407  1
  O  O419  1  0.11978123  0.00531922  0.50604887  1
  O  O420  1  0.11815828  0.50754826  0.00277909  1
  O  O421  1  0.11776236  0.50554749  0.50531402  1
  O  O422  1  0.62462353  -0.00716670  0.01166598  1
  O  O423  1  0.61091252  -0.00065274  0.49707069  1
  O  O424  1  0.62043278  0.50393552  0.00496399  1
  O  O425  1  0.61834968  0.50151581  0.50625400  1
  O  O426  1  0.37062175  0.36916986  0.11932584  1
  O  O427  1  0.37273700  0.36256077  0.62347467  1
  O  O428  1  0.36798319  0.86561120  0.12677060  1
  O  O429  1  0.36846572  0.87525351  0.61967555  1
  O  O430  1  0.86753550  0.36802720  0.12143043  1
  O  O431  1  0.86431725  0.36788515  0.62694600  1
  O  O432  1  0.86754280  0.86917535  0.12236631  1
  O  O433  1  0.86637499  0.86714367  0.62321567  1
  O  O434  1  0.13190065  0.12629892  0.38243695  1
  O  O435  1  0.13230304  0.12737023  0.88418313  1
  O  O436  1  0.13200024  0.62493081  0.38160478  1
  O  O437  1  0.12404439  0.62503829  0.88740224  1
  O  O438  1  0.63410690  0.12797808  0.37782836  1
  O  O439  1  0.62919846  0.14219720  0.86848485  1
  O  O440  1  0.62828913  0.63418248  0.37729598  1
  O  O441  1  0.62854216  0.63537971  0.88064526  1
