# generated using pymatgen
data_V93Zn93O256
_symmetry_space_group_name_H-M   'P 1'
_cell_length_a   17.05920445
_cell_length_b   17.05691228
_cell_length_c   17.05537133
_cell_angle_alpha   90.01415772
_cell_angle_beta   90.05074358
_cell_angle_gamma   89.95909670
_symmetry_Int_Tables_number   1
_chemical_formula_structural   V93Zn93O256
_chemical_formula_sum   'V93 Zn93 O256'
_cell_volume   4962.72345848
_cell_formula_units_Z   1
loop_
 _symmetry_equiv_pos_site_id
 _symmetry_equiv_pos_as_xyz
  1  'x, y, z'
loop_
 _atom_site_type_symbol
 _atom_site_label
 _atom_site_symmetry_multiplicity
 _atom_site_fract_x
 _atom_site_fract_y
 _atom_site_fract_z
 _atom_site_occupancy
  V  V0  1  0.74928845  0.87640462  0.12554736  1
  V  V1  1  0.24878970  0.62487206  0.37433645  1
  V  V2  1  0.75149601  0.00016833  0.24907607  1
  V  V3  1  0.62423268  0.37555489  0.24999617  1
  V  V4  1  0.12424642  0.87438409  0.75095857  1
  V  V5  1  0.87872539  0.25142574  0.63057249  1
  V  V6  1  0.37434658  0.37507578  0.49995006  1
  V  V7  1  0.25029058  0.24915442  -0.00084813  1
  V  V8  1  0.74974867  0.87774264  0.62443202  1
  V  V9  1  0.87545918  0.74951441  0.12641725  1
  V  V10  1  0.74941880  0.50047376  0.74997258  1
  V  V11  1  0.37495373  0.49906163  0.37546837  1
  V  V12  1  0.37397041  0.50064316  0.87420679  1
  V  V13  1  0.87523658  0.49891967  0.87592756  1
  V  V14  1  0.75133911  0.25077328  0.00207498  1
  V  V15  1  0.74660872  0.00245086  0.74584955  1
  V  V16  1  0.00342912  0.36288462  0.37276006  1
  V  V17  1  0.62340638  0.87848265  0.74703801  1
  V  V18  1  0.25079476  0.12407757  0.87381249  1
  V  V19  1  -0.00073729  0.49671538  -0.00034299  1
  V  V20  1  0.12638641  0.11964042  0.00453110  1
  V  V21  1  0.50077754  0.12402351  0.12702799  1
  V  V22  1  0.24966070  0.37421239  0.62460359  1
  V  V23  1  0.25336637  0.87221897  0.62362580  1
  V  V24  1  0.62526883  0.24988557  0.87507661  1
  V  V25  1  0.00074942  0.75092724  0.75081426  1
  V  V26  1  0.00008218  0.49949726  0.49833829  1
  V  V27  1  0.12087238  0.36183158  0.25375071  1
  V  V28  1  0.12443580  0.13204765  0.49648789  1
  V  V29  1  0.37665711  0.87572113  -0.00161344  1
  V  V30  1  0.37604601  0.24966241  0.12491640  1
  V  V31  1  0.24477887  0.13171137  0.37461129  1
  V  V32  1  0.00041677  0.00096007  0.49997286  1
  V  V33  1  0.49985225  0.50566608  0.50329307  1
  V  V34  1  0.24440059  0.87736595  0.12283048  1
  V  V35  1  0.74819150  0.62387359  0.38008189  1
  V  V36  1  0.12490420  0.49947498  0.62581945  1
  V  V37  1  0.87614003  0.37558347  0.49983277  1
  V  V38  1  0.75090296  0.75057338  0.00074512  1
  V  V39  1  0.00007463  0.62527396  0.62498124  1
  V  V40  1  0.12376539  0.49881865  0.12602303  1
  V  V41  1  0.75029638  0.62523343  0.87529172  1
  V  V42  1  0.49967048  0.49956493  0.00026933  1
  V  V43  1  0.49947481  0.37426772  0.87527773  1
  V  V44  1  0.87734062  0.00089244  0.37438721  1
  V  V45  1  0.11849728  0.24892860  0.87125090  1
  V  V46  1  0.75270064  0.12886256  0.37585447  1
  V  V47  1  0.25136712  -0.00049737  0.74972581  1
  V  V48  1  -0.00019220  0.87580742  0.37589525  1
  V  V49  1  0.49850581  0.62533862  0.12561531  1
  V  V50  1  0.49902285  0.24961111  0.74876170  1
  V  V51  1  0.00196850  0.12739944  0.63108204  1
  V  V52  1  0.12660251  0.62479908  -0.00135954  1
  V  V53  1  0.12377759  0.87659169  0.24777093  1
  V  V54  1  0.62503043  0.50092011  0.12514982  1
  V  V55  1  0.75059162  0.12560516  0.87598835  1
  V  V56  1  0.37285305  -0.00444361  0.37880139  1
  V  V57  1  -0.00132098  0.74913336  0.25005775  1
  V  V58  1  0.75191493  0.50152573  0.25171420  1
  V  V59  1  0.11878821  0.37078636  0.75071883  1
  V  V60  1  0.12341746  0.74982472  0.37456864  1
  V  V61  1  0.87577921  0.00020799  0.87630138  1
  V  V62  1  0.87443787  0.75112573  0.62465254  1
  V  V63  1  0.62466349  0.62563674  -0.00015466  1
  V  V64  1  0.37396182  0.74988278  0.12478332  1
  V  V65  1  0.37447877  0.12479279  0.74926881  1
  V  V66  1  0.75131686  0.37441346  0.12433828  1
  V  V67  1  0.87561232  0.62532086  0.75028493  1
  V  V68  1  0.12468078  0.62480117  0.50030673  1
  V  V69  1  0.62608277  0.25172949  0.37746931  1
  V  V70  1  0.37474349  0.12482875  0.25013938  1
  V  V71  1  0.62450118  0.37539980  0.74961223  1
  V  V72  1  0.25015153  0.50078268  0.75097364  1
  V  V73  1  0.87836742  0.12710628  0.75127239  1
  V  V74  1  0.24961922  0.75152194  0.49972495  1
  V  V75  1  0.00271837  -0.00117406  0.00547436  1
  V  V76  1  0.87577569  0.87536595  -0.00002227  1
  V  V77  1  0.75085116  0.37574633  0.62433150  1
  V  V78  1  0.62470348  0.00118045  0.12750336  1
  V  V79  1  0.24776154  0.49914576  0.25053595  1
  V  V80  1  0.50039059  0.24924335  0.25094079  1
  V  V81  1  0.62034484  0.50675000  0.62475584  1
  V  V82  1  0.88145351  0.13403445  0.24925597  1
  V  V83  1  0.37640898  0.24717453  0.62309523  1
  V  V84  1  0.24889537  0.37439848  0.12603328  1
  V  V85  1  0.62464379  0.75073894  0.37305713  1
  V  V86  1  0.00202886  0.13020356  0.12732822  1
  V  V87  1  0.37407041  0.62446790  0.24842087  1
  V  V88  1  0.24334018  0.00061535  0.24462370  1
  V  V89  1  0.38211366  0.62916550  0.74350564  1
  V  V90  1  0.62510428  0.12465578  0.00183947  1
  V  V91  1  0.37417207  0.37492443  -0.00013718  1
  V  V92  1  0.62171300  0.75288592  0.87412476  1
  Zn  Zn93  1  0.87931140  0.25400076  0.12624744  1
  Zn  Zn94  1  0.50992822  -0.00339487  0.50875070  1
  Zn  Zn95  1  0.25076738  0.62792662  0.87395691  1
  Zn  Zn96  1  -0.00464259  0.36916673  0.87124239  1
  Zn  Zn97  1  0.49932407  0.37455193  0.37544111  1
  Zn  Zn98  1  0.49800432  0.87744162  0.87340881  1
  Zn  Zn99  1  0.38885492  0.74249341  0.61331036  1
  Zn  Zn100  1  0.37953006  0.87317225  0.50162879  1
  Zn  Zn101  1  0.74827071  0.25034716  0.50296659  1
  Zn  Zn102  1  0.62125035  0.87429919  0.24822366  1
  Zn  Zn103  1  0.61665106  0.63511549  0.50936538  1
  Zn  Zn104  1  0.87554804  0.87477941  0.50006528  1
  Zn  Zn105  1  0.74955063  0.75126969  0.50010412  1
  Zn  Zn106  1  0.12496752  0.74816855  0.87580182  1
  Zn  Zn107  1  0.24715010  0.25295472  0.49551320  1
  Zn  Zn108  1  0.00063568  0.87394356  0.87607433  1
  Zn  Zn109  1  0.50104125  0.87263725  0.37400501  1
  Zn  Zn110  1  0.87646175  0.62544360  0.25163782  1
  Zn  Zn111  1  0.62379915  0.11776338  0.50599075  1
  Zn  Zn112  1  0.87600553  0.37266713  -0.00011864  1
  Zn  Zn113  1  0.50685574  0.74688832  0.73638173  1
  Zn  Zn114  1  0.12621367  0.00123666  0.62406141  1
  Zn  Zn115  1  0.87764534  0.50028949  0.37497656  1
  Zn  Zn116  1  0.50092760  0.00004152  -0.00101083  1
  Zn  Zn117  1  0.37830978  0.00001774  0.87501894  1
  Zn  Zn118  1  0.51566337  0.10998368  0.62942773  1
  Zn  Zn119  1  0.49944370  0.75222437  0.24998272  1
  Zn  Zn120  1  0.24848483  0.74970992  -0.00250636  1
  Zn  Zn121  1  -0.00189282  0.62353684  0.12773549  1
  Zn  Zn122  1  0.18861442  0.18640330  0.18503139  1
  Zn  Zn123  1  0.18854962  0.18820121  0.68599526  1
  Zn  Zn124  1  0.18602752  0.68842321  0.18482401  1
  Zn  Zn125  1  0.19082017  0.68784646  0.68830813  1
  Zn  Zn126  1  0.68884129  0.18791415  0.18992971  1
  Zn  Zn127  1  0.68937249  0.18933101  0.68670920  1
  Zn  Zn128  1  0.68790289  0.68758100  0.18908325  1
  Zn  Zn129  1  0.68988717  0.69061470  0.68860789  1
  Zn  Zn130  1  0.31222852  0.31398208  0.31134134  1
  Zn  Zn131  1  0.30919219  0.31202363  0.81146520  1
  Zn  Zn132  1  0.30944383  0.81101087  0.30904180  1
  Zn  Zn133  1  0.30927767  0.80891482  0.81491262  1
  Zn  Zn134  1  0.81469756  0.31602570  0.31410818  1
  Zn  Zn135  1  0.81209793  0.31320929  0.81296034  1
  Zn  Zn136  1  0.81191081  0.81274695  0.31222602  1
  Zn  Zn137  1  0.81249917  0.81362009  0.81298172  1
  Zn  Zn138  1  0.18541273  0.43579004  0.43594005  1
  Zn  Zn139  1  0.18689864  0.43713816  0.93564508  1
  Zn  Zn140  1  0.18616294  0.94130386  0.43718431  1
  Zn  Zn141  1  0.18951533  0.93796355  0.93500134  1
  Zn  Zn142  1  0.68612254  0.43800267  0.44007467  1
  Zn  Zn143  1  0.68795303  0.43683823  0.93808433  1
  Zn  Zn144  1  0.68926576  0.93669682  0.43656977  1
  Zn  Zn145  1  0.68813310  0.93936963  0.93761894  1
  Zn  Zn146  1  0.31387730  0.06036716  0.06220703  1
  Zn  Zn147  1  0.31127377  0.06296238  0.56299390  1
  Zn  Zn148  1  0.31063662  0.56114859  0.06266130  1
  Zn  Zn149  1  0.31109574  0.56135475  0.56255096  1
  Zn  Zn150  1  0.81450389  0.06393325  0.06436115  1
  Zn  Zn151  1  0.81434211  0.06324748  0.56177489  1
  Zn  Zn152  1  0.81420328  0.56326251  0.06384057  1
  Zn  Zn153  1  0.81160181  0.56184376  0.56233958  1
  Zn  Zn154  1  0.43746435  0.43719376  0.18833020  1
  Zn  Zn155  1  0.43674414  0.43756716  0.68712678  1
  Zn  Zn156  1  0.43680953  0.93726235  0.19032471  1
  Zn  Zn157  1  0.43724456  0.93551236  0.68823065  1
  Zn  Zn158  1  0.93872476  0.43462800  0.18836635  1
  Zn  Zn159  1  0.93772640  0.43928995  0.68714084  1
  Zn  Zn160  1  0.93697403  0.94001432  0.18768393  1
  Zn  Zn161  1  0.93663318  0.94020407  0.68732389  1
  Zn  Zn162  1  0.06299896  0.06443299  0.31289896  1
  Zn  Zn163  1  0.06414335  0.05934379  0.81497513  1
  Zn  Zn164  1  0.06146965  0.55879189  0.31239659  1
  Zn  Zn165  1  0.06205912  0.56048873  0.81407292  1
  Zn  Zn166  1  0.57642897  0.04787001  0.33704318  1
  Zn  Zn167  1  0.55966874  0.06227331  0.81373179  1
  Zn  Zn168  1  0.56148640  0.56417215  0.31521028  1
  Zn  Zn169  1  0.56179101  0.56191776  0.81344163  1
  Zn  Zn170  1  0.44000614  0.18215295  0.44016456  1
  Zn  Zn171  1  0.43853765  0.18634518  0.93726726  1
  Zn  Zn172  1  0.43709366  0.68770344  0.43534712  1
  Zn  Zn173  1  0.43538829  0.68781024  0.93608009  1
  Zn  Zn174  1  0.93621158  0.18826256  0.44319720  1
  Zn  Zn175  1  0.93704659  0.18578405  0.94116124  1
  Zn  Zn176  1  0.93399786  0.68774095  0.43777170  1
  Zn  Zn177  1  0.94055319  0.68690189  0.93747836  1
  Zn  Zn178  1  0.06526800  0.31143338  0.06156456  1
  Zn  Zn179  1  0.06063398  0.31238954  0.56212819  1
  Zn  Zn180  1  0.06158328  0.81050085  0.06369818  1
  Zn  Zn181  1  0.06353568  0.81304371  0.56360095  1
  Zn  Zn182  1  0.56386950  0.31194427  0.06343983  1
  Zn  Zn183  1  0.56085292  0.31464328  0.56129589  1
  Zn  Zn184  1  0.56107450  0.81293035  0.06397390  1
  Zn  Zn185  1  0.56001175  0.81761214  0.55810579  1
  O  O186  1  0.11934457  0.12896230  0.11210260  1
  O  O187  1  0.11695194  0.12412992  0.61904639  1
  O  O188  1  0.12309678  0.61706718  0.11644139  1
  O  O189  1  0.11987073  0.61962231  0.62037030  1
  O  O190  1  0.62100339  0.12082885  0.12156208  1
  O  O191  1  0.62824631  0.12960221  0.61877335  1
  O  O192  1  0.61993077  0.62022613  0.11867605  1
  O  O193  1  0.63223717  0.61071923  0.62675711  1
  O  O194  1  0.37431638  0.38190459  0.38123310  1
  O  O195  1  0.37979135  0.37880923  0.88017776  1
  O  O196  1  0.36505850  0.88917370  0.37321567  1
  O  O197  1  0.37473412  0.87352741  0.88643679  1
  O  O198  1  0.88375022  0.37889364  0.38128908  1
  O  O199  1  0.87748879  0.38227578  0.87680054  1
  O  O200  1  0.88169217  0.88244430  0.37616617  1
  O  O201  1  0.87591111  0.88163935  0.88245901  1
  O  O202  1  0.25503187  0.00899751  0.36527803  1
  O  O203  1  0.25247507  0.00761686  0.86755831  1
  O  O204  1  0.25460815  0.50603510  0.37043098  1
  O  O205  1  0.25743759  0.49910076  0.86845703  1
  O  O206  1  0.75906687  0.01021746  0.36795528  1
  O  O207  1  0.75639474  0.00644180  0.86762984  1
  O  O208  1  0.74762579  0.50655064  0.36694262  1
  O  O209  1  0.75385490  0.50579391  0.86976603  1
  O  O210  1  0.24479926  0.49224908  0.13065469  1
  O  O211  1  0.24315350  0.49350610  0.63019246  1
  O  O212  1  0.25475271  0.99040853  0.13474139  1
  O  O213  1  0.24905214  0.98985722  0.63077958  1
  O  O214  1  0.74393000  0.49667911  0.13258263  1
  O  O215  1  0.74256297  0.49453213  0.63128898  1
  O  O216  1  0.74539779  0.99655956  0.12974650  1
  O  O217  1  0.75923474  0.99290529  0.63748336  1
  O  O218  1  0.00935688  0.38083408  0.26007411  1
  O  O219  1  0.01495675  0.38009017  0.75048749  1
  O  O220  1  0.00493396  0.87142393  0.25516809  1
  O  O221  1  0.00898620  0.87143303  0.74858566  1
  O  O222  1  0.50604434  0.36837637  0.25109006  1
  O  O223  1  0.50460550  0.37034168  0.75683125  1
  O  O224  1  0.50200250  0.87094198  0.25619417  1
  O  O225  1  0.51340775  0.87215295  0.75342043  1
  O  O226  1  0.49235546  0.13232883  0.24397493  1
  O  O227  1  0.49307721  0.13320914  0.74866746  1
  O  O228  1  0.49136272  0.62294526  0.24230638  1
  O  O229  1  0.48566556  0.62369762  0.75369129  1
  O  O230  1  0.99341355  0.11661657  0.23871965  1
  O  O231  1  0.99518978  0.11694977  0.73909842  1
  O  O232  1  0.99809452  0.63251545  0.24955957  1
  O  O233  1  0.99504374  0.62890638  0.74420397  1
  O  O234  1  0.37005701  0.25555545  0.00484108  1
  O  O235  1  0.37422803  0.25574690  0.50852789  1
  O  O236  1  0.37269995  0.75834873  0.00620313  1
  O  O237  1  0.36429452  0.75225607  0.49689393  1
  O  O238  1  0.86594208  0.25157834  0.00221197  1
  O  O239  1  0.87235464  0.25686944  0.51338864  1
  O  O240  1  0.87045255  0.75506921  0.00468905  1
  O  O241  1  0.87103924  0.75389164  0.50879598  1
  O  O242  1  0.12719762  0.23636054  0.50617833  1
  O  O243  1  0.13186291  0.24077848  0.99211491  1
  O  O244  1  0.12906856  0.74386075  0.49398351  1
  O  O245  1  0.12304392  0.73661672  1.00020870  1
  O  O246  1  0.62707032  0.25261187  0.48636961  1
  O  O247  1  0.63064545  0.24475018  0.99439712  1
  O  O248  1  0.62983046  0.74973494  0.48892817  1
  O  O249  1  0.63088184  0.74586057  0.99285476  1
  O  O250  1  0.49484784  0.24524062  0.13048335  1
  O  O251  1  0.48723991  0.25600389  0.63190104  1
  O  O252  1  0.49287404  0.74170024  0.12590345  1
  O  O253  1  0.50057835  0.75015713  0.62410294  1
  O  O254  1  0.99845258  0.23454302  0.11608525  1
  O  O255  1  0.99029507  0.23888148  0.62097642  1
  O  O256  1  0.99270754  0.74929247  0.13260326  1
  O  O257  1  0.99480478  0.74417657  0.63047509  1
  O  O258  1  -0.00351946  0.26397086  0.38204684  1
  O  O259  1  0.01464589  0.24923173  0.88211098  1
  O  O260  1  0.00465123  0.75575352  0.37075531  1
  O  O261  1  0.00302914  0.75332988  0.86651180  1
  O  O262  1  0.50940635  0.25006235  0.36884372  1
  O  O263  1  0.50568379  0.25543006  0.86960684  1
  O  O264  1  0.51188052  0.74694329  0.37221021  1
  O  O265  1  0.51521343  0.75047821  0.87401485  1
  O  O266  1  0.24085452  0.12547176  0.49158197  1
  O  O267  1  0.24324356  0.12805352  0.99643560  1
  O  O268  1  0.24373304  0.62974958  0.49433217  1
  O  O269  1  0.23813301  0.62363767  0.99964573  1
  O  O270  1  0.75213528  0.12667156  0.48463720  1
  O  O271  1  0.74508761  0.13006116  0.99514322  1
  O  O272  1  0.74491195  0.62378690  0.49007502  1
  O  O273  1  0.74409397  0.63021592  0.99484674  1
  O  O274  1  0.25452621  0.36974894  0.00589813  1
  O  O275  1  0.25492474  0.37379673  0.50594944  1
  O  O276  1  0.25587641  0.87648591  0.00877111  1
  O  O277  1  0.24652480  0.87046812  0.50909404  1
  O  O278  1  0.74977290  0.36931985  0.00683555  1
  O  O279  1  0.75795480  0.37589242  0.50717005  1
  O  O280  1  0.75599411  0.87017136  0.00543074  1
  O  O281  1  0.75185217  0.87873047  0.51360742  1
  O  O282  1  0.13117576  0.49369053  0.24378540  1
  O  O283  1  0.13011290  0.49233857  0.74500367  1
  O  O284  1  0.13677840  0.99375966  0.25567869  1
  O  O285  1  0.13161288  0.99081782  0.74802934  1
  O  O286  1  0.63239003  0.49607813  0.24512764  1
  O  O287  1  0.62878008  0.49514304  0.74421542  1
  O  O288  1  0.63448902  1.00016362  0.24587085  1
  O  O289  1  0.63842791  0.99138985  0.75899636  1
  O  O290  1  0.36027362  0.00510016  0.25592978  1
  O  O291  1  0.36713908  0.00640177  0.75235312  1
  O  O292  1  0.36747895  0.50377720  0.25452577  1
  O  O293  1  0.37076813  0.50753177  0.75406503  1
  O  O294  1  0.87121892  0.01064339  0.25509662  1
  O  O295  1  0.86687959  0.00629505  0.75683051  1
  O  O296  1  0.86116144  0.50046885  0.25062438  1
  O  O297  1  0.86940070  0.50588110  0.75467358  1
  O  O298  1  0.11668538  0.37929125  0.36544112  1
  O  O299  1  0.12487591  0.36577204  0.86724385  1
  O  O300  1  0.11984050  0.86949510  0.36893731  1
  O  O301  1  0.12394731  0.87466897  0.86148436  1
  O  O302  1  0.62589114  0.36645489  0.36848117  1
  O  O303  1  0.61938856  0.37032512  0.86989036  1
  O  O304  1  0.63012631  0.86029372  0.36992621  1
  O  O305  1  0.62951769  0.86642711  0.86698424  1
  O  O306  1  0.37873509  0.13099144  0.12973471  1
  O  O307  1  0.36972591  0.13706345  0.63154437  1
  O  O308  1  0.37853431  0.62883767  0.12866373  1
  O  O309  1  0.36961563  0.62407387  0.63990112  1
  O  O310  1  0.88341704  0.12705576  0.13336808  1
  O  O311  1  0.88195421  0.13267611  0.62986927  1
  O  O312  1  0.87610183  0.63431833  0.12871564  1
  O  O313  1  0.87983091  0.62974992  0.63126020  1
  O  O314  1  0.25675780  0.25485699  0.11848721  1
  O  O315  1  0.26095308  0.25643935  0.62402592  1
  O  O316  1  0.25563519  0.76085207  0.12344000  1
  O  O317  1  0.24971071  0.75796172  0.61710987  1
  O  O318  1  0.74923259  0.25690467  0.11930729  1
  O  O319  1  0.76113445  0.25816478  0.62411653  1
  O  O320  1  0.75446990  0.75542283  0.11912622  1
  O  O321  1  0.75665519  0.76058940  0.62571584  1
  O  O322  1  0.25656331  0.23533321  0.37502184  1
  O  O323  1  0.24143118  0.24423637  0.88081022  1
  O  O324  1  0.24232295  0.74430665  0.37875988  1
  O  O325  1  0.24230965  0.74537685  0.88054268  1
  O  O326  1  0.74514502  0.24483248  0.37554952  1
  O  O327  1  0.74406511  0.24488704  0.88014140  1
  O  O328  1  0.74397528  0.73994514  0.37457789  1
  O  O329  1  0.74235058  0.74493248  0.88038900  1
  O  O330  1  0.00746250  0.11701078  0.00648915  1
  O  O331  1  0.00640131  0.12055202  0.50788393  1
  O  O332  1  0.00797635  0.61304512  0.00146496  1
  O  O333  1  0.00552420  0.62070389  0.50546670  1
  O  O334  1  0.50715781  0.12646215  0.00890799  1
  O  O335  1  0.50279905  0.11892370  0.50709869  1
  O  O336  1  0.50491102  0.61884308  0.00482674  1
  O  O337  1  0.49900432  0.60962073  0.49687969  1
  O  O338  1  0.49223558  0.38576637  0.49707283  1
  O  O339  1  0.49445179  0.37941671  0.99551769  1
  O  O340  1  0.49458350  0.88189850  0.48843667  1
  O  O341  1  0.48824513  0.87582288  1.00006459  1
  O  O342  1  0.99690230  0.38071769  0.49384484  1
  O  O343  1  1.00107926  0.38657176  0.99784107  1
  O  O344  1  1.00112502  0.88266978  0.49422350  1
  O  O345  1  0.99593120  0.88401882  1.00076368  1
  O  O346  1  0.49347025  0.49721877  0.38319306  1
  O  O347  1  0.49534541  0.49321198  0.88156619  1
  O  O348  1  0.47400255  1.00204371  0.36308801  1
  O  O349  1  0.49654217  0.99609383  0.88066792  1
  O  O350  1  0.99834587  0.49308622  0.38353289  1
  O  O351  1  0.99348915  0.49774622  0.88395845  1
  O  O352  1  0.99612194  0.99540882  0.37978921  1
  O  O353  1  0.99360076  0.99980377  0.88729591  1
  O  O354  1  -0.00436010  0.00981753  0.11195550  1
  O  O355  1  -0.00070580  0.01151166  0.61831260  1
  O  O356  1  0.00496328  0.50011539  0.11596965  1
  O  O357  1  0.00591006  0.50617801  0.61942459  1
  O  O358  1  0.50630649  0.00746355  0.12532540  1
  O  O359  1  0.49529248  -0.00103597  0.62105318  1
  O  O360  1  0.50510978  0.50455509  0.11917366  1
  O  O361  1  0.51028612  0.49256550  0.61712711  1
  O  O362  1  0.24214902  0.38000598  0.24548107  1
  O  O363  1  0.24077111  0.38080654  0.74443335  1
  O  O364  1  0.24409089  0.88193985  0.24161479  1
  O  O365  1  0.24315941  0.87768360  0.74253605  1
  O  O366  1  0.74468665  0.38380178  0.24562952  1
  O  O367  1  0.74397001  0.38179623  0.74515817  1
  O  O368  1  0.75125039  0.88320286  0.24175671  1
  O  O369  1  0.74531490  0.88357830  0.74458900  1
  O  O370  1  0.25194888  0.11857990  0.25401483  1
  O  O371  1  0.25392128  0.11956556  0.75432279  1
  O  O372  1  0.25335921  0.61902479  0.25443899  1
  O  O373  1  0.25922785  0.61760872  0.75198344  1
  O  O374  1  0.76106555  0.12124060  0.25745086  1
  O  O375  1  0.75655196  0.11851141  0.75617568  1
  O  O376  1  0.74868662  0.61475147  0.25892573  1
  O  O377  1  0.75605325  0.61978546  0.75608137  1
  O  O378  1  0.36389653  0.11573592  0.36936087  1
  O  O379  1  0.36732830  0.12752957  0.86773439  1
  O  O380  1  0.36745408  0.61868618  0.36838437  1
  O  O381  1  0.37354094  0.61749377  0.86595906  1
  O  O382  1  0.87162849  0.12283530  0.36831853  1
  O  O383  1  0.87025627  0.12078881  0.87072364  1
  O  O384  1  0.86245958  0.62153415  0.37347648  1
  O  O385  1  0.86935433  0.61994636  0.86986022  1
  O  O386  1  0.12980375  0.37925003  0.13206628  1
  O  O387  1  0.12887659  0.37836067  0.63192723  1
  O  O388  1  0.13692729  0.86962524  0.13040799  1
  O  O389  1  0.13362151  0.87647677  0.63461862  1
  O  O390  1  0.63034811  0.38203765  0.13011592  1
  O  O391  1  0.63094292  0.38257566  0.63080307  1
  O  O392  1  0.63218489  0.88199069  0.12506128  1
  O  O393  1  0.63860755  0.87072365  0.63769374  1
  O  O394  1  0.12883340  0.26318749  0.24413024  1
  O  O395  1  0.13229091  0.25877844  0.75986462  1
  O  O396  1  0.11942492  0.75599006  0.25557789  1
  O  O397  1  0.11899461  0.75881761  0.74833455  1
  O  O398  1  0.62082054  0.25718645  0.25651075  1
  O  O399  1  0.62025707  0.25674874  0.75639344  1
  O  O400  1  0.62317037  0.74996894  0.25897179  1
  O  O401  1  0.62863835  0.75898228  0.75943520  1
  O  O402  1  0.37926645  0.24554631  0.24369846  1
  O  O403  1  0.37868399  0.24652618  0.74259759  1
  O  O404  1  0.37388235  0.74131524  0.24328541  1
  O  O405  1  0.37619640  0.73469005  0.75174398  1
  O  O406  1  0.87172997  0.23715961  0.24908631  1
  O  O407  1  0.87022240  0.24411172  0.73895467  1
  O  O408  1  0.88139054  0.75015975  0.24403380  1
  O  O409  1  0.87993917  0.74446347  0.74546981  1
  O  O410  1  0.38062493  0.49533082  0.49643118  1
  O  O411  1  0.38030492  0.49379341  0.99567384  1
  O  O412  1  0.36681270  0.99921154  0.48312537  1
  O  O413  1  0.37629382  0.98839401  0.99895076  1
  O  O414  1  0.88267769  0.49262212  0.50217145  1
  O  O415  1  0.88352853  0.50002494  0.99482050  1
  O  O416  1  0.88335104  1.00015195  0.49228558  1
  O  O417  1  0.88242658  0.99583322  0.99586749  1
  O  O418  1  0.11665528  0.01086381  -0.00777961  1
  O  O419  1  0.11825631  0.01193052  0.50231718  1
  O  O420  1  0.11814430  0.50405674  0.00493522  1
  O  O421  1  0.12058867  0.50561094  0.50662711  1
  O  O422  1  0.62590484  0.00771601  0.00829842  1
  O  O423  1  0.61072296  0.01411526  0.45052304  1
  O  O424  1  0.61957436  0.50583533  0.00453206  1
  O  O425  1  0.61597820  0.49994720  0.50917490  1
  O  O426  1  0.36925225  0.36975353  0.11964661  1
  O  O427  1  0.36862520  0.36803645  0.62087184  1
  O  O428  1  0.36559526  0.87027993  0.11838952  1
  O  O429  1  0.36084809  0.86907047  0.62518225  1
  O  O430  1  0.86729133  0.37225899  0.12288685  1
  O  O431  1  0.87275885  0.36873604  0.62238678  1
  O  O432  1  0.86933710  0.87053553  0.11882238  1
  O  O433  1  0.86606922  0.86977254  0.62668223  1
  O  O434  1  0.13341928  0.12047102  0.38394207  1
  O  O435  1  0.13025024  0.13134866  0.88227776  1
  O  O436  1  0.12978506  0.62975757  0.38058174  1
  O  O437  1  0.12646151  0.62237310  0.88663329  1
  O  O438  1  0.64012649  0.14196882  0.36429119  1
  O  O439  1  0.63106674  0.13114321  0.88044624  1
  O  O440  1  0.63340659  0.63227458  0.37717505  1
  O  O441  1  0.63038431  0.63256059  0.87926011  1
