# generated using pymatgen
data_V93Zn93O256
_symmetry_space_group_name_H-M   'P 1'
_cell_length_a   17.04880034
_cell_length_b   17.04829868
_cell_length_c   17.04619421
_cell_angle_alpha   90.01885356
_cell_angle_beta   89.98922926
_cell_angle_gamma   90.06047091
_symmetry_Int_Tables_number   1
_chemical_formula_structural   V93Zn93O256
_chemical_formula_sum   'V93 Zn93 O256'
_cell_volume   4954.52505799
_cell_formula_units_Z   1
loop_
 _symmetry_equiv_pos_site_id
 _symmetry_equiv_pos_as_xyz
  1  'x, y, z'
loop_
 _atom_site_type_symbol
 _atom_site_label
 _atom_site_symmetry_multiplicity
 _atom_site_fract_x
 _atom_site_fract_y
 _atom_site_fract_z
 _atom_site_occupancy
  V  V0  1  0.11617933  0.37503250  0.75550415  1
  V  V1  1  0.50272479  0.50141492  -0.00175065  1
  V  V2  1  0.49958066  0.87343336  0.87401013  1
  V  V3  1  0.50122814  0.88172442  0.37876158  1
  V  V4  1  0.50164985  0.37569935  0.37402260  1
  V  V5  1  0.12652811  0.12597333  0.00108134  1
  V  V6  1  0.24679706  -0.00585439  0.25191027  1
  V  V7  1  0.75024471  0.62323174  0.37318842  1
  V  V8  1  -0.00228812  0.62579244  0.12440515  1
  V  V9  1  0.25011405  0.87451912  0.62509557  1
  V  V10  1  0.12642022  -0.00212092  0.12797153  1
  V  V11  1  0.24984387  0.49930575  0.75089724  1
  V  V12  1  0.87443041  0.24929589  0.62564354  1
  V  V13  1  0.12365528  0.49934723  0.62647330  1
  V  V14  1  0.87510569  0.87422309  0.49921182  1
  V  V15  1  0.87855885  0.48862299  0.87911170  1
  V  V16  1  0.74985386  0.74874718  0.49973316  1
  V  V17  1  -0.00174762  0.12634650  0.62817481  1
  V  V18  1  0.75036835  0.12545348  0.37546274  1
  V  V19  1  0.62012534  -0.00041025  0.61727775  1
  V  V20  1  0.62463169  0.49913101  0.62457605  1
  V  V21  1  0.00340130  0.75424373  0.24867533  1
  V  V22  1  0.37249999  0.25288488  0.12309997  1
  V  V23  1  0.12592759  0.75383995  0.37233606  1
  V  V24  1  0.11815724  0.25353683  0.87663135  1
  V  V25  1  0.13196955  0.50119749  0.12893840  1
  V  V26  1  0.74860614  0.87432844  0.62444234  1
  V  V27  1  0.12473325  0.62543674  0.50013547  1
  V  V28  1  0.62336597  0.87359502  0.74991422  1
  V  V29  1  0.24902495  0.12423625  0.37583448  1
  V  V30  1  0.49838229  0.37550009  0.87543311  1
  V  V31  1  0.37042076  0.61979638  0.25123516  1
  V  V32  1  -0.00061050  0.75037925  0.75073841  1
  V  V33  1  0.50106307  0.00016028  0.00004554  1
  V  V34  1  0.12376546  0.00025520  0.62560119  1
  V  V35  1  0.25023642  0.62498633  0.87491289  1
  V  V36  1  0.87400861  0.74907345  0.62515529  1
  V  V37  1  0.12371388  0.87455785  0.75078303  1
  V  V38  1  0.75479359  0.37680564  0.12252333  1
  V  V39  1  0.74811393  0.62230687  0.87795969  1
  V  V40  1  0.12504066  0.62528285  0.00084643  1
  V  V41  1  0.24914309  0.25034345  0.50220417  1
  V  V42  1  0.37556007  0.74851611  0.62492430  1
  V  V43  1  0.24962308  0.74887560  0.49910044  1
  V  V44  1  0.87416511  0.50052134  0.37321642  1
  V  V45  1  0.49845081  0.62555063  0.62438985  1
  V  V46  1  0.87702591  0.12583035  0.24991933  1
  V  V47  1  0.74946577  0.00228905  0.75036069  1
  V  V48  1  0.62760938  0.50248177  0.12198689  1
  V  V49  1  0.37390022  0.37584345  0.50208488  1
  V  V50  1  0.49802363  0.24926058  0.75002823  1
  V  V51  1  0.74995580  0.74840471  0.00069078  1
  V  V52  1  0.74780261  0.37427162  0.62410978  1
  V  V53  1  0.00056560  -0.00038082  0.50086015  1
  V  V54  1  0.87353459  0.00017821  0.87484517  1
  V  V55  1  0.62635011  0.87489834  0.24875383  1
  V  V56  1  -0.00128774  0.62497269  0.62560388  1
  V  V57  1  0.62441269  0.74532318  0.87775826  1
  V  V58  1  0.87647915  0.00064266  0.37432682  1
  V  V59  1  0.62605410  0.75066896  0.37382265  1
  V  V60  1  0.37464718  0.87585060  0.00039073  1
  V  V61  1  0.00231124  0.87520650  0.37259510  1
  V  V62  1  0.50229470  0.25087109  0.24914544  1
  V  V63  1  0.37483434  -0.00026791  0.87545602  1
  V  V64  1  0.87518620  0.87378035  0.00110395  1
  V  V65  1  0.49842454  0.12145131  0.61794403  1
  V  V66  1  0.49837320  0.50059350  0.49761657  1
  V  V67  1  0.87431327  0.37479308  0.49948136  1
  V  V68  1  0.24918559  0.12607541  0.87640941  1
  V  V69  1  0.13384933  0.38093235  0.25176976  1
  V  V70  1  0.00092326  0.37531615  0.37496774  1
  V  V71  1  0.24913117  -0.00027390  0.75104507  1
  V  V72  1  0.12471449  0.25177243  0.37516855  1
  V  V73  1  0.37464178  0.12512732  0.75036091  1
  V  V74  1  0.62621018  0.00077653  0.12334090  1
  V  V75  1  0.74804873  0.24885844  0.49868208  1
  V  V76  1  0.75102232  0.25171650  -0.00056810  1
  V  V77  1  -0.00055755  0.50003450  0.50035444  1
  V  V78  1  -0.00005966  0.87431943  0.87531682  1
  V  V79  1  0.37929206  0.88109350  0.49962201  1
  V  V80  1  0.87426423  0.62362182  0.75154942  1
  V  V81  1  0.62374847  0.62502453  0.49867267  1
  V  V82  1  0.62326600  0.37457300  0.74822667  1
  V  V83  1  0.87770255  0.25479358  0.12095470  1
  V  V84  1  0.24985546  0.75086186  -0.00001819  1
  V  V85  1  0.37665497  0.75108291  0.12517963  1
  V  V86  1  0.37526993  0.12360403  0.24984157  1
  V  V87  1  0.50567830  0.62711232  0.12071283  1
  V  V88  1  0.00004678  -0.00037643  0.00117616  1
  V  V89  1  0.24828452  0.87610484  0.12747447  1
  V  V90  1  0.62480477  0.24902005  0.87568958  1
  V  V91  1  0.00070389  0.12495592  0.12634398  1
  V  V92  1  -0.00257131  0.48753442  -0.00223981  1
  Zn  Zn93  1  0.12475155  0.12541185  0.50091162  1
  Zn  Zn94  1  0.49800814  0.74673002  0.75093369  1
  Zn  Zn95  1  0.37370265  0.24863267  0.62677815  1
  Zn  Zn96  1  0.62439004  0.12490817  -0.00131254  1
  Zn  Zn97  1  0.37189470  0.37673410  -0.00068196  1
  Zn  Zn98  1  0.87387334  0.75115819  0.12711582  1
  Zn  Zn99  1  0.24866337  0.37302608  0.62788972  1
  Zn  Zn100  1  0.50184613  0.12646626  0.12293352  1
  Zn  Zn101  1  0.75144756  0.50057992  0.24835651  1
  Zn  Zn102  1  0.62773589  0.37548916  0.24917203  1
  Zn  Zn103  1  -0.00579376  0.25412777  0.75664919  1
  Zn  Zn104  1  0.75249899  -0.00026221  0.24762320  1
  Zn  Zn105  1  0.25335096  0.38092963  0.12619970  1
  Zn  Zn106  1  0.36631204  0.49515425  0.36698686  1
  Zn  Zn107  1  0.24527260  0.61997530  0.37004262  1
  Zn  Zn108  1  0.37566301  0.62449853  0.74947172  1
  Zn  Zn109  1  0.75232923  0.87482862  0.12504364  1
  Zn  Zn110  1  0.12383420  0.75039447  0.87577508  1
  Zn  Zn111  1  0.37882167  0.00231540  0.37863278  1
  Zn  Zn112  1  0.62577675  0.24844558  0.37422218  1
  Zn  Zn113  1  0.75090518  0.49730432  0.75219886  1
  Zn  Zn114  1  0.00220306  0.25198545  0.24964450  1
  Zn  Zn115  1  0.37491228  0.49866248  0.87602334  1
  Zn  Zn116  1  0.61820512  0.12258102  0.49513722  1
  Zn  Zn117  1  0.87346561  0.12738130  0.75306538  1
  Zn  Zn118  1  0.24988444  0.25494589  0.00022964  1
  Zn  Zn119  1  0.74909835  0.12438242  0.87729693  1
  Zn  Zn120  1  0.87410192  0.62502397  0.24962953  1
  Zn  Zn121  1  0.50038297  0.74978030  0.24987976  1
  Zn  Zn122  1  0.18793407  0.18842100  0.19013380  1
  Zn  Zn123  1  0.18478540  0.18841501  0.68989589  1
  Zn  Zn124  1  0.18751668  0.68888942  0.18670689  1
  Zn  Zn125  1  0.18661561  0.68785417  0.68730521  1
  Zn  Zn126  1  0.68929498  0.18698858  0.18725771  1
  Zn  Zn127  1  0.68369206  0.18649791  0.68561379  1
  Zn  Zn128  1  0.68792469  0.68658414  0.18786071  1
  Zn  Zn129  1  0.68649291  0.68493637  0.69009058  1
  Zn  Zn130  1  0.31302827  0.31141361  0.31368033  1
  Zn  Zn131  1  0.31005082  0.31296296  0.81496626  1
  Zn  Zn132  1  0.31544360  0.80920727  0.31289098  1
  Zn  Zn133  1  0.31257546  0.81085185  0.81138222  1
  Zn  Zn134  1  0.81414069  0.31275519  0.30869061  1
  Zn  Zn135  1  0.80956743  0.31104717  0.81043513  1
  Zn  Zn136  1  0.81495393  0.81082058  0.31101062  1
  Zn  Zn137  1  0.81202090  0.81331167  0.81304874  1
  Zn  Zn138  1  0.18937388  0.44067057  0.43611638  1
  Zn  Zn139  1  0.18625071  0.43679541  0.94136581  1
  Zn  Zn140  1  0.18874650  0.93690442  0.43868111  1
  Zn  Zn141  1  0.18632253  0.93800288  0.93922581  1
  Zn  Zn142  1  0.68694422  0.43769206  0.43717678  1
  Zn  Zn143  1  0.68716876  0.43576042  0.93845090  1
  Zn  Zn144  1  0.68999232  0.93778560  0.43571435  1
  Zn  Zn145  1  0.68719900  0.93354175  0.93703140  1
  Zn  Zn146  1  0.31295760  0.06467641  0.06362685  1
  Zn  Zn147  1  0.31143277  0.06287623  0.56399631  1
  Zn  Zn148  1  0.31694085  0.56485370  0.06157629  1
  Zn  Zn149  1  0.31071860  0.56187589  0.56087648  1
  Zn  Zn150  1  0.81194242  0.06451516  0.06261188  1
  Zn  Zn151  1  0.81218690  0.06228239  0.56230534  1
  Zn  Zn152  1  0.81536244  0.56272575  0.05797019  1
  Zn  Zn153  1  0.81099927  0.56109971  0.56154165  1
  Zn  Zn154  1  0.43997498  0.43802915  0.18487846  1
  Zn  Zn155  1  0.43665728  0.43832869  0.68666506  1
  Zn  Zn156  1  0.43905520  0.93759973  0.18868304  1
  Zn  Zn157  1  0.43771623  0.93669082  0.68817803  1
  Zn  Zn158  1  0.94205816  0.43862908  0.18936850  1
  Zn  Zn159  1  0.93419264  0.43850345  0.68897156  1
  Zn  Zn160  1  0.93767075  0.93654310  0.18745323  1
  Zn  Zn161  1  0.93577752  0.93724909  0.68787573  1
  Zn  Zn162  1  0.06423203  0.06430494  0.31294693  1
  Zn  Zn163  1  0.06197738  0.06363903  0.81387102  1
  Zn  Zn164  1  0.06177678  0.56453513  0.31171953  1
  Zn  Zn165  1  0.06111694  0.56192088  0.81530240  1
  Zn  Zn166  1  0.56443751  0.06187928  0.30956690  1
  Zn  Zn167  1  0.56282541  0.06353340  0.81062442  1
  Zn  Zn168  1  0.56083082  0.56180853  0.30769527  1
  Zn  Zn169  1  0.56278965  0.56204166  0.80996617  1
  Zn  Zn170  1  0.43481393  0.19017679  0.43578445  1
  Zn  Zn171  1  0.43914598  0.18649049  0.93872390  1
  Zn  Zn172  1  0.43919560  0.69305522  0.43579862  1
  Zn  Zn173  1  0.43640872  0.68618830  0.93857540  1
  Zn  Zn174  1  0.93809847  0.18834896  0.43968358  1
  Zn  Zn175  1  0.93560492  0.18499804  0.93974883  1
  Zn  Zn176  1  0.93787162  0.68686735  0.43618791  1
  Zn  Zn177  1  0.93538376  0.68402784  0.93741246  1
  Zn  Zn178  1  0.06680725  0.31258012  0.06565638  1
  Zn  Zn179  1  0.06259739  0.31381540  0.56535493  1
  Zn  Zn180  1  0.06528321  0.81366872  0.06318968  1
  Zn  Zn181  1  0.06247295  0.81247766  0.56178908  1
  Zn  Zn182  1  0.56448476  0.31622132  0.06155862  1
  Zn  Zn183  1  0.56186731  0.30804268  0.56154308  1
  Zn  Zn184  1  0.56391082  0.81347504  0.06027378  1
  Zn  Zn185  1  0.56095254  0.81142651  0.56181965  1
  O  O186  1  0.12055266  0.12014058  0.12112663  1
  O  O187  1  0.11530700  0.11923903  0.62450208  1
  O  O188  1  0.11726767  0.61931159  0.12205630  1
  O  O189  1  0.11741662  0.61997866  0.62057617  1
  O  O190  1  0.62343040  0.11258492  0.12560569  1
  O  O191  1  0.61546846  0.11601977  0.62311808  1
  O  O192  1  0.61587011  0.61650583  0.12850167  1
  O  O193  1  0.61993035  0.62000044  0.61824058  1
  O  O194  1  0.38455976  0.37398241  0.38346901  1
  O  O195  1  0.38339054  0.37794971  0.87664140  1
  O  O196  1  0.38424421  0.87396635  0.38272458  1
  O  O197  1  0.37895352  0.87992643  0.88031022  1
  O  O198  1  0.88017647  0.37964469  0.38028828  1
  O  O199  1  0.86852141  0.39015761  0.86894879  1
  O  O200  1  0.88112133  0.88038302  0.38031909  1
  O  O201  1  0.88082719  0.88052925  0.88038917  1
  O  O202  1  0.25132117  0.00443549  0.36723713  1
  O  O203  1  0.25488859  0.00490698  0.87024798  1
  O  O204  1  0.25561045  0.50860163  0.37962506  1
  O  O205  1  0.24838910  0.50862434  0.86788909  1
  O  O206  1  0.75798316  0.00958394  0.37428589  1
  O  O207  1  0.75340104  -0.00191702  0.86534435  1
  O  O208  1  0.75561425  0.50521134  0.37421440  1
  O  O209  1  0.75579278  0.50834274  0.87799888  1
  O  O210  1  0.23488669  0.50463832  0.11893811  1
  O  O211  1  0.24191101  0.50042398  0.63530549  1
  O  O212  1  0.24717462  0.99647179  0.13338432  1
  O  O213  1  0.24390674  0.99446073  0.63156022  1
  O  O214  1  0.74487983  0.49397640  0.11991568  1
  O  O215  1  0.74242599  0.49247799  0.62482064  1
  O  O216  1  0.73979712  0.99713083  0.12564479  1
  O  O217  1  0.74259369  0.99422576  0.63159500  1
  O  O218  1  0.01143424  0.37344908  0.25771604  1
  O  O219  1  0.01225952  0.37484936  0.74645520  1
  O  O220  1  -0.00299942  0.86340047  0.25624192  1
  O  O221  1  0.00367411  0.87029540  0.75496864  1
  O  O222  1  0.49851946  0.36700598  0.25830565  1
  O  O223  1  0.50391383  0.36986153  0.75429173  1
  O  O224  1  0.51081254  0.87293502  0.25709315  1
  O  O225  1  0.50542748  0.87170907  0.75702475  1
  O  O226  1  0.49154345  0.13360627  0.25077737  1
  O  O227  1  0.49355010  0.12972087  0.74231047  1
  O  O228  1  0.49328745  0.62860084  0.23712964  1
  O  O229  1  0.49637049  0.62559539  0.74098304  1
  O  O230  1  0.99513600  0.12767660  0.24377672  1
  O  O231  1  0.99762633  0.12504575  0.73779783  1
  O  O232  1  0.99968751  0.63412943  0.23998686  1
  O  O233  1  0.99488934  0.63032462  0.74467261  1
  O  O234  1  0.37620203  0.25012317  0.01255946  1
  O  O235  1  0.36532183  0.25892224  0.50030236  1
  O  O236  1  0.36928489  0.75607413  0.00537680  1
  O  O237  1  0.36931324  0.75905870  0.50470000  1
  O  O238  1  0.86615284  0.24462866  0.01210322  1
  O  O239  1  0.86840641  0.25634097  0.50561352  1
  O  O240  1  0.86601167  0.75542973  -0.00047071  1
  O  O241  1  0.86986704  0.75457528  0.50532036  1
  O  O242  1  0.13539330  0.25211042  0.49531645  1
  O  O243  1  0.12637728  0.24408093  0.99359981  1
  O  O244  1  0.12861822  0.74488475  0.49329362  1
  O  O245  1  0.13276313  0.74353112  0.99895273  1
  O  O246  1  0.63286316  0.24504993  0.49564857  1
  O  O247  1  0.63325763  0.24938375  0.99515152  1
  O  O248  1  0.63116961  0.74500013  0.49428510  1
  O  O249  1  0.63554433  0.75714796  0.98642355  1
  O  O250  1  0.49300888  0.25133682  0.13457112  1
  O  O251  1  0.49809261  0.23968361  0.63219872  1
  O  O252  1  0.49667536  0.74198008  0.12145878  1
  O  O253  1  0.49411257  0.74295616  0.62565666  1
  O  O254  1  0.99221294  0.24443817  0.12402528  1
  O  O255  1  0.99390834  0.24053264  0.62450549  1
  O  O256  1  1.00381648  0.74271853  0.13259192  1
  O  O257  1  0.99323597  0.74502026  0.62985962  1
  O  O258  1  0.00652956  0.25738014  0.37638911  1
  O  O259  1  0.01363608  0.24152980  0.87509711  1
  O  O260  1  0.00648740  0.75427189  0.36850807  1
  O  O261  1  0.00001360  0.75550215  0.86861248  1
  O  O262  1  0.49985119  0.25794988  0.36589527  1
  O  O263  1  0.50493857  0.25512501  0.86964482  1
  O  O264  1  0.50938848  0.76237187  0.37279023  1
  O  O265  1  0.50868167  0.75298407  0.87633660  1
  O  O266  1  0.25030661  0.13441466  0.49529324  1
  O  O267  1  0.24383761  0.12629185  0.99394948  1
  O  O268  1  0.24183707  0.63347580  0.50088665  1
  O  O269  1  0.24624036  0.63011395  0.99303972  1
  O  O270  1  0.75167610  0.13007725  0.48916716  1
  O  O271  1  0.74618900  0.13840527  1.00043900  1
  O  O272  1  0.74320273  0.62996258  0.49454350  1
  O  O273  1  0.75543220  0.63561093  0.98777288  1
  O  O274  1  0.25392628  0.37268235  0.00662926  1
  O  O275  1  0.25814318  0.36671416  0.50027981  1
  O  O276  1  0.25646627  0.87120020  0.00531663  1
  O  O277  1  0.25752256  0.86833304  0.50575359  1
  O  O278  1  0.74644763  0.36371298  0.01138827  1
  O  O279  1  0.75461639  0.36896679  0.50425222  1
  O  O280  1  0.75701542  0.86402022  -0.00162367  1
  O  O281  1  0.75551158  0.86839422  0.50450292  1
  O  O282  1  0.11819282  0.49335686  0.24041108  1
  O  O283  1  0.13032111  0.49389369  0.74790811  1
  O  O284  1  0.13936639  1.00704104  0.24467607  1
  O  O285  1  0.12959312  0.99425688  0.74547775  1
  O  O286  1  0.62684485  0.49723223  0.23537225  1
  O  O287  1  0.62649486  0.49212624  0.74210144  1
  O  O288  1  0.62704510  0.99105109  0.24092485  1
  O  O289  1  0.63227134  0.99357683  0.74189512  1
  O  O290  1  0.36756450  0.00961346  0.25034632  1
  O  O291  1  0.36847780  0.00395488  0.75621396  1
  O  O292  1  0.38152123  0.51616925  0.24670582  1
  O  O293  1  0.36129790  0.50125753  0.75080175  1
  O  O294  1  0.87470299  0.00671337  0.25652866  1
  O  O295  1  0.86361261  -0.00159609  0.75501266  1
  O  O296  1  0.87454533  0.50304673  0.25822720  1
  O  O297  1  0.87319983  0.50683757  0.75891463  1
  O  O298  1  0.12054493  0.37239996  0.36966515  1
  O  O299  1  0.12983750  0.36525089  0.86711694  1
  O  O300  1  0.11874096  0.86136359  0.38287489  1
  O  O301  1  0.11812869  0.87444172  0.86906653  1
  O  O302  1  0.61257661  0.37334513  0.37293837  1
  O  O303  1  0.61888991  0.36927817  0.86855195  1
  O  O304  1  0.62056322  0.87230850  0.36865528  1
  O  O305  1  0.61924886  0.86594572  0.86918647  1
  O  O306  1  0.37795529  0.13294934  0.13531904  1
  O  O307  1  0.38245580  0.12346208  0.63198737  1
  O  O308  1  0.38386302  0.63079709  0.13280611  1
  O  O309  1  0.38072949  0.63110780  0.62289530  1
  O  O310  1  0.88057570  0.13274810  0.13013115  1
  O  O311  1  0.88269494  0.12957799  0.62609169  1
  O  O312  1  0.88790081  0.62756909  0.12447894  1
  O  O313  1  0.87868557  0.62946523  0.62988129  1
  O  O314  1  0.26257136  0.25019729  0.12637024  1
  O  O315  1  0.25070831  0.25016785  0.61475352  1
  O  O316  1  0.25550529  0.75621792  0.11943616  1
  O  O317  1  0.25423857  0.75608702  0.61985698  1
  O  O318  1  0.75691008  0.25684495  0.11941415  1
  O  O319  1  0.75386689  0.25415662  0.61916070  1
  O  O320  1  0.74973125  0.74941335  0.11202618  1
  O  O321  1  0.75400278  0.75415402  0.62006149  1
  O  O322  1  0.24570182  0.24502455  0.38385587  1
  O  O323  1  0.23888573  0.24262835  0.87618042  1
  O  O324  1  0.24099108  0.74723216  0.37920512  1
  O  O325  1  0.24840437  0.74152224  0.88051494  1
  O  O326  1  0.75116923  0.24106571  0.37854315  1
  O  O327  1  0.74490499  0.25108400  0.88485448  1
  O  O328  1  0.74562565  0.74462779  0.38101058  1
  O  O329  1  0.74434258  0.74313620  0.88017783  1
  O  O330  1  0.00576105  0.11787314  0.00722583  1
  O  O331  1  0.00047367  0.11854218  0.51115256  1
  O  O332  1  0.00619376  0.62310468  0.00970673  1
  O  O333  1  0.00425192  0.62011941  0.50652812  1
  O  O334  1  0.50365704  0.11565409  0.00295074  1
  O  O335  1  0.49743353  0.13075744  0.51312499  1
  O  O336  1  0.49479859  0.61623867  0.01136293  1
  O  O337  1  0.50483155  0.62083013  0.50296918  1
  O  O338  1  0.49264305  0.37744723  0.49267038  1
  O  O339  1  0.49887111  0.38473566  0.99378876  1
  O  O340  1  0.49063338  0.87037270  0.49157635  1
  O  O341  1  0.49357295  0.88009293  0.99341287  1
  O  O342  1  0.99437759  0.38082745  0.49579898  1
  O  O343  1  1.00583495  0.38926850  1.00628950  1
  O  O344  1  0.99374091  0.87968405  0.49463794  1
  O  O345  1  0.99567463  0.88026222  0.99526107  1
  O  O346  1  0.49635340  0.49057405  0.37869543  1
  O  O347  1  0.50152018  0.49669972  0.88357809  1
  O  O348  1  0.49950171  0.98644752  0.37002594  1
  O  O349  1  0.49463032  0.99364166  0.87876415  1
  O  O350  1  0.99522262  0.49562621  0.38188579  1
  O  O351  1  0.99082580  0.50778203  0.88608601  1
  O  O352  1  0.99669957  0.99556768  0.38025970  1
  O  O353  1  0.99451729  0.99466018  0.88120798  1
  O  O354  1  0.00601808  0.00488156  0.12084040  1
  O  O355  1  0.00309024  0.00624611  0.62093939  1
  O  O356  1  0.00690329  0.50942480  0.11821891  1
  O  O357  1  0.00320645  0.50580315  0.62000087  1
  O  O358  1  0.50986692  -0.00058990  0.11941540  1
  O  O359  1  0.50968579  0.00882384  0.63272416  1
  O  O360  1  0.50869469  0.50600785  0.11770521  1
  O  O361  1  0.50510456  0.50492075  0.61749460  1
  O  O362  1  0.23782666  0.37326185  0.25101835  1
  O  O363  1  0.24033996  0.38501696  0.75017600  1
  O  O364  1  0.25965245  0.88689405  0.24502853  1
  O  O365  1  0.24443693  0.88030831  0.74490408  1
  O  O366  1  0.74812255  0.37678690  0.23664664  1
  O  O367  1  0.74066589  0.37512806  0.74127321  1
  O  O368  1  0.73870889  0.87617607  0.24986059  1
  O  O369  1  0.74445496  0.88238241  0.74408978  1
  O  O370  1  0.25873984  0.11781441  0.25546888  1
  O  O371  1  0.25410166  0.11873129  0.75533592  1
  O  O372  1  0.26721841  0.63102096  0.24736502  1
  O  O373  1  0.24672648  0.61607953  0.75810288  1
  O  O374  1  0.75724439  0.12489226  0.26019213  1
  O  O375  1  0.74936953  0.11173680  0.74891014  1
  O  O376  1  0.75317926  0.62290432  0.25758047  1
  O  O377  1  0.75575987  0.62250858  0.76028367  1
  O  O378  1  0.36954332  0.12366286  0.36603023  1
  O  O379  1  0.36995965  0.11895918  0.86997788  1
  O  O380  1  0.38062830  0.62897854  0.35749239  1
  O  O381  1  0.36161154  0.62265681  0.87370262  1
  O  O382  1  0.86976835  0.12089324  0.37075909  1
  O  O383  1  0.87041481  0.11616338  0.87263829  1
  O  O384  1  0.86818111  0.61793555  0.37664331  1
  O  O385  1  0.86528099  0.61872917  0.86939577  1
  O  O386  1  0.12657491  0.38441714  0.13542589  1
  O  O387  1  0.12713168  0.38133517  0.63552184  1
  O  O388  1  0.13536388  0.88498168  0.11951787  1
  O  O389  1  0.12965983  0.88007340  0.63060353  1
  O  O390  1  0.63519394  0.38414500  0.12635255  1
  O  O391  1  0.62769120  0.37925238  0.62780590  1
  O  O392  1  0.62581932  0.88214920  0.13282982  1
  O  O393  1  0.62858107  0.88075388  0.62887019  1
  O  O394  1  0.12387270  0.25996889  0.25685816  1
  O  O395  1  0.12257481  0.25847633  0.75847586  1
  O  O396  1  0.11596791  0.74375070  0.26081753  1
  O  O397  1  0.11741954  0.75706196  0.75071580  1
  O  O398  1  0.61313901  0.25122047  0.25007233  1
  O  O399  1  0.61842856  0.25525230  0.75464155  1
  O  O400  1  0.62482261  0.75987794  0.25465904  1
  O  O401  1  0.62520467  0.75569709  0.76082286  1
  O  O402  1  0.38217719  0.24271070  0.24462566  1
  O  O403  1  0.37908146  0.24309717  0.74945206  1
  O  O404  1  0.37998270  0.74230663  0.24178327  1
  O  O405  1  0.37600191  0.74671432  0.74074386  1
  O  O406  1  0.87824093  0.24429154  0.23818092  1
  O  O407  1  0.87689670  0.24765193  0.74275966  1
  O  O408  1  0.88789814  0.74613448  0.24813447  1
  O  O409  1  0.87912732  0.74512196  0.74414262  1
  O  O410  1  0.38092837  0.48944822  0.50003582  1
  O  O411  1  0.38923080  0.49844582  1.00021932  1
  O  O412  1  0.36760617  0.98505966  0.49857004  1
  O  O413  1  0.37980751  0.99524189  0.99487944  1
  O  O414  1  0.88016301  0.49376744  0.49491296  1
  O  O415  1  0.88593144  0.50452964  0.99084335  1
  O  O416  1  0.88056872  0.99333934  0.49498849  1
  O  O417  1  0.88022125  0.99486918  0.99545753  1
  O  O418  1  0.11951809  0.00654168  0.00646448  1
  O  O419  1  0.11884032  0.00071439  0.50769982  1
  O  O420  1  0.11637725  0.50699140  0.00783627  1
  O  O421  1  0.11807411  0.50472399  0.50681992  1
  O  O422  1  0.62043306  -0.00294738  0.00811450  1
  O  O423  1  0.63099049  0.00043166  0.51384019  1
  O  O424  1  0.61500763  0.49595876  0.01033405  1
  O  O425  1  0.61793870  0.50552981  0.50429088  1
  O  O426  1  0.37339929  0.36526775  0.12698090  1
  O  O427  1  0.37311551  0.37173688  0.61338879  1
  O  O428  1  0.37045686  0.87095253  0.11933921  1
  O  O429  1  0.37070309  0.87029161  0.61813240  1
  O  O430  1  0.86824258  0.36541318  0.13060957  1
  O  O431  1  0.86870826  0.37017251  0.61908016  1
  O  O432  1  0.87258237  0.87185350  0.11717843  1
  O  O433  1  0.86878945  0.86892461  0.61929334  1
  O  O434  1  0.13131388  0.13293750  0.37872470  1
  O  O435  1  0.13011292  0.13121792  0.88057324  1
  O  O436  1  0.12231412  0.63650921  0.38195789  1
  O  O437  1  0.13545625  0.62631780  0.88100921  1
  O  O438  1  0.63630229  0.12400419  0.37592765  1
  O  O439  1  0.62810702  0.13317509  0.87574847  1
  O  O440  1  0.62847567  0.62982703  0.37912871  1
  O  O441  1  0.63559803  0.63419263  0.86807236  1
