# generated using pymatgen
data_V93Zn93O256
_symmetry_space_group_name_H-M   'P 1'
_cell_length_a   17.05289756
_cell_length_b   17.05350542
_cell_length_c   17.05074955
_cell_angle_alpha   90.04572816
_cell_angle_beta   89.92847762
_cell_angle_gamma   90.01396004
_symmetry_Int_Tables_number   1
_chemical_formula_structural   V93Zn93O256
_chemical_formula_sum   'V93 Zn93 O256'
_cell_volume   4958.55154897
_cell_formula_units_Z   1
loop_
 _symmetry_equiv_pos_site_id
 _symmetry_equiv_pos_as_xyz
  1  'x, y, z'
loop_
 _atom_site_type_symbol
 _atom_site_label
 _atom_site_symmetry_multiplicity
 _atom_site_fract_x
 _atom_site_fract_y
 _atom_site_fract_z
 _atom_site_occupancy
  V  V0  1  0.87604711  0.25045056  0.62650753  1
  V  V1  1  0.25281764  -0.00459405  0.24633483  1
  V  V2  1  0.74998670  0.12410927  0.87716997  1
  V  V3  1  0.25060205  0.87485347  0.62284036  1
  V  V4  1  0.12624930  0.12740471  -0.00026136  1
  V  V5  1  0.00029360  0.24907980  0.25035685  1
  V  V6  1  0.49930207  0.50016798  0.49962960  1
  V  V7  1  0.37588081  0.87248417  0.49907111  1
  V  V8  1  0.75031182  0.62382416  0.37554485  1
  V  V9  1  0.11763333  0.62106125  0.49757579  1
  V  V10  1  0.13172958  -0.00490127  0.12446039  1
  V  V11  1  0.87468445  0.62587927  0.74928371  1
  V  V12  1  0.12549162  0.12472499  0.50053645  1
  V  V13  1  0.87636768  0.87431933  0.50012266  1
  V  V14  1  0.50290452  0.37527306  0.37554181  1
  V  V15  1  0.50221112  0.24992359  0.25024062  1
  V  V16  1  0.62465922  0.87623215  0.75014374  1
  V  V17  1  0.00035424  0.74893577  0.24774029  1
  V  V18  1  0.74963302  0.75125570  0.00179461  1
  V  V19  1  0.87630561  0.12478970  0.25181857  1
  V  V20  1  0.87563019  0.74840620  0.62525652  1
  V  V21  1  0.50410406  0.87395425  0.36925125  1
  V  V22  1  0.12554495  0.24993135  0.37457331  1
  V  V23  1  0.50196722  -0.00057999  0.00123622  1
  V  V24  1  0.62329847  0.75113953  0.87544088  1
  V  V25  1  0.87609447  -0.00022621  0.37544170  1
  V  V26  1  0.11799227  0.50038304  0.61910354  1
  V  V27  1  0.50736815  0.00605144  0.50341233  1
  V  V28  1  0.62398859  0.62557201  0.50010492  1
  V  V29  1  0.49831674  0.62650349  0.62417291  1
  V  V30  1  0.74468591  0.12482401  0.38069734  1
  V  V31  1  0.49925654  0.75101248  0.74990983  1
  V  V32  1  0.00060786  0.12518396  0.62495437  1
  V  V33  1  0.37821334  0.62471801  0.24050223  1
  V  V34  1  0.00170698  0.00053057  0.49948711  1
  V  V35  1  0.62153207  0.62639684  0.00270852  1
  V  V36  1  0.37391721  0.62595979  0.74816341  1
  V  V37  1  0.74481799  0.24639397  0.50168745  1
  V  V38  1  0.75005745  0.87562027  0.62618811  1
  V  V39  1  0.24946518  0.49694717  0.24392396  1
  V  V40  1  0.75041090  0.37558634  0.62599816  1
  V  V41  1  0.00151478  0.87463620  0.37379824  1
  V  V42  1  0.12263595  0.87468317  0.74828958  1
  V  V43  1  0.37652867  0.12462171  0.25043949  1
  V  V44  1  0.00024268  0.12423221  0.12661333  1
  V  V45  1  0.37015914  0.25250782  0.11946008  1
  V  V46  1  0.62498329  -0.00139007  0.13125386  1
  V  V47  1  0.12616359  0.74908734  0.37314363  1
  V  V48  1  0.37361960  0.50072461  0.87347770  1
  V  V49  1  -0.00019977  0.37758396  0.37687466  1
  V  V50  1  0.87289633  0.37556272  0.00086970  1
  V  V51  1  0.24928428  0.50214604  0.74835577  1
  V  V52  1  0.87960026  0.37999436  0.50062704  1
  V  V53  1  0.12855603  0.25233156  0.88003447  1
  V  V54  1  0.74840291  -0.00244620  0.25219068  1
  V  V55  1  0.12360302  0.75011104  0.87271032  1
  V  V56  1  0.74834543  0.50081648  0.75090454  1
  V  V57  1  0.12569199  0.37454797  0.24987286  1
  V  V58  1  0.12990353  0.87452744  0.24738850  1
  V  V59  1  0.12349817  0.37607030  0.74981124  1
  V  V60  1  0.37559285  -0.00113129  0.87624526  1
  V  V61  1  0.62571194  0.75266263  0.36982083  1
  V  V62  1  0.74885034  0.37483589  0.12629114  1
  V  V63  1  0.87557072  0.12481774  0.75059539  1
  V  V64  1  -0.00119258  -0.00213345  -0.00100576  1
  V  V65  1  -0.00192611  0.50120048  0.00008774  1
  V  V66  1  0.74832587  0.62565976  0.87645138  1
  V  V67  1  0.25107727  0.00048689  0.75019328  1
  V  V68  1  0.62419047  0.50117063  0.62583631  1
  V  V69  1  0.87253130  0.49971534  0.87545136  1
  V  V70  1  0.12352465  0.62358756  0.00024353  1
  V  V71  1  0.25109795  0.62426062  0.37346323  1
  V  V72  1  0.74953576  0.87445051  0.12974781  1
  V  V73  1  0.49941274  0.37429180  0.87556887  1
  V  V74  1  0.75005187  0.75046947  0.49924126  1
  V  V75  1  0.74932490  0.49865037  0.25090469  1
  V  V76  1  0.37578641  0.37515479  0.49934477  1
  V  V77  1  0.74766982  0.24951586  0.00179185  1
  V  V78  1  0.37697262  0.24673963  0.62735539  1
  V  V79  1  0.25098161  0.12415809  0.37445505  1
  V  V80  1  0.49630248  0.50539831  0.00438380  1
  V  V81  1  0.25080945  0.24949095  0.49902808  1
  V  V82  1  0.25045709  0.12963409  0.87804280  1
  V  V83  1  0.25059899  0.75699519  0.00595735  1
  V  V84  1  0.75015773  -0.00060523  0.75196930  1
  V  V85  1  0.87626033  0.62505014  0.24994469  1
  V  V86  1  0.62035110  0.50422462  0.12696788  1
  V  V87  1  0.62396467  0.37542024  0.75204840  1
  V  V88  1  0.87785179  0.49899428  0.37720917  1
  V  V89  1  0.37610601  -0.00067082  0.37332932  1
  V  V90  1  0.24902005  0.37527392  0.62338929  1
  V  V91  1  0.50117612  0.74525483  0.24402600  1
  V  V92  1  -0.00102862  0.37420184  0.87484611  1
  Zn  Zn93  1  -0.00360261  0.87598338  0.87342741  1
  Zn  Zn94  1  -0.00234786  0.62359759  0.62288173  1
  Zn  Zn95  1  -0.00139994  0.74879724  0.74799651  1
  Zn  Zn96  1  0.62305380  0.24924971  0.87543988  1
  Zn  Zn97  1  0.87668545  0.75005257  0.12337819  1
  Zn  Zn98  1  0.50255759  0.12611758  0.12510001  1
  Zn  Zn99  1  -0.00272983  0.62402197  0.12491312  1
  Zn  Zn100  1  0.51243107  0.13050294  0.62743267  1
  Zn  Zn101  1  0.62444393  0.24599839  0.37897222  1
  Zn  Zn102  1  0.62532140  0.12552272  0.00215364  1
  Zn  Zn103  1  0.00082752  0.24813686  0.75119760  1
  Zn  Zn104  1  0.24987154  0.62545507  0.87334179  1
  Zn  Zn105  1  0.36803879  0.37379110  -0.00286623  1
  Zn  Zn106  1  0.37806945  0.12424277  0.74835852  1
  Zn  Zn107  1  0.24136590  0.36556137  0.11325990  1
  Zn  Zn108  1  0.50175167  0.24689552  0.75170901  1
  Zn  Zn109  1  0.49743426  0.87491819  0.87587877  1
  Zn  Zn110  1  0.37532208  0.75463774  0.12495716  1
  Zn  Zn111  1  0.87525091  0.87261636  -0.00192768  1
  Zn  Zn112  1  0.87432719  0.24984954  0.12716013  1
  Zn  Zn113  1  0.37489120  0.75006593  0.62565526  1
  Zn  Zn114  1  0.12162642  0.49661968  0.12332067  1
  Zn  Zn115  1  0.37586490  0.50007268  0.37313417  1
  Zn  Zn116  1  0.87656874  -0.00192431  0.87620075  1
  Zn  Zn117  1  0.36548248  0.88485865  0.01156375  1
  Zn  Zn118  1  0.62626155  0.37377337  0.25126026  1
  Zn  Zn119  1  0.12557529  0.00112176  0.62429451  1
  Zn  Zn120  1  0.63168577  0.00782919  0.62237995  1
  Zn  Zn121  1  0.25040235  0.74817860  0.49907389  1
  Zn  Zn122  1  0.18750274  0.18289712  0.18875890  1
  Zn  Zn123  1  0.18817831  0.18836731  0.69026128  1
  Zn  Zn124  1  0.18576074  0.68470382  0.18566272  1
  Zn  Zn125  1  0.18796780  0.68761799  0.68403097  1
  Zn  Zn126  1  0.68765908  0.18417003  0.18972629  1
  Zn  Zn127  1  0.68539362  0.18681936  0.68931677  1
  Zn  Zn128  1  0.68908385  0.68577629  0.18770934  1
  Zn  Zn129  1  0.68702065  0.68900939  0.68796826  1
  Zn  Zn130  1  0.31460716  0.31267674  0.31032743  1
  Zn  Zn131  1  0.31139214  0.31523272  0.81107892  1
  Zn  Zn132  1  0.31479162  0.81105445  0.30955300  1
  Zn  Zn133  1  0.31073763  0.81275865  0.81523265  1
  Zn  Zn134  1  0.81276111  0.31095329  0.31386508  1
  Zn  Zn135  1  0.81151003  0.31071889  0.81316268  1
  Zn  Zn136  1  0.81427895  0.81249407  0.31057496  1
  Zn  Zn137  1  0.81302415  0.81337552  0.81484327  1
  Zn  Zn138  1  0.18833399  0.43833985  0.43552598  1
  Zn  Zn139  1  0.18941599  0.43825234  0.93760706  1
  Zn  Zn140  1  0.18793359  0.93834736  0.43472036  1
  Zn  Zn141  1  0.18484447  0.93934667  0.93487949  1
  Zn  Zn142  1  0.68885553  0.43608295  0.43937268  1
  Zn  Zn143  1  0.68448650  0.43817033  0.94005966  1
  Zn  Zn144  1  0.68848467  0.93540176  0.43645387  1
  Zn  Zn145  1  0.68669718  0.93645237  0.94004320  1
  Zn  Zn146  1  0.31415853  0.06899151  0.06215323  1
  Zn  Zn147  1  0.31590198  0.06116248  0.56070880  1
  Zn  Zn148  1  0.30880209  0.56486968  0.05970629  1
  Zn  Zn149  1  0.31072389  0.56151307  0.56138854  1
  Zn  Zn150  1  0.81387953  0.06230812  0.06510223  1
  Zn  Zn151  1  0.81411411  0.06245829  0.56414261  1
  Zn  Zn152  1  0.81013810  0.56378592  0.06477082  1
  Zn  Zn153  1  0.81149050  0.56287831  0.56258410  1
  Zn  Zn154  1  0.43609121  0.43560287  0.18810866  1
  Zn  Zn155  1  0.43680133  0.43639836  0.68770561  1
  Zn  Zn156  1  0.43742328  0.93291348  0.18482096  1
  Zn  Zn157  1  0.43782480  0.93745972  0.68801103  1
  Zn  Zn158  1  0.93740204  0.43759384  0.18785215  1
  Zn  Zn159  1  0.93794641  0.43814633  0.68920938  1
  Zn  Zn160  1  0.93758465  0.93634630  0.18637636  1
  Zn  Zn161  1  0.93639093  0.93950336  0.68649356  1
  Zn  Zn162  1  0.06487319  0.06139192  0.31210330  1
  Zn  Zn163  1  0.06374518  0.06285035  0.81136727  1
  Zn  Zn164  1  0.06142620  0.56004395  0.31179856  1
  Zn  Zn165  1  0.06020152  0.56285396  0.81136161  1
  Zn  Zn166  1  0.56320003  0.06196771  0.31325117  1
  Zn  Zn167  1  0.56317614  0.06470341  0.81049785  1
  Zn  Zn168  1  0.56241534  0.56364518  0.31269284  1
  Zn  Zn169  1  0.56011541  0.56360659  0.81398256  1
  Zn  Zn170  1  0.43740601  0.18818544  0.43725773  1
  Zn  Zn171  1  0.43875459  0.18373924  0.93801017  1
  Zn  Zn172  1  0.43698331  0.68703851  0.43338800  1
  Zn  Zn173  1  0.43542075  0.68635469  0.93483852  1
  Zn  Zn174  1  0.93562974  0.18936321  0.43870278  1
  Zn  Zn175  1  0.93764676  0.18810294  0.93848886  1
  Zn  Zn176  1  0.93775272  0.68805437  0.43475603  1
  Zn  Zn177  1  0.93679563  0.68830686  0.93678492  1
  Zn  Zn178  1  0.05994339  0.31314550  0.06266485  1
  Zn  Zn179  1  0.06194325  0.31110291  0.56244273  1
  Zn  Zn180  1  0.06277712  0.81234153  0.06302060  1
  Zn  Zn181  1  0.06271661  0.80838913  0.56085325  1
  Zn  Zn182  1  0.56052653  0.31672213  0.06312145  1
  Zn  Zn183  1  0.56325292  0.31352489  0.56457502  1
  Zn  Zn184  1  0.56448624  0.81899642  0.06239599  1
  Zn  Zn185  1  0.56381060  0.81472710  0.56286290  1
  O  O186  1  0.11985235  0.11681565  0.12035257  1
  O  O187  1  0.12054110  0.12492209  0.61842128  1
  O  O188  1  0.12182671  0.62160432  0.11107898  1
  O  O189  1  0.12555092  0.61748566  0.61461770  1
  O  O190  1  0.62431604  0.11300803  0.12315780  1
  O  O191  1  0.62521536  0.12044962  0.62434542  1
  O  O192  1  0.63064402  0.61143754  0.11969462  1
  O  O193  1  0.61924661  0.62067680  0.61928374  1
  O  O194  1  0.38687693  0.37475019  0.38037719  1
  O  O195  1  0.38381937  0.38165640  0.87393910  1
  O  O196  1  0.38320194  0.87888215  0.38158159  1
  O  O197  1  0.37237800  0.88971730  0.88098310  1
  O  O198  1  0.87899923  0.37877273  0.38316928  1
  O  O199  1  0.87802923  0.38032618  0.88051740  1
  O  O200  1  0.88128393  0.87993212  0.38067730  1
  O  O201  1  0.87903914  0.87978127  0.87949065  1
  O  O202  1  0.25711099  0.00544411  0.36872523  1
  O  O203  1  0.25605772  0.00809132  0.87072244  1
  O  O204  1  0.25116291  0.50857944  0.36368994  1
  O  O205  1  0.25580145  0.50219540  0.86501484  1
  O  O206  1  0.75611446  0.00555607  0.37355377  1
  O  O207  1  0.75184580  0.00989822  0.87305890  1
  O  O208  1  0.75481903  0.50459820  0.37082144  1
  O  O209  1  0.75284082  0.50549176  0.87108254  1
  O  O210  1  0.24804668  0.49969865  0.13720646  1
  O  O211  1  0.24083203  0.49398612  0.62885413  1
  O  O212  1  0.23890086  1.00893539  0.12924447  1
  O  O213  1  0.25072894  0.98946364  0.62892850  1
  O  O214  1  0.74080509  0.49415871  0.13050104  1
  O  O215  1  0.74325037  0.49551985  0.63078043  1
  O  O216  1  0.74437732  0.99467678  0.13106161  1
  O  O217  1  0.75289882  0.99219139  0.63219453  1
  O  O218  1  0.00514472  0.36845051  0.25629527  1
  O  O219  1  0.00563008  0.37388105  0.75755516  1
  O  O220  1  0.00768983  0.87034776  0.25547215  1
  O  O221  1  0.01278743  0.87470236  0.74803046  1
  O  O222  1  0.49980358  0.36698529  0.25975753  1
  O  O223  1  0.50499175  0.37658928  0.76080942  1
  O  O224  1  0.49459517  0.86489126  0.26518985  1
  O  O225  1  0.50574062  0.86931546  0.75189287  1
  O  O226  1  0.49492765  0.13457478  0.25265465  1
  O  O227  1  0.49474746  0.12972260  0.74722173  1
  O  O228  1  0.48838991  0.63278700  0.25856865  1
  O  O229  1  0.49455065  0.63015053  0.74322672  1
  O  O230  1  0.99664479  0.12923026  0.24692086  1
  O  O231  1  0.99424113  0.12523897  0.74337085  1
  O  O232  1  0.99446692  0.63096524  0.25022901  1
  O  O233  1  0.98970669  0.62698219  0.74732176  1
  O  O234  1  0.38191369  0.24786254  0.01740314  1
  O  O235  1  0.36980358  0.25520390  0.50677448  1
  O  O236  1  0.35749604  0.74623253  -0.00325678  1
  O  O237  1  0.37400481  0.76219313  0.49874065  1
  O  O238  1  0.86413886  0.25630648  0.00221001  1
  O  O239  1  0.86615625  0.25976060  0.50593633  1
  O  O240  1  0.86525692  0.74992267  0.00265357  1
  O  O241  1  0.86934502  0.75477912  0.50312481  1
  O  O242  1  0.13156720  0.24488362  0.49393226  1
  O  O243  1  0.11940837  0.24504065  0.98714328  1
  O  O244  1  0.12915493  0.74024158  0.49153934  1
  O  O245  1  0.13148358  0.74431594  0.99232249  1
  O  O246  1  0.64152440  0.25696707  0.50068842  1
  O  O247  1  0.63636775  0.24988073  1.00037511  1
  O  O248  1  0.62974918  0.74491239  0.49095170  1
  O  O249  1  0.62807880  0.74567579  0.99579179  1
  O  O250  1  0.49276633  0.25036976  0.13543059  1
  O  O251  1  0.48867972  0.25146132  0.62456542  1
  O  O252  1  0.50827932  0.75608336  0.14261789  1
  O  O253  1  0.49904852  0.74412755  0.63047556  1
  O  O254  1  0.99864571  0.24227095  0.13224751  1
  O  O255  1  0.99381182  0.24313810  0.62672445  1
  O  O256  1  0.99857191  0.74732532  0.13286074  1
  O  O257  1  0.99134102  0.74604671  0.62598416  1
  O  O258  1  0.00622171  0.25525281  0.37032261  1
  O  O259  1  0.00894880  0.25575365  0.87358767  1
  O  O260  1  0.00667844  0.75575457  0.36826230  1
  O  O261  1  0.01288585  0.75342127  0.87338368  1
  O  O262  1  0.50226053  0.25709952  0.36967606  1
  O  O263  1  0.50008635  0.26252892  0.87749489  1
  O  O264  1  0.50789290  0.75563836  0.36960641  1
  O  O265  1  0.50539170  0.75192606  0.86893787  1
  O  O266  1  0.24614108  0.12928452  0.49364696  1
  O  O267  1  0.24248414  0.12004703  0.98572239  1
  O  O268  1  0.24349626  0.62520558  0.48786967  1
  O  O269  1  0.23840605  0.63308275  0.99485379  1
  O  O270  1  0.76112220  0.13497668  0.49143988  1
  O  O271  1  0.75204602  0.13316870  0.99438869  1
  O  O272  1  0.74412470  0.63088506  0.49452289  1
  O  O273  1  0.74174645  0.63043033  0.99538590  1
  O  O274  1  0.25591174  0.38000220  0.00308789  1
  O  O275  1  0.25523162  0.36898979  0.50304682  1
  O  O276  1  0.24601115  0.85991136  -0.00665119  1
  O  O277  1  0.25887774  0.87633088  0.50495887  1
  O  O278  1  0.75301619  0.36823010  0.00472088  1
  O  O279  1  0.75938207  0.36750346  0.50584831  1
  O  O280  1  0.75047430  0.86918799  0.01062385  1
  O  O281  1  0.75682725  0.86952064  0.50430895  1
  O  O282  1  0.13368331  0.49365755  0.24880208  1
  O  O283  1  0.12962030  0.49584622  0.74144793  1
  O  O284  1  0.13166469  0.99576435  0.24245738  1
  O  O285  1  0.13214078  0.99019528  0.74785795  1
  O  O286  1  0.62939798  0.50026284  0.24226662  1
  O  O287  1  0.62927826  0.49666400  0.74509060  1
  O  O288  1  0.63208311  1.00459805  0.24067809  1
  O  O289  1  0.63296564  0.99245238  0.75067636  1
  O  O290  1  0.37310075  0.00456590  0.25458906  1
  O  O291  1  0.36965596  0.00026404  0.75986217  1
  O  O292  1  0.36795682  0.50734464  0.25043858  1
  O  O293  1  0.36935489  0.50566550  0.75260384  1
  O  O294  1  0.87060329  0.00489479  0.25726092  1
  O  O295  1  0.86847068  0.00719370  0.75251300  1
  O  O296  1  0.86815249  0.50456450  0.25696456  1
  O  O297  1  0.86732500  0.50454314  0.75578346  1
  O  O298  1  0.12028875  0.36892414  0.37057601  1
  O  O299  1  0.11963360  0.36908609  0.87048543  1
  O  O300  1  0.12019629  0.86929499  0.36918870  1
  O  O301  1  0.12537983  0.86781302  0.86308601  1
  O  O302  1  0.61349876  0.37306039  0.37492704  1
  O  O303  1  0.61450239  0.37717185  0.87111625  1
  O  O304  1  0.61713555  0.86254867  0.37999249  1
  O  O305  1  0.62419184  0.86804217  0.86845368  1
  O  O306  1  0.37909790  0.13607949  0.13239216  1
  O  O307  1  0.37607705  0.13688506  0.62381934  1
  O  O308  1  0.36811205  0.63175501  0.13743254  1
  O  O309  1  0.38021677  0.62701231  0.62899904  1
  O  O310  1  0.88211648  0.12551906  0.13465203  1
  O  O311  1  0.88074839  0.13106056  0.63058227  1
  O  O312  1  0.87482673  0.62731448  0.13476787  1
  O  O313  1  0.87462972  0.62989996  0.63000716  1
  O  O314  1  0.26648291  0.24776406  0.13477885  1
  O  O315  1  0.25635099  0.25543009  0.61882270  1
  O  O316  1  0.24550808  0.74621492  0.10774048  1
  O  O317  1  0.25280294  0.76311269  0.62117406  1
  O  O318  1  0.75007305  0.25459307  0.11793569  1
  O  O319  1  0.75680227  0.25619391  0.61977987  1
  O  O320  1  0.74728616  0.75954877  0.12154412  1
  O  O321  1  0.75482980  0.75512919  0.61819304  1
  O  O322  1  0.24631552  0.24434846  0.37899345  1
  O  O323  1  0.24072252  0.24141654  0.86860286  1
  O  O324  1  0.24470092  0.73821301  0.37182496  1
  O  O325  1  0.23759240  0.74734016  0.88174163  1
  O  O326  1  0.75002095  0.24198241  0.38393627  1
  O  O327  1  0.74925815  0.24275403  0.88538977  1
  O  O328  1  0.74334388  0.74580990  0.37874837  1
  O  O329  1  0.74271921  0.74422388  0.88137961  1
  O  O330  1  0.00630165  0.11780180  0.00593131  1
  O  O331  1  0.00533742  0.12067078  0.50402374  1
  O  O332  1  0.00791731  0.62001997  -0.00132248  1
  O  O333  1  0.01427013  0.62709830  0.49717499  1
  O  O334  1  0.50357696  0.11244294  0.00261179  1
  O  O335  1  0.49476922  0.10761150  0.49687089  1
  O  O336  1  0.50533499  0.61328003  -0.00602976  1
  O  O337  1  0.50410443  0.62032044  0.50323157  1
  O  O338  1  0.49660713  0.37997066  0.49326651  1
  O  O339  1  0.49619797  0.38620572  0.99136460  1
  O  O340  1  0.49276692  0.88075423  0.49098907  1
  O  O341  1  0.49810221  0.88899809  0.99693453  1
  O  O342  1  0.98674333  0.36720409  0.49415513  1
  O  O343  1  0.99251915  0.38058982  0.99410443  1
  O  O344  1  0.99628679  0.87947029  0.49350677  1
  O  O345  1  1.00141176  0.88661452  0.99884911  1
  O  O346  1  0.49966359  0.49122537  0.38047708  1
  O  O347  1  0.49473947  0.49289198  0.88291013  1
  O  O348  1  0.49737426  0.99157802  0.38193189  1
  O  O349  1  0.49093921  1.00159625  0.88282625  1
  O  O350  1  0.99091199  0.49009846  0.36944427  1
  O  O351  1  0.99209167  0.49395851  0.88010038  1
  O  O352  1  0.99602785  0.99438126  0.37945430  1
  O  O353  1  1.00244839  1.00075356  0.88721221  1
  O  O354  1  0.01024895  0.00515451  0.11923176  1
  O  O355  1  0.00177496  0.00682947  0.61648571  1
  O  O356  1  0.00071463  0.50205251  0.11558378  1
  O  O357  1  0.01413911  0.50126499  0.62780970  1
  O  O358  1  0.50874016  0.00018184  0.12004449  1
  O  O359  1  0.49828966  -0.00157320  0.60885217  1
  O  O360  1  0.50787701  0.49256781  0.11566071  1
  O  O361  1  0.50505609  0.50548960  0.61946475  1
  O  O362  1  0.24516035  0.38379735  0.25092287  1
  O  O363  1  0.24283778  0.38188401  0.74279948  1
  O  O364  1  0.24271827  0.88319946  0.25801323  1
  O  O365  1  0.24304048  0.87916636  0.74169297  1
  O  O366  1  0.74824200  0.38052354  0.24602395  1
  O  O367  1  0.74517568  0.38181191  0.74591693  1
  O  O368  1  0.75560988  0.88270231  0.24094907  1
  O  O369  1  0.74504124  0.87956900  0.74521607  1
  O  O370  1  0.25663864  0.11673355  0.25661732  1
  O  O371  1  0.25098216  0.11870217  0.76073510  1
  O  O372  1  0.25526582  0.61776867  0.25590660  1
  O  O373  1  0.25560340  0.61985110  0.74869916  1
  O  O374  1  0.75723847  0.11931238  0.26059271  1
  O  O375  1  0.75602230  0.12053288  0.75981412  1
  O  O376  1  0.75535692  0.61862237  0.25770443  1
  O  O377  1  0.75350871  0.61963177  0.75617285  1
  O  O378  1  0.37009415  0.11933156  0.37018971  1
  O  O379  1  0.36585831  0.11728398  0.87507431  1
  O  O380  1  0.36461202  0.62358092  0.36606436  1
  O  O381  1  0.37318826  0.61749542  0.86514935  1
  O  O382  1  0.86857809  0.11872660  0.37119541  1
  O  O383  1  0.86517089  0.12516238  0.87052584  1
  O  O384  1  0.86885563  0.61924235  0.37133030  1
  O  O385  1  0.86738862  0.61912235  0.87013629  1
  O  O386  1  0.12565100  0.37540952  0.13388734  1
  O  O387  1  0.12911339  0.38139207  0.62750918  1
  O  O388  1  0.12129080  0.88829370  0.13072561  1
  O  O389  1  0.13395166  0.87488035  0.63056165  1
  O  O390  1  0.63015963  0.38730134  0.12704624  1
  O  O391  1  0.63060480  0.38244394  0.63121990  1
  O  O392  1  0.63743488  0.88759399  0.12236309  1
  O  O393  1  0.63301991  0.87823051  0.63124031  1
  O  O394  1  0.12083571  0.25328975  0.25651905  1
  O  O395  1  0.12355316  0.25750265  0.76048165  1
  O  O396  1  0.12128110  0.75412611  0.25400951  1
  O  O397  1  0.12557755  0.75733508  0.75596994  1
  O  O398  1  0.61353448  0.25127141  0.25225540  1
  O  O399  1  0.62361501  0.26147284  0.75442839  1
  O  O400  1  0.61772211  0.73799724  0.26416645  1
  O  O401  1  0.61929276  0.75503070  0.75571605  1
  O  O402  1  0.38553720  0.24503022  0.24478245  1
  O  O403  1  0.37459270  0.25117517  0.73714189  1
  O  O404  1  0.38424984  0.74100876  0.25058821  1
  O  O405  1  0.38051783  0.74521497  0.74998925  1
  O  O406  1  0.88252098  0.24311944  0.25057193  1
  O  O407  1  0.87610025  0.24386121  0.74385230  1
  O  O408  1  0.88265205  0.74262691  0.25053161  1
  O  O409  1  0.87359464  0.74340954  0.74353011  1
  O  O410  1  0.38126701  0.49324401  0.49746659  1
  O  O411  1  0.38332920  0.50358394  0.99452889  1
  O  O412  1  0.38381194  0.98968292  0.49313432  1
  O  O413  1  0.38229499  1.00353931  0.99372015  1
  O  O414  1  0.86672963  0.48720284  0.49468136  1
  O  O415  1  0.87662575  0.49567157  0.99391616  1
  O  O416  1  0.88178663  0.99346882  0.49484756  1
  O  O417  1  0.88902799  1.00094927  1.00148989  1
  O  O418  1  0.11926002  0.00547591  0.00702170  1
  O  O419  1  0.11956219  0.00676153  0.49962700  1
  O  O420  1  0.11744688  0.50956522  -0.00297319  1
  O  O421  1  0.13237178  0.50841705  0.50830596  1
  O  O422  1  0.61779114  0.00162149  0.00938892  1
  O  O423  1  0.60969280  -0.00796181  0.49910784  1
  O  O424  1  0.61644160  0.50548602  0.00772424  1
  O  O425  1  0.62010262  0.50568441  0.50609796  1
  O  O426  1  0.37422052  0.35960377  0.12626421  1
  O  O427  1  0.36901150  0.36813817  0.61891446  1
  O  O428  1  0.37549597  0.86697188  0.12155889  1
  O  O429  1  0.36752452  0.87493508  0.61577321  1
  O  O430  1  0.86682248  0.37394643  0.11873812  1
  O  O431  1  0.87058086  0.37245245  0.61926109  1
  O  O432  1  0.86310358  0.87401530  0.12164333  1
  O  O433  1  0.87005462  0.86859606  0.61907318  1
  O  O434  1  0.13125028  0.13014740  0.38009894  1
  O  O435  1  0.13179037  0.13348433  0.87812212  1
  O  O436  1  0.13279327  0.62722122  0.37910558  1
  O  O437  1  0.12409945  0.63314486  0.88202680  1
  O  O438  1  0.64118405  0.12434305  0.37335336  1
  O  O439  1  0.63875288  0.12756175  0.87814874  1
  O  O440  1  0.63039243  0.63165498  0.38199479  1
  O  O441  1  0.62944329  0.63063442  0.88112847  1
