# generated using pymatgen
data_V93Zn93O256
_symmetry_space_group_name_H-M   'P 1'
_cell_length_a   17.04963097
_cell_length_b   17.04966279
_cell_length_c   17.04934364
_cell_angle_alpha   90.00552449
_cell_angle_beta   90.02301805
_cell_angle_gamma   89.96665291
_symmetry_Int_Tables_number   1
_chemical_formula_structural   V93Zn93O256
_chemical_formula_sum   'V93 Zn93 O256'
_cell_volume   4956.08026152
_cell_formula_units_Z   1
loop_
 _symmetry_equiv_pos_site_id
 _symmetry_equiv_pos_as_xyz
  1  'x, y, z'
loop_
 _atom_site_type_symbol
 _atom_site_label
 _atom_site_symmetry_multiplicity
 _atom_site_fract_x
 _atom_site_fract_y
 _atom_site_fract_z
 _atom_site_occupancy
  V  V0  1  0.12734997  0.12702150  0.50042390  1
  V  V1  1  0.62383225  0.25281677  0.87374866  1
  V  V2  1  0.74797297  0.87509299  0.12410540  1
  V  V3  1  0.00092823  0.49938481  0.00411007  1
  V  V4  1  0.00101155  0.00159064  0.49906235  1
  V  V5  1  0.88269813  0.62586370  0.74361983  1
  V  V6  1  0.37776526  0.37803254  -0.01338270  1
  V  V7  1  0.74812702  0.74905964  -0.00036483  1
  V  V8  1  0.37686559  0.75154116  0.62929720  1
  V  V9  1  0.00067639  0.87683929  0.37428505  1
  V  V10  1  -0.00001519  0.37902776  0.37825816  1
  V  V11  1  0.87395715  0.87358914  -0.00209300  1
  V  V12  1  0.62345575  0.75030207  0.37417278  1
  V  V13  1  0.75063029  0.62436510  0.37139215  1
  V  V14  1  0.87423170  0.24890949  0.12537638  1
  V  V15  1  0.24927931  0.74773020  -0.00055675  1
  V  V16  1  0.12494460  0.12479813  0.00149610  1
  V  V17  1  0.49538122  0.49696670  -0.01767871  1
  V  V18  1  0.37626006  0.12011955  0.75535425  1
  V  V19  1  0.12361072  0.00024132  0.12504141  1
  V  V20  1  0.12639500  0.00000312  0.62593543  1
  V  V21  1  0.62402229  0.37703410  0.24961624  1
  V  V22  1  0.62515911  0.12498933  0.49991591  1
  V  V23  1  0.25012411  0.00015972  0.25070585  1
  V  V24  1  0.00073624  0.24880667  0.75118986  1
  V  V25  1  0.75014128  -0.00141425  0.74855889  1
  V  V26  1  0.74988373  0.12408892  0.87401551  1
  V  V27  1  0.12603281  0.37573841  0.75012440  1
  V  V28  1  0.12517316  0.74881180  0.87471871  1
  V  V29  1  0.37428638  0.37638439  0.50202507  1
  V  V30  1  0.49947491  0.50242626  0.50186242  1
  V  V31  1  -0.00092073  0.74930985  0.24882719  1
  V  V32  1  0.62260053  0.87144998  0.74879395  1
  V  V33  1  0.12663129  0.75153336  0.37570192  1
  V  V34  1  0.74822049  0.37550780  0.12458533  1
  V  V35  1  0.12572819  0.87418380  0.75095981  1
  V  V36  1  0.87570749  0.49732699  0.87763794  1
  V  V37  1  0.37570341  0.50519448  0.37462154  1
  V  V38  1  0.25323788  -0.00053310  0.75432691  1
  V  V39  1  0.11842862  0.62692596  0.50474707  1
  V  V40  1  0.49732211  0.62152388  0.12530982  1
  V  V41  1  0.37661915  0.61978253  0.75226213  1
  V  V42  1  0.75301721  0.87309958  0.62299406  1
  V  V43  1  0.87531803  -0.00251977  0.87449561  1
  V  V44  1  0.87515802  0.74806500  0.12548493  1
  V  V45  1  0.25041689  0.25085902  0.00086594  1
  V  V46  1  0.62221967  0.12218885  0.00079732  1
  V  V47  1  -0.00055662  0.87205764  0.87383558  1
  V  V48  1  0.62363142  0.87493489  0.24790165  1
  V  V49  1  0.00061098  0.25093376  0.25051320  1
  V  V50  1  0.25192679  0.87539851  0.62547778  1
  V  V51  1  0.49591421  0.74644491  0.24976177  1
  V  V52  1  0.49887266  0.24995281  0.24984211  1
  V  V53  1  0.37491837  0.25022952  0.62557259  1
  V  V54  1  0.37506811  0.25111236  0.12556778  1
  V  V55  1  0.62404990  0.25154587  0.37551086  1
  V  V56  1  0.37575214  0.00036663  0.37503959  1
  V  V57  1  0.37483098  0.12621243  0.24921678  1
  V  V58  1  0.87471008  0.87608917  0.49945424  1
  V  V59  1  0.75010758  0.37454018  0.62375605  1
  V  V60  1  0.25178279  0.12027931  0.87595085  1
  V  V61  1  0.62609369  0.62714292  0.50009501  1
  V  V62  1  0.87562293  0.12370080  0.75025076  1
  V  V63  1  0.74802475  -0.00018030  0.24854057  1
  V  V64  1  0.25108263  0.37703550  0.12615873  1
  V  V65  1  0.74926803  0.24952613  -0.00075952  1
  V  V66  1  0.87502729  0.12556617  0.24894446  1
  V  V67  1  0.62600485  -0.00084606  0.62369396  1
  V  V68  1  0.12059033  0.50524739  0.62690008  1
  V  V69  1  0.37525366  0.87872941  -0.00648274  1
  V  V70  1  0.49753044  0.87971223  0.87108881  1
  V  V71  1  0.12585648  0.87573429  0.25016492  1
  V  V72  1  0.75015490  0.25099921  0.50073964  1
  V  V73  1  0.49995990  0.25488697  0.75549874  1
  V  V74  1  0.00089309  0.12515126  0.62500499  1
  V  V75  1  0.75042935  0.49868562  0.74995200  1
  V  V76  1  0.75011534  0.12630735  0.37403542  1
  V  V77  1  0.87523105  0.00121623  0.37361916  1
  V  V78  1  0.62588147  0.50112754  0.62538859  1
  V  V79  1  0.25004544  0.12731165  0.37673228  1
  V  V80  1  0.25324523  0.50329014  0.25065442  1
  V  V81  1  0.50197155  0.63261125  0.63088799  1
  V  V82  1  0.12639343  0.37514909  0.25168858  1
  V  V83  1  0.12419223  0.24838244  0.87564274  1
  V  V84  1  0.62320795  0.37431927  0.75272788  1
  V  V85  1  0.61800737  0.74914072  0.86884073  1
  V  V86  1  0.62197234  0.62347389  -0.00131890  1
  V  V87  1  0.25194251  0.62727331  0.37463108  1
  V  V88  1  0.87447607  0.25071943  0.62509920  1
  V  V89  1  0.49953533  -0.00077271  0.49892935  1
  V  V90  1  0.25464165  0.61730128  0.87417741  1
  V  V91  1  0.74928286  0.62413281  0.87551317  1
  V  V92  1  0.37393419  0.74711268  0.12707544  1
  Zn  Zn93  1  0.25081796  0.87378258  0.12431171  1
  Zn  Zn94  1  0.75165001  0.75088274  0.49895671  1
  Zn  Zn95  1  0.50011395  0.37733778  0.37535430  1
  Zn  Zn96  1  0.87442835  0.50089422  0.37497494  1
  Zn  Zn97  1  -0.00424148  0.50477522  0.50490234  1
  Zn  Zn98  1  0.62274879  0.49966721  0.12306672  1
  Zn  Zn99  1  0.49791055  0.12249549  0.12372982  1
  Zn  Zn100  1  0.00130534  0.62432003  0.12677212  1
  Zn  Zn101  1  0.87613086  0.37869533  0.49992558  1
  Zn  Zn102  1  -0.00098535  0.00004004  0.00009843  1
  Zn  Zn103  1  0.62006175  -0.00112826  0.12359719  1
  Zn  Zn104  1  0.24947749  0.37796291  0.62561688  1
  Zn  Zn105  1  -0.00083451  0.12583563  0.12440700  1
  Zn  Zn106  1  0.49812623  0.87452650  0.37274925  1
  Zn  Zn107  1  0.12436142  0.62267783  0.00126636  1
  Zn  Zn108  1  0.12437408  0.50283199  0.12658619  1
  Zn  Zn109  1  -0.00031144  0.37243702  0.87823574  1
  Zn  Zn110  1  0.75148450  0.50173542  0.24790545  1
  Zn  Zn111  1  0.00609275  0.74434699  0.74258778  1
  Zn  Zn112  1  0.87527886  0.37266644  0.00099327  1
  Zn  Zn113  1  0.87658993  0.62132566  0.24858523  1
  Zn  Zn114  1  0.12699397  0.25210561  0.37839822  1
  Zn  Zn115  1  0.88216053  0.74445086  0.61668750  1
  Zn  Zn116  1  0.25118650  0.75221004  0.50103015  1
  Zn  Zn117  1  0.25398213  0.49664338  0.75257424  1
  Zn  Zn118  1  0.49307537  0.00160750  -0.00119945  1
  Zn  Zn119  1  0.24978121  0.25161902  0.50059913  1
  Zn  Zn120  1  0.50123353  0.12393610  0.62755122  1
  Zn  Zn121  1  0.37466538  0.87378682  0.49905718  1
  Zn  Zn122  1  0.18749196  0.18878939  0.18871397  1
  Zn  Zn123  1  0.18985324  0.18762343  0.68761253  1
  Zn  Zn124  1  0.18474287  0.68475033  0.18736130  1
  Zn  Zn125  1  0.19127499  0.68789468  0.68832686  1
  Zn  Zn126  1  0.68589124  0.18873506  0.18649876  1
  Zn  Zn127  1  0.68714987  0.18611420  0.68654979  1
  Zn  Zn128  1  0.68452033  0.68875185  0.18662868  1
  Zn  Zn129  1  0.69512332  0.68835806  0.68704100  1
  Zn  Zn130  1  0.31281381  0.31448625  0.31509925  1
  Zn  Zn131  1  0.30885290  0.30714255  0.81149373  1
  Zn  Zn132  1  0.31361153  0.81512367  0.31216421  1
  Zn  Zn133  1  0.31342282  0.80715591  0.81069417  1
  Zn  Zn134  1  0.81383240  0.31359552  0.31242817  1
  Zn  Zn135  1  0.81071042  0.31204553  0.81149958  1
  Zn  Zn136  1  0.81186369  0.81145597  0.31186076  1
  Zn  Zn137  1  0.80959326  0.80968996  0.81179210  1
  Zn  Zn138  1  0.18562413  0.44067002  0.43995404  1
  Zn  Zn139  1  0.18648061  0.43519517  0.93896137  1
  Zn  Zn140  1  0.18981609  0.93900959  0.43912660  1
  Zn  Zn141  1  0.18751881  0.93658845  0.93752905  1
  Zn  Zn142  1  0.68762702  0.43934332  0.43753728  1
  Zn  Zn143  1  0.68435377  0.43748698  0.93866885  1
  Zn  Zn144  1  0.68672255  0.93619638  0.43473431  1
  Zn  Zn145  1  0.68629832  0.93646149  0.93555694  1
  Zn  Zn146  1  0.30994768  0.06253524  0.06444769  1
  Zn  Zn147  1  0.31358028  0.06307836  0.56491558  1
  Zn  Zn148  1  0.31646983  0.56079702  0.06107275  1
  Zn  Zn149  1  0.30733779  0.56357434  0.56508679  1
  Zn  Zn150  1  0.81064580  0.06111546  0.06226793  1
  Zn  Zn151  1  0.81284252  0.06250758  0.56183301  1
  Zn  Zn152  1  0.81309512  0.56242706  0.06337298  1
  Zn  Zn153  1  0.81251948  0.56082044  0.55827006  1
  Zn  Zn154  1  0.43528110  0.43669183  0.18620560  1
  Zn  Zn155  1  0.43998511  0.43922123  0.68817321  1
  Zn  Zn156  1  0.43742397  0.93656913  0.18288422  1
  Zn  Zn157  1  0.44056563  0.93690741  0.68812468  1
  Zn  Zn158  1  0.93455666  0.43772788  0.19153094  1
  Zn  Zn159  1  0.93939012  0.43685077  0.68859936  1
  Zn  Zn160  1  0.93651117  0.93556165  0.18672622  1
  Zn  Zn161  1  0.94005867  0.93398310  0.68661742  1
  Zn  Zn162  1  0.06336992  0.06608588  0.31243285  1
  Zn  Zn163  1  0.06334917  0.05976319  0.81420610  1
  Zn  Zn164  1  0.06472960  0.56399160  0.31396712  1
  Zn  Zn165  1  0.06450489  0.56072376  0.81775959  1
  Zn  Zn166  1  0.56221777  0.06336071  0.31187001  1
  Zn  Zn167  1  0.56153337  0.06149971  0.81285553  1
  Zn  Zn168  1  0.56279332  0.56365953  0.31186801  1
  Zn  Zn169  1  0.56361811  0.56384875  0.80886147  1
  Zn  Zn170  1  0.43868961  0.18733116  0.43674050  1
  Zn  Zn171  1  0.43723797  0.19019286  0.93732666  1
  Zn  Zn172  1  0.43793451  0.68886372  0.44197857  1
  Zn  Zn173  1  0.43659668  0.68799485  0.93787987  1
  Zn  Zn174  1  0.93865482  0.19104699  0.43688278  1
  Zn  Zn175  1  0.93809944  0.18552947  0.93961048  1
  Zn  Zn176  1  0.93657015  0.68998809  0.43430229  1
  Zn  Zn177  1  0.93837595  0.68547963  0.93641174  1
  Zn  Zn178  1  0.06243971  0.31544096  0.06525208  1
  Zn  Zn179  1  0.06306490  0.31384667  0.56364431  1
  Zn  Zn180  1  0.06138346  0.81345337  0.06230970  1
  Zn  Zn181  1  0.06124878  0.81089675  0.56375322  1
  Zn  Zn182  1  0.55852236  0.31230414  0.06090704  1
  Zn  Zn183  1  0.56069512  0.31302632  0.56537177  1
  Zn  Zn184  1  0.56042583  0.81199093  0.05928145  1
  Zn  Zn185  1  0.56392673  0.81363035  0.56081354  1
  O  O186  1  0.12534688  0.11591284  0.12078067  1
  O  O187  1  0.12041418  0.11966132  0.62175270  1
  O  O188  1  0.12093558  0.61998305  0.11970164  1
  O  O189  1  0.13291884  0.61873636  0.61584671  1
  O  O190  1  0.62371603  0.12609982  0.11185901  1
  O  O191  1  0.62504274  0.11712986  0.61788256  1
  O  O192  1  0.61371208  0.62603214  0.11641860  1
  O  O193  1  0.62010595  0.62242183  0.62247389  1
  O  O194  1  0.37722286  0.38614769  0.38521344  1
  O  O195  1  0.36847669  0.36809892  0.88808736  1
  O  O196  1  0.37793683  0.88419475  0.37816982  1
  O  O197  1  0.38642677  0.86195126  0.88176391  1
  O  O198  1  0.88631463  0.37520222  0.37642416  1
  O  O199  1  0.87390333  0.38692705  0.87454847  1
  O  O200  1  0.88034029  0.88266125  0.37840234  1
  O  O201  1  0.87804238  0.87803036  0.87801524  1
  O  O202  1  0.25581327  0.00700445  0.36977487  1
  O  O203  1  0.24388385  0.00783578  0.86696221  1
  O  O204  1  0.25692279  0.50720679  0.37053851  1
  O  O205  1  0.24528042  0.51404173  0.87636166  1
  O  O206  1  0.75541973  0.00642235  0.36866211  1
  O  O207  1  0.75530788  0.00406887  0.86764556  1
  O  O208  1  0.74704553  0.51292793  0.37272597  1
  O  O209  1  0.75664264  0.50379986  0.87140503  1
  O  O210  1  0.25462411  0.49699463  0.13697223  1
  O  O211  1  0.23708392  0.49732964  0.62973861  1
  O  O212  1  0.23902549  0.99781861  0.13177846  1
  O  O213  1  0.24549670  0.99565041  0.63323390  1
  O  O214  1  0.74541753  0.48758958  0.12408931  1
  O  O215  1  0.74413306  0.49490538  0.62999344  1
  O  O216  1  0.74705023  0.99261180  0.13159112  1
  O  O217  1  0.74504433  0.99435796  0.62943354  1
  O  O218  1  0.00643709  0.37060421  0.25784530  1
  O  O219  1  0.01024554  0.36735214  0.75303396  1
  O  O220  1  0.00609149  0.87051925  0.25599402  1
  O  O221  1  0.00835629  0.87464814  0.75807196  1
  O  O222  1  0.50890143  0.36983047  0.25012888  1
  O  O223  1  0.50710216  0.36351403  0.74337812  1
  O  O224  1  0.50479343  0.86290153  0.24804796  1
  O  O225  1  0.50886808  0.87828883  0.75894298  1
  O  O226  1  0.49259802  0.13257766  0.24958475  1
  O  O227  1  0.49244521  0.13276812  0.74942861  1
  O  O228  1  0.50604568  0.63717587  0.23931304  1
  O  O229  1  0.49375665  0.62169697  0.73808233  1
  O  O230  1  0.99279104  0.13207494  0.24864925  1
  O  O231  1  0.99560986  0.12862119  0.74454096  1
  O  O232  1  0.99944049  0.63549339  0.25056404  1
  O  O233  1  0.98517652  0.62167765  0.75696225  1
  O  O234  1  0.36990815  0.25744122  0.00551751  1
  O  O235  1  0.37883055  0.25861382  0.50955430  1
  O  O236  1  0.36743655  0.75628780  0.00658181  1
  O  O237  1  0.37307456  0.75203949  0.51378593  1
  O  O238  1  0.86693571  0.25018935  0.00562953  1
  O  O239  1  0.86774417  0.25070135  0.50813178  1
  O  O240  1  0.86792461  0.75404792  0.00341487  1
  O  O241  1  0.87278817  0.76114808  0.49763691  1
  O  O242  1  0.12947627  0.24225993  0.50153890  1
  O  O243  1  0.13089350  0.24573931  0.99669325  1
  O  O244  1  0.12860121  0.74431367  0.49361049  1
  O  O245  1  0.13593962  0.75043546  0.99521593  1
  O  O246  1  0.62919508  0.24548781  0.49617646  1
  O  O247  1  0.62845301  0.24245939  0.99354125  1
  O  O248  1  0.62551915  0.74447571  0.49205821  1
  O  O249  1  0.62906251  0.74329357  0.99054970  1
  O  O250  1  0.49215775  0.24735663  0.13184962  1
  O  O251  1  0.49136810  0.24692241  0.63483590  1
  O  O252  1  0.49309206  0.74186187  0.12870606  1
  O  O253  1  0.49374173  0.74013353  0.61984429  1
  O  O254  1  0.99208409  0.25073299  0.13248869  1
  O  O255  1  0.99464121  0.24402721  0.63154744  1
  O  O256  1  0.99274569  0.75127457  0.13131630  1
  O  O257  1  0.99318179  0.75587570  0.63133984  1
  O  O258  1  0.00268503  0.25960618  0.36847492  1
  O  O259  1  0.00594388  0.24925117  0.86897658  1
  O  O260  1  0.00705150  0.75860610  0.36869415  1
  O  O261  1  0.00761246  0.75419273  0.87211042  1
  O  O262  1  0.50624356  0.25368513  0.36897985  1
  O  O263  1  0.50673335  0.24593458  0.86196653  1
  O  O264  1  0.50245041  0.74839350  0.36524618  1
  O  O265  1  0.51321036  0.75637396  0.87989915  1
  O  O266  1  0.24522001  0.12522600  0.49491570  1
  O  O267  1  0.24561475  0.13123925  0.99543034  1
  O  O268  1  0.24076598  0.62632369  0.48913557  1
  O  O269  1  0.25396873  0.63416612  0.99243264  1
  O  O270  1  0.74504849  0.13059859  0.49387412  1
  O  O271  1  0.74217286  0.13018131  0.99359014  1
  O  O272  1  0.74294111  0.62776458  0.49097805  1
  O  O273  1  0.74246883  0.62839031  0.99465953  1
  O  O274  1  0.25719402  0.37071939  0.00604753  1
  O  O275  1  0.26391430  0.37526412  0.50145876  1
  O  O276  1  0.25693093  0.86209108  -0.00211179  1
  O  O277  1  0.25366833  0.87519155  0.51010032  1
  O  O278  1  0.74835963  0.36818240  0.00953267  1
  O  O279  1  0.74946217  0.36844635  0.50656711  1
  O  O280  1  0.75378201  0.86851153  0.00334529  1
  O  O281  1  0.75634235  0.87641689  0.50489674  1
  O  O282  1  0.13833177  0.49407738  0.25202179  1
  O  O283  1  0.12508176  0.49103051  0.74598977  1
  O  O284  1  0.12965217  0.99619514  0.24355944  1
  O  O285  1  0.13175509  0.99447603  0.74438571  1
  O  O286  1  0.62450229  0.48760044  0.24660316  1
  O  O287  1  0.63107539  0.49493972  0.74491434  1
  O  O288  1  0.63080894  0.99402954  0.24875865  1
  O  O289  1  0.63111886  0.99398711  0.74402094  1
  O  O290  1  0.36982037  0.00515288  0.25388658  1
  O  O291  1  0.37037872  0.01327703  0.74255694  1
  O  O292  1  0.36534507  0.49383214  0.26362275  1
  O  O293  1  0.37276640  0.51437769  0.74263687  1
  O  O294  1  0.86882599  0.00490138  0.25457264  1
  O  O295  1  0.86995933  0.00462219  0.75442133  1
  O  O296  1  0.86875591  0.50387217  0.25600361  1
  O  O297  1  0.87123583  0.50661822  0.75799982  1
  O  O298  1  0.11876228  0.37424421  0.37037997  1
  O  O299  1  0.12429951  0.36708927  0.86633481  1
  O  O300  1  0.12079077  0.87213518  0.37017046  1
  O  O301  1  0.12024783  0.86870822  0.87025075  1
  O  O302  1  0.62392149  0.37055788  0.36584267  1
  O  O303  1  0.63448333  0.36508426  0.86503727  1
  O  O304  1  0.62198288  0.86814339  0.36644899  1
  O  O305  1  0.61871067  0.86664785  0.86997634  1
  O  O306  1  0.37276670  0.13325586  0.13146855  1
  O  O307  1  0.37634471  0.13491782  0.63544567  1
  O  O308  1  0.38489469  0.63740491  0.11852108  1
  O  O309  1  0.38245992  0.63154834  0.62969129  1
  O  O310  1  0.87434543  0.13058970  0.13123621  1
  O  O311  1  0.88067168  0.12950244  0.63079968  1
  O  O312  1  0.87633483  0.63445434  0.12698226  1
  O  O313  1  0.86978291  0.62104685  0.64124367  1
  O  O314  1  0.25492070  0.25650304  0.11984991  1
  O  O315  1  0.26443076  0.25332404  0.62516316  1
  O  O316  1  0.25736708  0.74800744  0.11743426  1
  O  O317  1  0.25965915  0.75718009  0.62400177  1
  O  O318  1  0.75371621  0.25727698  0.11972874  1
  O  O319  1  0.75448344  0.25455560  0.62062537  1
  O  O320  1  0.75409010  0.75525488  0.11862837  1
  O  O321  1  0.75837868  0.75843659  0.62145253  1
  O  O322  1  0.24968939  0.24262634  0.37896185  1
  O  O323  1  0.24250847  0.24080460  0.88154888  1
  O  O324  1  0.24689262  0.74198496  0.37412761  1
  O  O325  1  0.24536401  0.74183487  0.88299309  1
  O  O326  1  0.74436238  0.24558908  0.38044842  1
  O  O327  1  0.74520537  0.24265856  0.87877213  1
  O  O328  1  0.74116847  0.74201674  0.37439555  1
  O  O329  1  0.74054767  0.74400747  0.88144643  1
  O  O330  1  0.00872956  0.12090380  0.00408753  1
  O  O331  1  0.00544995  0.12063692  0.50544001  1
  O  O332  1  0.00046166  0.61206515  0.00069170  1
  O  O333  1  0.01509247  0.62537838  0.49065808  1
  O  O334  1  0.50919166  0.12357164  -0.00224756  1
  O  O335  1  0.50664476  0.11542663  0.50119666  1
  O  O336  1  0.50164108  0.61691482  0.00586908  1
  O  O337  1  0.50631841  0.62092918  0.51046470  1
  O  O338  1  0.49054322  0.38314057  0.50095609  1
  O  O339  1  0.49021304  0.38543459  1.00496043  1
  O  O340  1  0.49976669  0.88856673  0.49769118  1
  O  O341  1  0.49098977  0.87409195  0.99087716  1
  O  O342  1  1.00001594  0.37567177  0.48953196  1
  O  O343  1  0.99542859  0.38347266  0.99811692  1
  O  O344  1  0.99616712  0.88372730  0.49276638  1
  O  O345  1  0.99177063  0.87555061  0.99192204  1
  O  O346  1  0.49060357  0.50293466  0.38160632  1
  O  O347  1  0.50066413  0.50478692  0.88363246  1
  O  O348  1  0.49482413  1.00044224  0.38343776  1
  O  O349  1  0.50489637  0.98473998  0.87905594  1
  O  O350  1  1.00177167  0.48848126  0.37572181  1
  O  O351  1  0.99062834  0.49691276  0.88402489  1
  O  O352  1  0.99502501  0.99667950  0.37884006  1
  O  O353  1  0.99282118  0.99174159  0.87641134  1
  O  O354  1  0.01228772  0.00067684  0.12479927  1
  O  O355  1  0.00640278  0.00594046  0.61944836  1
  O  O356  1  -0.00168930  0.49901460  0.11530336  1
  O  O357  1  0.01541012  0.49555324  0.62482559  1
  O  O358  1  0.50249868  0.00423737  0.11785599  1
  O  O359  1  0.50740449  0.00119558  0.61561449  1
  O  O360  1  0.49826187  0.51272145  0.12432060  1
  O  O361  1  0.50701148  0.51077781  0.62095695  1
  O  O362  1  0.24667956  0.38405013  0.24729426  1
  O  O363  1  0.23813919  0.37552452  0.75094266  1
  O  O364  1  0.24315837  0.88231685  0.24860665  1
  O  O365  1  0.24625414  0.87990475  0.74625639  1
  O  O366  1  0.73914078  0.37208165  0.24142297  1
  O  O367  1  0.74426016  0.37972298  0.74253914  1
  O  O368  1  0.74378756  0.87992598  0.24406883  1
  O  O369  1  0.74474613  0.88017028  0.74396779  1
  O  O370  1  0.25533513  0.11992349  0.25641906  1
  O  O371  1  0.25785711  0.12055379  0.75542439  1
  O  O372  1  0.24477453  0.61574543  0.26374135  1
  O  O373  1  0.25831297  0.62336266  0.75897765  1
  O  O374  1  0.75422421  0.12099750  0.25512992  1
  O  O375  1  0.75573207  0.11886239  0.75440256  1
  O  O376  1  0.74642384  0.62455245  0.25921908  1
  O  O377  1  0.75858773  0.61646221  0.75680685  1
  O  O378  1  0.36986472  0.12008793  0.36911349  1
  O  O379  1  0.36784623  0.13286790  0.86288866  1
  O  O380  1  0.36550427  0.61449210  0.38514417  1
  O  O381  1  0.36690591  0.63517223  0.86313561  1
  O  O382  1  0.86951196  0.12076384  0.36934544  1
  O  O383  1  0.86958613  0.11857039  0.86942704  1
  O  O384  1  0.86144021  0.62760799  0.37242722  1
  O  O385  1  0.86884714  0.61340764  0.86893251  1
  O  O386  1  0.13423720  0.37910675  0.13314521  1
  O  O387  1  0.12719184  0.38095177  0.63545374  1
  O  O388  1  0.12723415  0.88366474  0.13070695  1
  O  O389  1  0.13199183  0.88144164  0.63094016  1
  O  O390  1  0.63221719  0.37210706  0.13284894  1
  O  O391  1  0.63026298  0.38116834  0.63120571  1
  O  O392  1  0.63090041  0.87342675  0.12913066  1
  O  O393  1  0.63209800  0.87940054  0.62894618  1
  O  O394  1  0.11904936  0.25766816  0.25167014  1
  O  O395  1  0.12084398  0.25569255  0.75431185  1
  O  O396  1  0.12048957  0.75653063  0.25578894  1
  O  O397  1  0.12727322  0.75613991  0.75769944  1
  O  O398  1  0.61967096  0.25776260  0.25538634  1
  O  O399  1  0.61776979  0.25281633  0.75270931  1
  O  O400  1  0.61474100  0.75553216  0.25397936  1
  O  O401  1  0.63408115  0.75497864  0.76135134  1
  O  O402  1  0.37917636  0.24682204  0.24585810  1
  O  O403  1  0.38208408  0.24419351  0.74407322  1
  O  O404  1  0.38397019  0.75650111  0.23850160  1
  O  O405  1  0.37204066  0.73800935  0.73637310  1
  O  O406  1  0.87921374  0.24403962  0.24484476  1
  O  O407  1  0.87972366  0.24306751  0.74545951  1
  O  O408  1  0.88225127  0.75136324  0.24276696  1
  O  O409  1  0.87323071  0.73082893  0.75497198  1
  O  O410  1  0.37882344  0.49447837  0.49609094  1
  O  O411  1  0.38392021  0.48986973  1.00328578  1
  O  O412  1  0.38555963  1.00212933  0.49574992  1
  O  O413  1  0.36904775  0.98211376  1.00464636  1
  O  O414  1  0.87999122  0.49713510  0.49456130  1
  O  O415  1  0.88031217  0.49782018  0.99167231  1
  O  O416  1  0.88151147  0.99753543  0.49254546  1
  O  O417  1  0.87396739  0.99219162  0.99250866  1
  O  O418  1  0.12604766  0.00449043  0.01031004  1
  O  O419  1  0.11970713  0.00646023  0.50637042  1
  O  O420  1  0.11349183  0.49879687  0.00172035  1
  O  O421  1  0.12369709  0.50942534  0.50926434  1
  O  O422  1  0.62684615  0.01282743  -0.00127716  1
  O  O423  1  0.61859924  0.00510453  0.50250947  1
  O  O424  1  0.61298673  0.50460115  0.00168717  1
  O  O425  1  0.61929107  0.50648022  0.50655089  1
  O  O426  1  0.36805207  0.36863772  0.11972504  1
  O  O427  1  0.37541309  0.36837938  0.61867364  1
  O  O428  1  0.37334017  0.86218053  0.11455442  1
  O  O429  1  0.37157043  0.86673344  0.62736197  1
  O  O430  1  0.86176204  0.36768665  0.12651165  1
  O  O431  1  0.86819154  0.36817483  0.62627289  1
  O  O432  1  0.86784804  0.86905196  0.11818035  1
  O  O433  1  0.86779959  0.87973574  0.61637263  1
  O  O434  1  0.13210976  0.12645986  0.38247279  1
  O  O435  1  0.13048224  0.12931410  0.88123205  1
  O  O436  1  0.13453518  0.63125641  0.38306094  1
  O  O437  1  0.13524607  0.63174369  0.87751050  1
  O  O438  1  0.63141304  0.13160204  0.37975260  1
  O  O439  1  0.63080387  0.13106959  0.88062426  1
  O  O440  1  0.63017856  0.63071108  0.38007826  1
  O  O441  1  0.62892949  0.63143105  0.87804915  1
