# generated using pymatgen
data_V93Zn93O256
_symmetry_space_group_name_H-M   'P 1'
_cell_length_a   17.05373781
_cell_length_b   17.05493227
_cell_length_c   17.05257394
_cell_angle_alpha   89.91145392
_cell_angle_beta   89.99859465
_cell_angle_gamma   89.96679936
_symmetry_Int_Tables_number   1
_chemical_formula_structural   V93Zn93O256
_chemical_formula_sum   'V93 Zn93 O256'
_cell_volume   4959.74022861
_cell_formula_units_Z   1
loop_
 _symmetry_equiv_pos_site_id
 _symmetry_equiv_pos_as_xyz
  1  'x, y, z'
loop_
 _atom_site_type_symbol
 _atom_site_label
 _atom_site_symmetry_multiplicity
 _atom_site_fract_x
 _atom_site_fract_y
 _atom_site_fract_z
 _atom_site_occupancy
  V  V0  1  0.12399000  0.38297317  0.74173508  1
  V  V1  1  0.74856301  0.00194981  0.75032635  1
  V  V2  1  0.48747529  0.37982788  0.87813467  1
  V  V3  1  0.62356384  0.00099270  0.62511556  1
  V  V4  1  0.87473821  0.50012659  0.87708355  1
  V  V5  1  0.75010385  0.75070662  0.00113386  1
  V  V6  1  0.25133789  0.49775112  0.24984577  1
  V  V7  1  0.25458483  0.50090773  0.74861652  1
  V  V8  1  0.62463005  0.62310750  0.00081047  1
  V  V9  1  0.25416300  0.37709665  0.62278688  1
  V  V10  1  0.00011224  0.12543352  0.62499866  1
  V  V11  1  0.12281961  0.00128553  0.62358625  1
  V  V12  1  0.00032368  0.37740371  0.87471594  1
  V  V13  1  0.62429506  0.12354194  0.49895027  1
  V  V14  1  0.37402349  0.87655992  -0.00027024  1
  V  V15  1  0.87866206  0.12320373  0.24694470  1
  V  V16  1  0.12663225  0.87381310  0.25063766  1
  V  V17  1  0.87446343  0.00177179  0.87569013  1
  V  V18  1  0.62616801  0.62403953  0.49992180  1
  V  V19  1  0.37622131  0.25155141  0.12117940  1
  V  V20  1  0.50141605  0.62370107  0.12326622  1
  V  V21  1  0.25068735  0.12660724  0.87324185  1
  V  V22  1  0.25523936  0.37585564  0.12109141  1
  V  V23  1  0.00022014  0.62535787  0.12664322  1
  V  V24  1  0.62568662  0.74760060  0.37567809  1
  V  V25  1  0.87372295  0.75125313  0.62592677  1
  V  V26  1  0.37467535  0.12415121  0.24808137  1
  V  V27  1  0.25548453  0.61974318  0.87513835  1
  V  V28  1  0.49328911  0.24972566  0.74315348  1
  V  V29  1  0.49854056  0.74968650  0.74952908  1
  V  V30  1  0.87735338  0.24771562  0.12278604  1
  V  V31  1  0.24971046  0.74988302  -0.00140905  1
  V  V32  1  0.12647095  0.37345854  0.24894625  1
  V  V33  1  0.00059200  0.87379014  0.37658867  1
  V  V34  1  0.62559665  0.50009494  0.62597762  1
  V  V35  1  -0.00148514  0.75254588  0.75248292  1
  V  V36  1  0.11927217  0.12470313  0.00615382  1
  V  V37  1  0.74639677  0.24701500  -0.00022914  1
  V  V38  1  -0.00066388  0.87735921  0.87767207  1
  V  V39  1  0.87440603  0.62641364  0.75190054  1
  V  V40  1  0.87516644  -0.00199823  0.37483631  1
  V  V41  1  0.75064465  0.12367017  0.37403039  1
  V  V42  1  0.62814874  0.37580863  0.24632521  1
  V  V43  1  0.00128524  0.24349014  0.24316924  1
  V  V44  1  0.37605816  0.62400494  0.25025623  1
  V  V45  1  0.62536355  0.87405829  0.24932375  1
  V  V46  1  0.48849230  0.49820439  -0.00429736  1
  V  V47  1  0.50085191  0.74882008  0.24977465  1
  V  V48  1  0.87516308  0.87618431  0.00118906  1
  V  V49  1  0.62498555  0.24820745  0.37361001  1
  V  V50  1  0.75059203  0.24974912  0.50055877  1
  V  V51  1  0.12584961  0.24795191  0.37411384  1
  V  V52  1  0.25565923  0.25530253  -0.00254733  1
  V  V53  1  0.62581260  0.37483211  0.75165897  1
  V  V54  1  0.87333600  0.12583672  0.75143683  1
  V  V55  1  0.87342668  0.25008144  0.62385929  1
  V  V56  1  0.49958579  0.37376215  0.37426925  1
  V  V57  1  0.50056936  0.49834686  0.50006908  1
  V  V58  1  0.25672226  0.24937971  0.50483677  1
  V  V59  1  0.87537591  0.62209906  0.25298572  1
  V  V60  1  0.37599781  0.49725725  0.37587624  1
  V  V61  1  0.49944455  0.87391939  0.37460805  1
  V  V62  1  0.50073661  0.00456845  -0.00067086  1
  V  V63  1  0.62473824  0.00587696  0.11955079  1
  V  V64  1  -0.00298131  0.37471430  0.37503478  1
  V  V65  1  0.74966577  0.74850746  0.50066105  1
  V  V66  1  0.24847164  0.87629910  0.12539267  1
  V  V67  1  0.87443006  0.87462570  0.50025919  1
  V  V68  1  0.12291205  0.87639910  0.75228232  1
  V  V69  1  0.74955630  0.62513300  0.87714699  1
  V  V70  1  0.62385693  0.24508367  0.87894932  1
  V  V71  1  -0.00053223  0.25170944  0.74911709  1
  V  V72  1  0.25151589  0.87307899  0.62324959  1
  V  V73  1  0.50065448  0.24904868  0.24736762  1
  V  V74  1  0.12525624  0.62579671  0.00001397  1
  V  V75  1  0.50137773  0.12571763  0.11971443  1
  V  V76  1  0.49852146  0.62503472  0.62703612  1
  V  V77  1  0.12665521  0.74534826  0.38173513  1
  V  V78  1  0.62447581  0.87717918  0.75040080  1
  V  V79  1  0.25064038  0.12305430  0.37409570  1
  V  V80  1  0.75055030  -0.00072348  0.24927112  1
  V  V81  1  0.24996579  0.62298192  0.37638977  1
  V  V82  1  0.00533932  0.61866331  0.62385931  1
  V  V83  1  0.49912165  0.87643987  0.87491309  1
  V  V84  1  0.62435378  0.75082293  0.87566193  1
  V  V85  1  0.12507794  0.25201210  0.87290757  1
  V  V86  1  0.37438842  0.00263422  0.87315251  1
  V  V87  1  0.75097184  0.87561421  0.12438468  1
  V  V88  1  0.00039591  0.50032384  -0.00043132  1
  V  V89  1  0.37545229  0.75075480  0.12500347  1
  V  V90  1  0.74861466  0.50084540  0.75151852  1
  V  V91  1  0.25037641  0.00171876  0.75003178  1
  V  V92  1  0.49857991  -0.00232751  0.49801462  1
  Zn  Zn93  1  0.12508375  0.75152217  0.87602036  1
  Zn  Zn94  1  0.74606081  0.12433220  0.87853234  1
  Zn  Zn95  1  0.37383586  -0.00349170  0.37243266  1
  Zn  Zn96  1  -0.00589703  0.00592193  0.00865332  1
  Zn  Zn97  1  0.37413201  0.74752348  0.62521909  1
  Zn  Zn98  1  0.62688851  0.49849748  0.12299866  1
  Zn  Zn99  1  0.87511565  0.75101617  0.12773096  1
  Zn  Zn100  1  0.37664596  0.62291507  0.75261093  1
  Zn  Zn101  1  0.37933794  0.37005444  0.50513482  1
  Zn  Zn102  1  0.25468242  0.74600737  0.50234200  1
  Zn  Zn103  1  0.13706124  0.61046917  0.51495401  1
  Zn  Zn104  1  0.00339654  0.49298775  0.50428562  1
  Zn  Zn105  1  0.12597978  0.49920712  0.12471987  1
  Zn  Zn106  1  0.75182465  0.62112879  0.37480293  1
  Zn  Zn107  1  -0.00214003  0.00224185  0.49965458  1
  Zn  Zn108  1  0.87373279  0.37662411  0.50031735  1
  Zn  Zn109  1  0.74968749  0.87557232  0.62571676  1
  Zn  Zn110  1  0.75193206  0.37602583  0.62281990  1
  Zn  Zn111  1  0.11991415  0.00476779  0.12987291  1
  Zn  Zn112  1  -0.00038184  0.74840882  0.25199492  1
  Zn  Zn113  1  0.37393710  0.87205459  0.49793021  1
  Zn  Zn114  1  0.75116455  0.49938417  0.24953701  1
  Zn  Zn115  1  0.75147975  0.37706859  0.12251907  1
  Zn  Zn116  1  0.12478761  0.12520671  0.49917855  1
  Zn  Zn117  1  0.36886456  0.13164958  0.74077394  1
  Zn  Zn118  1  0.87280209  0.49872495  0.37934470  1
  Zn  Zn119  1  0.87453105  0.37507794  0.00134054  1
  Zn  Zn120  1  0.25153000  -0.00039892  0.24786004  1
  Zn  Zn121  1  0.49200456  0.13058796  0.61787635  1
  Zn  Zn122  1  0.19036198  0.18988602  0.18663311  1
  Zn  Zn123  1  0.18661854  0.19044829  0.68606354  1
  Zn  Zn124  1  0.18724570  0.68849062  0.18899729  1
  Zn  Zn125  1  0.18640405  0.69012695  0.69337461  1
  Zn  Zn126  1  0.69083277  0.18816873  0.18562628  1
  Zn  Zn127  1  0.68442736  0.18617848  0.68655727  1
  Zn  Zn128  1  0.68950003  0.68633773  0.18694007  1
  Zn  Zn129  1  0.68609215  0.68829533  0.68760827  1
  Zn  Zn130  1  0.31412491  0.31053205  0.31201176  1
  Zn  Zn131  1  0.31050788  0.31640790  0.81067941  1
  Zn  Zn132  1  0.31236991  0.81065254  0.31387735  1
  Zn  Zn133  1  0.31214330  0.81115119  0.81165462  1
  Zn  Zn134  1  0.81334632  0.30965435  0.31176966  1
  Zn  Zn135  1  0.81176836  0.31291318  0.81424624  1
  Zn  Zn136  1  0.81308421  0.80840934  0.31260783  1
  Zn  Zn137  1  0.81165936  0.81497793  0.81382974  1
  Zn  Zn138  1  0.18386553  0.43647374  0.43950507  1
  Zn  Zn139  1  0.18610720  0.44002106  0.93475052  1
  Zn  Zn140  1  0.18649839  0.93710281  0.43894950  1
  Zn  Zn141  1  0.18764396  0.93969658  0.93733297  1
  Zn  Zn142  1  0.68971016  0.43756149  0.43427999  1
  Zn  Zn143  1  0.68364556  0.43470185  0.93975895  1
  Zn  Zn144  1  0.68746036  0.93500194  0.43770410  1
  Zn  Zn145  1  0.68838556  0.93866427  0.93740341  1
  Zn  Zn146  1  0.30911059  0.06337880  0.06194526  1
  Zn  Zn147  1  0.31515543  0.06299463  0.56203453  1
  Zn  Zn148  1  0.31230620  0.56386258  0.06324998  1
  Zn  Zn149  1  0.31435186  0.55781815  0.56517596  1
  Zn  Zn150  1  0.81203888  0.06564247  0.06219029  1
  Zn  Zn151  1  0.81182611  0.06240722  0.56333471  1
  Zn  Zn152  1  0.81222920  0.56013344  0.06651029  1
  Zn  Zn153  1  0.81674514  0.56058862  0.56179591  1
  Zn  Zn154  1  0.43996504  0.43837852  0.18483188  1
  Zn  Zn155  1  0.43559009  0.43686761  0.68877810  1
  Zn  Zn156  1  0.43733953  0.93840306  0.18774849  1
  Zn  Zn157  1  0.43606379  0.94012240  0.68649297  1
  Zn  Zn158  1  0.93765513  0.43641801  0.18803812  1
  Zn  Zn159  1  0.93329476  0.43705456  0.68919814  1
  Zn  Zn160  1  0.94236805  0.93785937  0.18610239  1
  Zn  Zn161  1  0.93572332  0.93809075  0.68838772  1
  Zn  Zn162  1  0.06281835  0.05979203  0.31275028  1
  Zn  Zn163  1  0.06166293  0.06361654  0.81557304  1
  Zn  Zn164  1  0.06464717  0.55896774  0.31340260  1
  Zn  Zn165  1  0.06519897  0.56468820  0.81299139  1
  Zn  Zn166  1  0.56238213  0.06179906  0.30954644  1
  Zn  Zn167  1  0.56052603  0.06503385  0.81165994  1
  Zn  Zn168  1  0.56337117  0.56080560  0.31301328  1
  Zn  Zn169  1  0.56126433  0.56224967  0.81500189  1
  Zn  Zn170  1  0.43631256  0.18565681  0.43497538  1
  Zn  Zn171  1  0.43833847  0.18856513  0.93269518  1
  Zn  Zn172  1  0.43622098  0.68739443  0.44069884  1
  Zn  Zn173  1  0.43699522  0.68710240  0.93752717  1
  Zn  Zn174  1  0.93789469  0.18722344  0.43703394  1
  Zn  Zn175  1  0.93573185  0.19036874  0.93569764  1
  Zn  Zn176  1  0.93815160  0.68849379  0.43897732  1
  Zn  Zn177  1  0.93698104  0.68984413  0.93943309  1
  Zn  Zn178  1  0.06562523  0.31321849  0.06119460  1
  Zn  Zn179  1  0.06632867  0.30982040  0.55999818  1
  Zn  Zn180  1  0.06151714  0.81230195  0.06276448  1
  Zn  Zn181  1  0.06108276  0.80982737  0.56309873  1
  Zn  Zn182  1  0.56108819  0.31505551  0.05906976  1
  Zn  Zn183  1  0.56667230  0.31398034  0.56168451  1
  Zn  Zn184  1  0.56293150  0.81471702  0.06241820  1
  Zn  Zn185  1  0.56344136  0.81253590  0.56425266  1
  O  O186  1  0.13197423  0.12873076  0.10869862  1
  O  O187  1  0.11961157  0.11525890  0.62653292  1
  O  O188  1  0.11714110  0.62351299  0.12051812  1
  O  O189  1  0.10850366  0.63283410  0.62934998  1
  O  O190  1  0.61932451  0.11232970  0.13211849  1
  O  O191  1  0.61787457  0.11890834  0.61692708  1
  O  O192  1  0.61745085  0.62622214  0.11840195  1
  O  O193  1  0.61890009  0.61884136  0.62039146  1
  O  O194  1  0.38308293  0.38020247  0.37360749  1
  O  O195  1  0.38877108  0.37369146  0.87028035  1
  O  O196  1  0.38375602  0.87644601  0.37558643  1
  O  O197  1  0.37967999  0.88147789  0.88050827  1
  O  O198  1  0.88630110  0.37112463  0.37457018  1
  O  O199  1  0.88333808  0.38267732  0.87397218  1
  O  O200  1  0.88024987  0.87849800  0.37953590  1
  O  O201  1  0.87903130  0.88234367  0.88112649  1
  O  O202  1  0.25060251  0.01217042  0.37535300  1
  O  O203  1  0.25516483  0.00611434  0.86930292  1
  O  O204  1  0.25664193  0.50236810  0.36827783  1
  O  O205  1  0.24466772  0.51017944  0.86565973  1
  O  O206  1  0.75443568  0.00372844  0.36830222  1
  O  O207  1  0.75489301  0.00357449  0.86919885  1
  O  O208  1  0.75431023  0.50359028  0.36885577  1
  O  O209  1  0.75387302  0.50589875  0.87128769  1
  O  O210  1  0.25098161  0.49097806  0.12987416  1
  O  O211  1  0.24745549  0.49021430  0.63411886  1
  O  O212  1  0.24255677  0.99204346  0.12592327  1
  O  O213  1  0.24005197  0.99353853  0.62957146  1
  O  O214  1  0.74517332  0.49402883  0.13028782  1
  O  O215  1  0.74350248  0.49993996  0.63372081  1
  O  O216  1  0.74247561  0.99656845  0.12923060  1
  O  O217  1  0.74174904  0.99939849  0.63213260  1
  O  O218  1  0.00612900  0.36337918  0.25513560  1
  O  O219  1  0.00726155  0.37224213  0.75355298  1
  O  O220  1  0.01029736  0.87124606  0.25784222  1
  O  O221  1  0.00306002  0.87197053  0.75728444  1
  O  O222  1  0.50722708  0.36779150  0.25366052  1
  O  O223  1  0.50737923  0.36904830  0.75621343  1
  O  O224  1  0.50605236  0.86851091  0.25345956  1
  O  O225  1  0.50516430  0.87144051  0.75627152  1
  O  O226  1  0.49512581  0.13040335  0.24173139  1
  O  O227  1  0.50035101  0.14366178  0.75073805  1
  O  O228  1  0.49569649  0.62968634  0.24422735  1
  O  O229  1  0.50075605  0.63103986  0.74557439  1
  O  O230  1  0.99568079  0.13635102  0.25590022  1
  O  O231  1  0.99456286  0.13213794  0.74538238  1
  O  O232  1  0.99545633  0.62392733  0.24159440  1
  O  O233  1  0.99432990  0.63181577  0.74499980  1
  O  O234  1  0.36195047  0.24505450  0.00349175  1
  O  O235  1  0.36166209  0.25239080  0.49199305  1
  O  O236  1  0.37048583  0.75707147  0.00567744  1
  O  O237  1  0.37316080  0.75479367  0.50689371  1
  O  O238  1  0.86947702  0.25214866  0.00732487  1
  O  O239  1  0.86702801  0.24817804  0.50647864  1
  O  O240  1  0.86673050  0.75757530  0.00216581  1
  O  O241  1  0.86891486  0.75528765  0.50568661  1
  O  O242  1  0.13729918  0.24652706  0.49163440  1
  O  O243  1  0.13419572  0.24279813  0.99378659  1
  O  O244  1  0.12769114  0.74555797  0.48981114  1
  O  O245  1  0.13274188  0.74380780  0.99944897  1
  O  O246  1  0.62948028  0.24314829  0.49320311  1
  O  O247  1  0.63282891  0.25811959  0.98873356  1
  O  O248  1  0.62949404  0.74373536  0.49558491  1
  O  O249  1  0.62937426  0.74560304  0.99430227  1
  O  O250  1  0.49518030  0.24536812  0.12672370  1
  O  O251  1  0.50639452  0.25388409  0.64051378  1
  O  O252  1  0.49486908  0.74535661  0.12958586  1
  O  O253  1  0.50244669  0.74270978  0.63302703  1
  O  O254  1  0.99355126  0.25544268  0.13479875  1
  O  O255  1  0.99523223  0.24504912  0.63075976  1
  O  O256  1  0.99886077  0.73633933  0.12676188  1
  O  O257  1  0.99238811  0.74430863  0.63372276  1
  O  O258  1  0.00522812  0.25474008  0.36446131  1
  O  O259  1  0.00459994  0.25765346  0.86767607  1
  O  O260  1  0.01100474  0.75482268  0.37533813  1
  O  O261  1  0.00017341  0.75825131  0.86963658  1
  O  O262  1  0.50565607  0.25312786  0.36759627  1
  O  O263  1  0.50705379  0.25936282  0.86857347  1
  O  O264  1  0.50583589  0.75371031  0.36895693  1
  O  O265  1  0.50516737  0.75669347  0.87083893  1
  O  O266  1  0.24956658  0.13145246  0.49047382  1
  O  O267  1  0.24196798  0.13606839  0.99269692  1
  O  O268  1  0.25101736  0.62451088  0.49311489  1
  O  O269  1  0.24551552  0.62910785  0.99415509  1
  O  O270  1  0.74374013  0.12880520  0.49310480  1
  O  O271  1  0.75301931  0.14150273  0.99753068  1
  O  O272  1  0.74368457  0.63071451  0.50058964  1
  O  O273  1  0.74519932  0.63052317  0.99587350  1
  O  O274  1  0.24128553  0.36527240  0.00776251  1
  O  O275  1  0.25038554  0.36757486  0.50714540  1
  O  O276  1  0.25467797  0.87032750  0.00444317  1
  O  O277  1  0.24971462  0.87408022  0.51206889  1
  O  O278  1  0.75351936  0.36304279  -0.00008142  1
  O  O279  1  0.74993409  0.36434704  0.50152983  1
  O  O280  1  0.75488006  0.87037755  0.00492934  1
  O  O281  1  0.75605329  0.86703891  0.50171248  1
  O  O282  1  0.13438845  0.49116588  0.24776250  1
  O  O283  1  0.13304412  0.48857730  0.75500370  1
  O  O284  1  0.12872651  0.98534261  0.25245170  1
  O  O285  1  0.12937576  0.99635747  0.74223166  1
  O  O286  1  0.62335782  0.48662429  0.24871836  1
  O  O287  1  0.62882386  0.49257362  0.74694765  1
  O  O288  1  0.63038823  0.99360155  0.24114433  1
  O  O289  1  0.62753179  0.99678455  0.74562131  1
  O  O290  1  0.37263886  0.00863900  0.25142531  1
  O  O291  1  0.36771660  0.00056491  0.75811138  1
  O  O292  1  0.37175504  0.50497974  0.25495910  1
  O  O293  1  0.35921243  0.50082942  0.74869619  1
  O  O294  1  0.86959826  0.00324087  0.25497036  1
  O  O295  1  0.86849083  0.00580453  0.75559659  1
  O  O296  1  0.87576552  0.51087986  0.25154609  1
  O  O297  1  0.86776416  0.50661358  0.75749472  1
  O  O298  1  0.11885380  0.36586151  0.36686194  1
  O  O299  1  0.11972571  0.37035722  0.86523984  1
  O  O300  1  0.12252884  0.86635959  0.37020372  1
  O  O301  1  0.11781632  0.87702050  0.86965578  1
  O  O302  1  0.61847079  0.36726512  0.36641692  1
  O  O303  1  0.61793609  0.36818142  0.86409567  1
  O  O304  1  0.61999335  0.86783810  0.36818375  1
  O  O305  1  0.61830148  0.87085478  0.87091980  1
  O  O306  1  0.37940889  0.13159717  0.12906472  1
  O  O307  1  0.38075008  0.12065385  0.62963058  1
  O  O308  1  0.38100534  0.63179599  0.13089660  1
  O  O309  1  0.38477548  0.62479909  0.62939375  1
  O  O310  1  0.87058780  0.13833481  0.13169656  1
  O  O311  1  0.88054266  0.12969257  0.63189657  1
  O  O312  1  0.88517273  0.62591753  0.13269137  1
  O  O313  1  0.88304974  0.63207308  0.63378643  1
  O  O314  1  0.25585528  0.25759415  0.11645574  1
  O  O315  1  0.24400017  0.25892851  0.61381437  1
  O  O316  1  0.25714193  0.75464599  0.11934467  1
  O  O317  1  0.24778529  0.76180425  0.62642196  1
  O  O318  1  0.75771969  0.25260933  0.11709851  1
  O  O319  1  0.75482053  0.24938302  0.61846728  1
  O  O320  1  0.74965912  0.75843048  0.11796565  1
  O  O321  1  0.75595532  0.75126537  0.61965788  1
  O  O322  1  0.24548150  0.24155421  0.37962899  1
  O  O323  1  0.24573295  0.24894139  0.88044947  1
  O  O324  1  0.24273198  0.74192032  0.37686924  1
  O  O325  1  0.24731229  0.74237812  0.88113148  1
  O  O326  1  0.74460550  0.24179764  0.37946195  1
  O  O327  1  0.74129912  0.25015600  0.88119036  1
  O  O328  1  0.74253922  0.74667648  0.38245687  1
  O  O329  1  0.74396642  0.74510427  0.88098866  1
  O  O330  1  0.01693400  0.13048859  -0.00619420  1
  O  O331  1  0.00339062  0.12336815  0.50845292  1
  O  O332  1  0.00426854  0.62090006  0.00730299  1
  O  O333  1  -0.00251575  0.62824999  0.51995512  1
  O  O334  1  0.49302589  0.11725071  0.00705304  1
  O  O335  1  0.50636835  0.11504420  0.49573278  1
  O  O336  1  0.50549103  0.61969501  0.00307913  1
  O  O337  1  0.50675079  0.61768571  0.50632178  1
  O  O338  1  0.50090281  0.37934210  0.49300330  1
  O  O339  1  0.50534084  0.38598479  0.98951946  1
  O  O340  1  0.50332756  0.88351102  0.49305436  1
  O  O341  1  0.49360355  0.88246519  0.99455557  1
  O  O342  1  0.99950189  0.36809404  0.48643945  1
  O  O343  1  1.00153428  0.38183316  0.99240195  1
  O  O344  1  0.99274027  0.87633136  0.49431704  1
  O  O345  1  0.99260487  0.87523095  0.99399505  1
  O  O346  1  0.49566186  0.49363987  0.38061227  1
  O  O347  1  0.50542284  0.49150908  0.88304572  1
  O  O348  1  0.50290966  0.99297617  0.38253025  1
  O  O349  1  0.49519097  0.99608352  0.87939935  1
  O  O350  1  0.99877765  0.48220068  0.36910512  1
  O  O351  1  0.99444188  0.49747442  0.87939352  1
  O  O352  1  0.99281937  0.99253198  0.37673618  1
  O  O353  1  0.99203401  0.99503098  0.87941219  1
  O  O354  1  0.00780256  -0.00131777  0.12047384  1
  O  O355  1  0.00874924  0.00566298  0.62693677  1
  O  O356  1  0.00216830  0.50906359  0.11920508  1
  O  O357  1  -0.00479633  0.51676343  0.63190164  1
  O  O358  1  0.50721297  0.00476003  0.11979928  1
  O  O359  1  0.50679687  -0.00235255  0.61282551  1
  O  O360  1  0.50307283  0.50636437  0.11562149  1
  O  O361  1  0.50617878  0.50355134  0.62093432  1
  O  O362  1  0.24615989  0.37703449  0.24155881  1
  O  O363  1  0.24246297  0.38096098  0.74328813  1
  O  O364  1  0.24260357  0.87438594  0.24508691  1
  O  O365  1  0.24301913  0.88160231  0.74343757  1
  O  O366  1  0.73712435  0.37081177  0.25017560  1
  O  O367  1  0.73930766  0.38114280  0.75105215  1
  O  O368  1  0.74502182  0.88001568  0.24489246  1
  O  O369  1  0.74204134  0.88339310  0.75050619  1
  O  O370  1  0.25532809  0.12597193  0.25806352  1
  O  O371  1  0.24789508  0.12082103  0.75625686  1
  O  O372  1  0.25688476  0.61819994  0.25440687  1
  O  O373  1  0.24791437  0.61698289  0.75720057  1
  O  O374  1  0.75686676  0.11859517  0.25494423  1
  O  O375  1  0.75562613  0.11954162  0.75177064  1
  O  O376  1  0.76257936  0.62521076  0.25087321  1
  O  O377  1  0.75378253  0.62101697  0.75763942  1
  O  O378  1  0.36552330  0.12412059  0.36617533  1
  O  O379  1  0.36771798  0.12002229  0.86967985  1
  O  O380  1  0.37117411  0.61792297  0.36897988  1
  O  O381  1  0.35985507  0.63047682  0.87342156  1
  O  O382  1  0.86970773  0.11839385  0.36802169  1
  O  O383  1  0.87383792  0.11990006  0.86786518  1
  O  O384  1  0.87864417  0.62385358  0.36454979  1
  O  O385  1  0.86903212  0.62044490  0.87126889  1
  O  O386  1  0.13787624  0.37429659  0.13072188  1
  O  O387  1  0.13246351  0.36959865  0.63616560  1
  O  O388  1  0.13138716  0.86920177  0.13704472  1
  O  O389  1  0.12931595  0.88334368  0.63092984  1
  O  O390  1  0.62422965  0.37254777  0.13702397  1
  O  O391  1  0.62651871  0.38110245  0.63712202  1
  O  O392  1  0.62985849  0.88415767  0.13048387  1
  O  O393  1  0.62678701  0.88234539  0.63323595  1
  O  O394  1  0.11842181  0.25283654  0.25275712  1
  O  O395  1  0.11929413  0.25968663  0.75470943  1
  O  O396  1  0.12553306  0.75862926  0.26135806  1
  O  O397  1  0.11619418  0.76008011  0.75378875  1
  O  O398  1  0.61974903  0.25425319  0.25415632  1
  O  O399  1  0.61762524  0.25932761  0.75684851  1
  O  O400  1  0.61981446  0.75428697  0.25467578  1
  O  O401  1  0.61962470  0.75654199  0.75710760  1
  O  O402  1  0.38166408  0.24389528  0.24193691  1
  O  O403  1  0.39089189  0.25394834  0.75374439  1
  O  O404  1  0.38138480  0.74365711  0.24484349  1
  O  O405  1  0.38431033  0.74833265  0.74691921  1
  O  O406  1  0.88289925  0.24343672  0.24257317  1
  O  O407  1  0.87984215  0.24572440  0.74509334  1
  O  O408  1  0.87947495  0.73899840  0.24783116  1
  O  O409  1  0.87816751  0.74577709  0.74703355  1
  O  O410  1  0.38354960  0.49516498  0.49302338  1
  O  O411  1  0.38953412  0.50662928  1.00228769  1
  O  O412  1  0.38854673  0.99650919  0.49527791  1
  O  O413  1  0.37895406  0.99523377  0.99369870  1
  O  O414  1  0.88540162  0.49473121  0.49814813  1
  O  O415  1  0.88185116  0.49844927  0.99383856  1
  O  O416  1  0.87410706  0.99341000  0.49278855  1
  O  O417  1  0.87322001  0.99517626  0.99385156  1
  O  O418  1  0.12671988  0.01886499  -0.00318722  1
  O  O419  1  0.12207993  0.00143479  0.51329201  1
  O  O420  1  0.11820282  0.50782576  0.00192400  1
  O  O421  1  0.11463572  0.50325263  0.49419361  1
  O  O422  1  0.61857225  -0.00615176  0.01232610  1
  O  O423  1  0.61862085  0.00411446  0.50358476  1
  O  O424  1  0.61742400  0.50833232  0.00089323  1
  O  O425  1  0.62018336  0.50377802  0.50581861  1
  O  O426  1  0.36263864  0.36832422  0.13023901  1
  O  O427  1  0.35977027  0.37664856  0.62439976  1
  O  O428  1  0.36986054  0.87020489  0.11963507  1
  O  O429  1  0.36084819  0.87659541  0.62513548  1
  O  O430  1  0.87409094  0.36061232  0.12524843  1
  O  O431  1  0.87214461  0.36525573  0.62442590  1
  O  O432  1  0.86746991  0.87460658  0.11989308  1
  O  O433  1  0.87317825  0.86921440  0.61929281  1
  O  O434  1  0.13501570  0.12942012  0.37401797  1
  O  O435  1  0.13168664  0.13318971  0.88127082  1
  O  O436  1  0.13177844  0.63394218  0.37113226  1
  O  O437  1  0.13445648  0.62868023  0.88210913  1
  O  O438  1  0.63102761  0.12899506  0.37769360  1
  O  O439  1  0.62494249  0.14106825  0.86975908  1
  O  O440  1  0.62426242  0.63096223  0.38229783  1
  O  O441  1  0.63069698  0.63182695  0.88067188  1
