# generated using pymatgen
data_V93Zn93O256
_symmetry_space_group_name_H-M   'P 1'
_cell_length_a   17.04658267
_cell_length_b   17.04825743
_cell_length_c   17.04515721
_cell_angle_alpha   89.97810056
_cell_angle_beta   89.99567430
_cell_angle_gamma   90.00953539
_symmetry_Int_Tables_number   1
_chemical_formula_structural   V93Zn93O256
_chemical_formula_sum   'V93 Zn93 O256'
_cell_volume   4953.56990156
_cell_formula_units_Z   1
loop_
 _symmetry_equiv_pos_site_id
 _symmetry_equiv_pos_as_xyz
  1  'x, y, z'
loop_
 _atom_site_type_symbol
 _atom_site_label
 _atom_site_symmetry_multiplicity
 _atom_site_fract_x
 _atom_site_fract_y
 _atom_site_fract_z
 _atom_site_occupancy
  V  V0  1  0.12316035  0.12870051  -0.00202785  1
  V  V1  1  0.49957234  0.25049038  0.25070555  1
  V  V2  1  0.00051187  0.62776494  0.12859849  1
  V  V3  1  0.62501071  0.87413101  0.74869523  1
  V  V4  1  0.00291930  0.87222883  0.36076903  1
  V  V5  1  0.12493076  0.50016180  0.62594225  1
  V  V6  1  -0.00411068  0.12425686  0.12937277  1
  V  V7  1  0.74836572  0.12719051  0.87744314  1
  V  V8  1  0.50053570  0.24848452  0.74969237  1
  V  V9  1  0.75009230  0.75064546  0.49950850  1
  V  V10  1  0.37349572  0.00003231  0.87241347  1
  V  V11  1  0.37708555  0.62445877  0.74755045  1
  V  V12  1  0.00299913  0.36870396  0.87794453  1
  V  V13  1  0.12502048  0.87489420  0.74915071  1
  V  V14  1  0.37231312  0.12472728  0.24998727  1
  V  V15  1  0.37573050  0.50119963  0.37624081  1
  V  V16  1  0.50056207  0.00030022  0.49912024  1
  V  V17  1  0.87626548  0.75034995  0.62457112  1
  V  V18  1  0.87518227  0.49830917  0.87633208  1
  V  V19  1  0.75019770  0.62523187  0.87706368  1
  V  V20  1  0.62513261  0.12576607  0.49896738  1
  V  V21  1  0.75042634  -0.00046346  0.74927122  1
  V  V22  1  -0.00009112  0.49910801  0.00090421  1
  V  V23  1  0.24898196  0.75130956  0.49871137  1
  V  V24  1  0.87917618  0.63013562  0.25189815  1
  V  V25  1  0.50093348  0.74547435  0.74543905  1
  V  V26  1  0.00034162  0.74779248  0.74931024  1
  V  V27  1  0.62320705  0.62573446  0.50238480  1
  V  V28  1  0.37525144  0.49950863  0.87437830  1
  V  V29  1  0.00271769  0.37185616  0.37753822  1
  V  V30  1  0.49830306  0.12440130  0.12317923  1
  V  V31  1  0.49993136  0.00150451  -0.00051669  1
  V  V32  1  0.37427922  0.87460622  0.49834408  1
  V  V33  1  0.37354011  0.37518730  -0.00026513  1
  V  V34  1  0.24588702  0.12877878  0.87350242  1
  V  V35  1  0.62483833  0.25034970  0.37592625  1
  V  V36  1  0.37377778  0.25114837  0.62199744  1
  V  V37  1  0.87334338  0.24874873  0.13003532  1
  V  V38  1  0.25084429  0.49832500  0.25039743  1
  V  V39  1  0.37772305  0.74522273  0.62268074  1
  V  V40  1  0.24843409  0.37441210  0.12547466  1
  V  V41  1  0.12536853  0.13109820  0.49680814  1
  V  V42  1  0.62521512  0.75118570  0.37496138  1
  V  V43  1  -0.00063629  0.24725159  0.25446183  1
  V  V44  1  0.75067933  0.50043529  0.25222356  1
  V  V45  1  0.75307614  0.00710706  0.24962792  1
  V  V46  1  0.24586682  0.87602788  0.12984602  1
  V  V47  1  0.00226119  0.24853062  0.75353042  1
  V  V48  1  0.87538912  -0.00141527  0.87579751  1
  V  V49  1  0.87600000  0.12396842  0.75019222  1
  V  V50  1  0.12130752  0.75430411  0.36208969  1
  V  V51  1  0.87746880  0.87586979  0.49730727  1
  V  V52  1  0.49997808  0.87558114  0.87239402  1
  V  V53  1  0.74928632  0.74997463  -0.00052822  1
  V  V54  1  0.24584472  0.13196391  0.37444932  1
  V  V55  1  0.87563488  0.50099224  0.37638071  1
  V  V56  1  0.87558603  0.87450416  -0.00007723  1
  V  V57  1  0.74905883  0.25037774  0.50125200  1
  V  V58  1  0.25009419  0.62483193  0.87522864  1
  V  V59  1  0.62296636  0.50279832  0.12448377  1
  V  V60  1  0.37763253  0.62602152  0.24775688  1
  V  V61  1  0.62239287  0.50302612  0.62692806  1
  V  V62  1  0.12458170  0.62735224  0.49963921  1
  V  V63  1  0.50133275  0.37443074  0.87577206  1
  V  V64  1  0.87698427  0.75015157  0.12739861  1
  V  V65  1  0.24924001  -0.00091357  0.74938973  1
  V  V66  1  0.62560569  0.87558892  0.24928602  1
  V  V67  1  0.24983595  0.75009244  -0.00245382  1
  V  V68  1  0.37362770  0.24989848  0.12526563  1
  V  V69  1  0.12455128  0.37144681  0.25400026  1
  V  V70  1  0.00024103  0.49976665  0.50142322  1
  V  V71  1  0.37345251  0.00070356  0.37408564  1
  V  V72  1  0.87390149  0.24964154  0.62584034  1
  V  V73  1  0.62452525  0.37527541  0.25197371  1
  V  V74  1  0.87613977  0.00603944  0.37136683  1
  V  V75  1  0.24720815  0.24953799  -0.00214163  1
  V  V76  1  0.75096634  0.37456931  0.12607651  1
  V  V77  1  0.62489845  0.00035521  0.62256091  1
  V  V78  1  0.12555429  -0.00016418  0.62337370  1
  V  V79  1  0.24960312  0.49933523  0.74972324  1
  V  V80  1  0.75154452  0.87554188  0.62387312  1
  V  V81  1  0.12622570  0.36993863  0.75359221  1
  V  V82  1  0.37534330  0.75046086  0.12396236  1
  V  V83  1  0.75075306  0.50004867  0.75108459  1
  V  V84  1  0.75098940  0.37578346  0.62637501  1
  V  V85  1  -0.00009155  0.87445305  0.87563413  1
  V  V86  1  0.49900561  0.50262340  0.50405945  1
  V  V87  1  0.74969534  0.87583004  0.12491555  1
  V  V88  1  0.00066135  0.12347460  0.62464853  1
  V  V89  1  0.37439431  0.87498770  -0.00194784  1
  V  V90  1  0.12531642  0.62382942  0.00015761  1
  V  V91  1  0.49992487  0.87555020  0.37253991  1
  V  V92  1  0.12476868  -0.00305722  0.12993492  1
  Zn  Zn93  1  0.24717586  0.25480645  0.49743505  1
  Zn  Zn94  1  0.37242947  0.37594143  0.50053003  1
  Zn  Zn95  1  0.62507864  0.00161891  0.12407863  1
  Zn  Zn96  1  0.24982855  0.37487115  0.62215862  1
  Zn  Zn97  1  0.62195373  0.62751952  0.00039565  1
  Zn  Zn98  1  0.37397502  0.12365203  0.74730492  1
  Zn  Zn99  1  0.75513800  0.12900388  0.37124734  1
  Zn  Zn100  1  0.87455436  0.37319602  0.00210895  1
  Zn  Zn101  1  0.87522001  0.37539366  0.50141955  1
  Zn  Zn102  1  0.49857469  0.12408064  0.62513276  1
  Zn  Zn103  1  0.00043694  -0.00077585  0.00086231  1
  Zn  Zn104  1  0.12356521  0.49957151  0.12731058  1
  Zn  Zn105  1  0.12512569  0.74950229  0.87422114  1
  Zn  Zn106  1  0.75062335  0.62587626  0.37484579  1
  Zn  Zn107  1  0.74782125  0.25058940  0.00198493  1
  Zn  Zn108  1  0.62597398  0.25056953  0.87775439  1
  Zn  Zn109  1  0.62388104  0.12648547  0.00128022  1
  Zn  Zn110  1  0.50107661  0.62840082  0.12025793  1
  Zn  Zn111  1  0.49963492  0.37516587  0.37650745  1
  Zn  Zn112  1  -0.00202308  0.62345746  0.62650019  1
  Zn  Zn113  1  0.24754801  0.62770648  0.37197042  1
  Zn  Zn114  1  0.00190424  -0.00101457  0.49651888  1
  Zn  Zn115  1  0.49921484  0.50252126  0.00057941  1
  Zn  Zn116  1  0.62409056  0.74962097  0.87535721  1
  Zn  Zn117  1  0.62672027  0.37404602  0.75202197  1
  Zn  Zn118  1  0.50208852  0.75074307  0.24696648  1
  Zn  Zn119  1  0.87613926  0.62375530  0.74866651  1
  Zn  Zn120  1  0.25009877  0.87563867  0.62402412  1
  Zn  Zn121  1  0.24671309  -0.00257023  0.25232277  1
  Zn  Zn122  1  0.18426634  0.18669188  0.18761683  1
  Zn  Zn123  1  0.18772833  0.18772037  0.68517011  1
  Zn  Zn124  1  0.19107484  0.68530680  0.18426356  1
  Zn  Zn125  1  0.18900715  0.68778717  0.68587033  1
  Zn  Zn126  1  0.68353442  0.18699143  0.18679601  1
  Zn  Zn127  1  0.68553470  0.18700340  0.68827476  1
  Zn  Zn128  1  0.69085777  0.68787027  0.18883616  1
  Zn  Zn129  1  0.68949484  0.68653972  0.68804974  1
  Zn  Zn130  1  0.31391947  0.31348435  0.31355321  1
  Zn  Zn131  1  0.31402217  0.31088626  0.81098246  1
  Zn  Zn132  1  0.31049315  0.81038907  0.31312097  1
  Zn  Zn133  1  0.31234601  0.81228880  0.81060435  1
  Zn  Zn134  1  0.81372046  0.31335050  0.31374333  1
  Zn  Zn135  1  0.81500635  0.31282696  0.81225745  1
  Zn  Zn136  1  0.81237169  0.81572980  0.31279835  1
  Zn  Zn137  1  0.81352144  0.81117598  0.81187130  1
  Zn  Zn138  1  0.18885831  0.43807603  0.43776656  1
  Zn  Zn139  1  0.18618380  0.43876695  0.93770593  1
  Zn  Zn140  1  0.18603531  0.93835219  0.43565941  1
  Zn  Zn141  1  0.18526720  0.93917736  0.93881510  1
  Zn  Zn142  1  0.68849959  0.43644723  0.43836400  1
  Zn  Zn143  1  0.68801933  0.43644739  0.94132163  1
  Zn  Zn144  1  0.68929989  0.93845949  0.43509375  1
  Zn  Zn145  1  0.68523188  0.93839584  0.93770464  1
  Zn  Zn146  1  0.31173713  0.06115440  0.06089082  1
  Zn  Zn147  1  0.31169127  0.06481826  0.56159478  1
  Zn  Zn148  1  0.31226396  0.56081437  0.06293901  1
  Zn  Zn149  1  0.30917262  0.56428624  0.56310401  1
  Zn  Zn150  1  0.81349477  0.06154704  0.06204325  1
  Zn  Zn151  1  0.81266227  0.06293790  0.55893625  1
  Zn  Zn152  1  0.81281825  0.56124643  0.06287561  1
  Zn  Zn153  1  0.81239402  0.56401458  0.56263198  1
  Zn  Zn154  1  0.43904791  0.43662087  0.18776165  1
  Zn  Zn155  1  0.43792624  0.43504713  0.68773952  1
  Zn  Zn156  1  0.43568963  0.93792424  0.18664633  1
  Zn  Zn157  1  0.43622203  0.93512782  0.68529662  1
  Zn  Zn158  1  0.93672590  0.43887053  0.18930432  1
  Zn  Zn159  1  0.93809074  0.43701094  0.68952866  1
  Zn  Zn160  1  0.93529419  0.93945067  0.18698897  1
  Zn  Zn161  1  0.93911097  0.93721688  0.68689551  1
  Zn  Zn162  1  0.06273714  0.06044069  0.31359760  1
  Zn  Zn163  1  0.06286003  0.06018383  0.81244947  1
  Zn  Zn164  1  0.06334051  0.56146264  0.31451565  1
  Zn  Zn165  1  0.06276529  0.55997217  0.81459494  1
  Zn  Zn166  1  0.56417241  0.06361931  0.31115153  1
  Zn  Zn167  1  0.56300358  0.06235042  0.81119928  1
  Zn  Zn168  1  0.56208274  0.56371303  0.31388979  1
  Zn  Zn169  1  0.56327605  0.56291842  0.81370918  1
  Zn  Zn170  1  0.43736847  0.18637913  0.43730584  1
  Zn  Zn171  1  0.43364239  0.18710344  0.93619546  1
  Zn  Zn172  1  0.43999586  0.68699594  0.43553313  1
  Zn  Zn173  1  0.43871410  0.68715631  0.93600174  1
  Zn  Zn174  1  0.93781702  0.18774659  0.44082187  1
  Zn  Zn175  1  0.93420608  0.18766021  0.94189277  1
  Zn  Zn176  1  0.94116231  0.69030076  0.43633462  1
  Zn  Zn177  1  0.93703102  0.68693195  0.93886298  1
  Zn  Zn178  1  0.06254842  0.31132988  0.06577998  1
  Zn  Zn179  1  0.06233108  0.31212454  0.56708549  1
  Zn  Zn180  1  0.06322492  0.81013412  0.06217927  1
  Zn  Zn181  1  0.06115427  0.81473678  0.55925145  1
  Zn  Zn182  1  0.56435590  0.31120221  0.06162691  1
  Zn  Zn183  1  0.56145631  0.31661991  0.56303521  1
  Zn  Zn184  1  0.56302790  0.81338791  0.06167481  1
  Zn  Zn185  1  0.56173241  0.81411280  0.56175401  1
  O  O186  1  0.11706329  0.11815253  0.11694306  1
  O  O187  1  0.12001184  0.11871745  0.61848797  1
  O  O188  1  0.11639516  0.62276231  0.12058801  1
  O  O189  1  0.12370587  0.61991387  0.61515755  1
  O  O190  1  0.61333723  0.12230737  0.12329074  1
  O  O191  1  0.62323139  0.11748131  0.61801177  1
  O  O192  1  0.62534493  0.61428681  0.12655813  1
  O  O193  1  0.63246099  0.61411175  0.61460475  1
  O  O194  1  0.37679595  0.39022624  0.37557922  1
  O  O195  1  0.38178088  0.37959636  0.87945287  1
  O  O196  1  0.37942883  0.87987900  0.37880970  1
  O  O197  1  0.37954766  0.88047522  0.87838880  1
  O  O198  1  0.88668856  0.38223796  0.37635669  1
  O  O199  1  0.88594688  0.38011179  0.87728509  1
  O  O200  1  0.88256232  0.88173018  0.37909710  1
  O  O201  1  0.87929900  0.87939930  0.88000803  1
  O  O202  1  0.25563120  0.00875513  0.37213028  1
  O  O203  1  0.25407991  0.00768193  0.86996432  1
  O  O204  1  0.26004258  0.50356382  0.36943593  1
  O  O205  1  0.25610750  0.50487679  0.86945241  1
  O  O206  1  0.75898055  0.00044184  0.36649361  1
  O  O207  1  0.75568421  0.00639200  0.86867332  1
  O  O208  1  0.75741163  0.50111264  0.37015305  1
  O  O209  1  0.75458083  0.50588495  0.87199913  1
  O  O210  1  0.24925437  0.49121412  0.13256192  1
  O  O211  1  0.24333432  0.49900425  0.63320200  1
  O  O212  1  0.24243050  0.99219478  0.12355206  1
  O  O213  1  0.24382867  0.99950323  0.63161779  1
  O  O214  1  0.74334638  0.49503754  0.13215529  1
  O  O215  1  0.74360609  0.49567121  0.63037879  1
  O  O216  1  0.75131295  0.99416115  0.13310614  1
  O  O217  1  0.74593955  0.99476066  0.62973641  1
  O  O218  1  0.00634735  0.36966127  0.25762568  1
  O  O219  1  0.00717750  0.36972237  0.75888318  1
  O  O220  1  -0.00440179  0.87703244  0.26159282  1
  O  O221  1  0.00450034  0.86632826  0.75502406  1
  O  O222  1  0.50639896  0.36796926  0.25200971  1
  O  O223  1  0.50082501  0.36692131  0.76044344  1
  O  O224  1  0.50634591  0.87525114  0.25561586  1
  O  O225  1  0.50495286  0.86667830  0.75307493  1
  O  O226  1  0.49260795  0.13092739  0.24436946  1
  O  O227  1  0.49767779  0.13597426  0.74940149  1
  O  O228  1  0.48772900  0.62647851  0.24743531  1
  O  O229  1  0.49414091  0.63779927  0.75654919  1
  O  O230  1  1.00998511  0.13617348  0.24026100  1
  O  O231  1  0.99587428  0.12913272  0.74619192  1
  O  O232  1  0.98970106  0.61667966  0.24090501  1
  O  O233  1  0.99988427  0.63570863  0.75041279  1
  O  O234  1  0.36729723  0.25595105  0.00571942  1
  O  O235  1  0.37730867  0.25268259  0.51066007  1
  O  O236  1  0.36909184  0.75563037  0.00376363  1
  O  O237  1  0.37167749  0.75245755  0.50480920  1
  O  O238  1  0.87295477  0.25207886  0.01721833  1
  O  O239  1  0.86824428  0.25130716  0.50865031  1
  O  O240  1  0.86919585  0.75533550  0.00654169  1
  O  O241  1  0.86998869  0.75556118  0.50435209  1
  O  O242  1  0.12597330  0.23486681  0.50835783  1
  O  O243  1  0.13077408  0.23662476  1.00791739  1
  O  O244  1  0.12954207  0.74184121  0.49646576  1
  O  O245  1  0.13194077  0.74176132  0.99709899  1
  O  O246  1  0.62893533  0.24664839  0.49612433  1
  O  O247  1  0.62948549  0.24464223  0.99588410  1
  O  O248  1  0.62860852  0.74312402  0.49733662  1
  O  O249  1  0.63399273  0.74895699  0.99632963  1
  O  O250  1  0.49228503  0.24553034  0.13052640  1
  O  O251  1  0.49335206  0.25174744  0.63398572  1
  O  O252  1  0.49071104  0.75004367  0.12701167  1
  O  O253  1  0.49040907  0.75597324  0.63429619  1
  O  O254  1  0.99317900  0.24394134  0.13391892  1
  O  O255  1  0.99347637  0.24314541  0.63288383  1
  O  O256  1  0.99380875  0.73524560  0.11922104  1
  O  O257  1  0.99527913  0.75045619  0.63456963  1
  O  O258  1  -0.00847550  0.25994328  0.36622623  1
  O  O259  1  -0.00727375  0.26056029  0.87066003  1
  O  O260  1  0.00979675  0.76018806  0.37889747  1
  O  O261  1  0.00000684  0.75500704  0.86544599  1
  O  O262  1  0.50546747  0.25203152  0.36858415  1
  O  O263  1  0.49645899  0.25844029  0.86682014  1
  O  O264  1  0.50695587  0.75779193  0.37241503  1
  O  O265  1  0.49958339  0.75748969  0.86260832  1
  O  O266  1  0.24227138  0.12689143  0.49109581  1
  O  O267  1  0.24261323  0.12900308  0.99324059  1
  O  O268  1  0.23895119  0.63067311  0.49714656  1
  O  O269  1  0.24581755  0.62968973  0.99545661  1
  O  O270  1  0.74262172  0.13288857  0.49846753  1
  O  O271  1  0.75074033  0.12506779  0.98838163  1
  O  O272  1  0.74010800  0.63148089  0.49743275  1
  O  O273  1  0.75034419  0.63053572  0.99181970  1
  O  O274  1  0.25279252  0.36939011  0.00420950  1
  O  O275  1  0.25272999  0.37138188  0.50281452  1
  O  O276  1  0.25546407  0.87005323  0.00540219  1
  O  O277  1  0.25727274  0.86894739  0.49992240  1
  O  O278  1  0.75368859  0.37165169  0.01054247  1
  O  O279  1  0.75207272  0.36838648  0.50806904  1
  O  O280  1  0.75586527  0.87060657  0.00432041  1
  O  O281  1  0.75582151  0.86989375  0.50501712  1
  O  O282  1  0.13119254  0.48964372  0.25064832  1
  O  O283  1  0.12935437  0.49185027  0.74594512  1
  O  O284  1  0.12750322  1.00555001  0.23362147  1
  O  O285  1  0.12951118  0.99435523  0.74331482  1
  O  O286  1  0.62999189  0.49615455  0.24475507  1
  O  O287  1  0.63010898  0.50102278  0.74059933  1
  O  O288  1  0.63420627  0.99258000  0.24932438  1
  O  O289  1  0.63056782  0.99387074  0.74274595  1
  O  O290  1  0.37255238  0.00767227  0.25600608  1
  O  O291  1  0.36820544  0.00026569  0.75441777  1
  O  O292  1  0.37198275  0.50623242  0.25693047  1
  O  O293  1  0.37052533  0.50495703  0.75370311  1
  O  O294  1  0.86407811  -0.00542783  0.25962076  1
  O  O295  1  0.86966431  0.00436716  0.75505395  1
  O  O296  1  0.87034747  0.50864441  0.25615270  1
  O  O297  1  0.86910625  0.50153280  0.75780734  1
  O  O298  1  0.11373468  0.37983356  0.36628348  1
  O  O299  1  0.11433705  0.38048424  0.86541586  1
  O  O300  1  0.11564878  0.86645022  0.37962447  1
  O  O301  1  0.11821018  0.87425354  0.86842374  1
  O  O302  1  0.62371230  0.36887476  0.36926256  1
  O  O303  1  0.61326425  0.37498415  0.87464131  1
  O  O304  1  0.61970380  0.87045633  0.37007699  1
  O  O305  1  0.61892981  0.87372459  0.86560604  1
  O  O306  1  0.37714146  0.13097990  0.12960439  1
  O  O307  1  0.37823123  0.13522599  0.62694289  1
  O  O308  1  0.37446396  0.63039399  0.13308219  1
  O  O309  1  0.37108286  0.63751182  0.63020758  1
  O  O310  1  0.88798206  0.13165327  0.12155983  1
  O  O311  1  0.87990287  0.12872297  0.63089705  1
  O  O312  1  0.88157574  0.62895307  0.13258510  1
  O  O313  1  0.87764527  0.63421683  0.62775301  1
  O  O314  1  0.25421424  0.25522559  0.11969963  1
  O  O315  1  0.26210356  0.25150887  0.62469016  1
  O  O316  1  0.25419052  0.75760581  0.11743913  1
  O  O317  1  0.26043379  0.75229645  0.61819512  1
  O  O318  1  0.75950697  0.25437986  0.13103720  1
  O  O319  1  0.75416528  0.25551945  0.62235767  1
  O  O320  1  0.75704436  0.75571970  0.11928055  1
  O  O321  1  0.75569330  0.75652586  0.61993677  1
  O  O322  1  0.25626860  0.23598002  0.37652013  1
  O  O323  1  0.25569304  0.23677255  0.88063939  1
  O  O324  1  0.24059333  0.74926065  0.38221806  1
  O  O325  1  0.24997082  0.74260527  0.87980496  1
  O  O326  1  0.74501345  0.24907064  0.38128455  1
  O  O327  1  0.75170200  0.23850921  0.87449992  1
  O  O328  1  0.74310468  0.75101330  0.38281433  1
  O  O329  1  0.75064999  0.74089859  0.87973925  1
  O  O330  1  0.00766042  0.12528984  0.00953333  1
  O  O331  1  0.00851407  0.12259817  0.50586332  1
  O  O332  1  0.00463621  0.61893340  0.00737264  1
  O  O333  1  0.01028143  0.61979499  0.50151749  1
  O  O334  1  0.49634634  0.11888718  0.00508197  1
  O  O335  1  0.50732053  0.11711723  0.50061787  1
  O  O336  1  0.50378802  0.62059398  0.00146304  1
  O  O337  1  0.51241997  0.61578548  0.49615097  1
  O  O338  1  0.49766378  0.39068385  0.49720623  1
  O  O339  1  0.49242694  0.37468903  0.99029988  1
  O  O340  1  0.49469849  0.88047521  0.49221703  1
  O  O341  1  0.49374171  0.88027620  0.99230514  1
  O  O342  1  1.00157577  0.37909476  0.49209267  1
  O  O343  1  1.00216005  0.37875236  0.99272041  1
  O  O344  1  0.99209395  0.87841245  0.49156640  1
  O  O345  1  0.99337952  0.87453322  0.99381577  1
  O  O346  1  0.49153793  0.50065201  0.38370366  1
  O  O347  1  0.49391323  0.48962453  0.87376579  1
  O  O348  1  0.49395039  0.99528885  0.37959761  1
  O  O349  1  0.49362650  0.99481989  0.87766300  1
  O  O350  1  0.99550923  0.49101858  0.38106767  1
  O  O351  1  0.99471919  0.49045090  0.88054580  1
  O  O352  1  0.99236707  0.99223498  0.37428649  1
  O  O353  1  0.99259578  0.99289676  0.87595971  1
  O  O354  1  0.00563768  0.00829209  0.12473206  1
  O  O355  1  0.00672215  0.00687072  0.62392518  1
  O  O356  1  -0.00082485  0.51038815  0.11994368  1
  O  O357  1  0.00649234  0.50074138  0.61991761  1
  O  O358  1  0.49768654  0.00672053  0.11710056  1
  O  O359  1  0.50664593  -0.00105632  0.61746015  1
  O  O360  1  0.51129393  0.50072472  0.12473162  1
  O  O361  1  0.51108463  0.49587367  0.61740758  1
  O  O362  1  0.24175231  0.37708676  0.24705110  1
  O  O363  1  0.24005456  0.38044393  0.75307239  1
  O  O364  1  0.25577344  0.87584697  0.23313373  1
  O  O365  1  0.24299568  0.88107355  0.74852411  1
  O  O366  1  0.74446894  0.38097673  0.24598063  1
  O  O367  1  0.74800569  0.38209885  0.74578544  1
  O  O368  1  0.74500526  0.88321589  0.24401772  1
  O  O369  1  0.74579331  0.87970891  0.74393935  1
  O  O370  1  0.25376665  0.12466570  0.25726178  1
  O  O371  1  0.24701327  0.11897356  0.75974123  1
  O  O372  1  0.26146049  0.61756879  0.24997616  1
  O  O373  1  0.25580141  0.61962906  0.75527352  1
  O  O374  1  0.74374524  0.11112887  0.25089072  1
  O  O375  1  0.75609855  0.11900142  0.75666668  1
  O  O376  1  0.76180632  0.61832499  0.25227854  1
  O  O377  1  0.75258325  0.61975215  0.76037676  1
  O  O378  1  0.36675243  0.11937107  0.37012586  1
  O  O379  1  0.36268633  0.11776452  0.87300466  1
  O  O380  1  0.37409366  0.61728494  0.36609903  1
  O  O381  1  0.36931659  0.61890896  0.86810943  1
  O  O382  1  0.87576870  0.11056744  0.38024247  1
  O  O383  1  0.86839886  0.11920683  0.87020053  1
  O  O384  1  0.87692518  0.62046807  0.36710302  1
  O  O385  1  0.86523095  0.61814891  0.87478216  1
  O  O386  1  0.12951913  0.37722236  0.13623173  1
  O  O387  1  0.12503252  0.38170863  0.63699668  1
  O  O388  1  0.13434458  0.88476830  0.11437608  1
  O  O389  1  0.12633965  0.88194977  0.63013404  1
  O  O390  1  0.63029789  0.38254646  0.13249398  1
  O  O391  1  0.63203853  0.38758958  0.62655200  1
  O  O392  1  0.63255640  0.87710005  0.13093622  1
  O  O393  1  0.63206382  0.88061630  0.62845131  1
  O  O394  1  0.11345348  0.26175069  0.24496097  1
  O  O395  1  0.11854308  0.26176292  0.74420604  1
  O  O396  1  0.13144199  0.74167858  0.26388534  1
  O  O397  1  0.11656019  0.75513727  0.75004814  1
  O  O398  1  0.61919009  0.25558793  0.25582475  1
  O  O399  1  0.61334312  0.25266371  0.75253045  1
  O  O400  1  0.62593221  0.75701689  0.25639474  1
  O  O401  1  0.61624363  0.75502156  0.74774942  1
  O  O402  1  0.37955701  0.24527359  0.24429997  1
  O  O403  1  0.38417400  0.24882232  0.74139756  1
  O  O404  1  0.37391643  0.74010566  0.24437846  1
  O  O405  1  0.38164690  0.74616629  0.74143920  1
  O  O406  1  0.88685524  0.25440030  0.24115870  1
  O  O407  1  0.88163423  0.24283938  0.74470834  1
  O  O408  1  0.86827976  0.73761444  0.24478550  1
  O  O409  1  0.88529853  0.75039795  0.74357686  1
  O  O410  1  0.38312582  0.50639889  0.49342432  1
  O  O411  1  0.37482696  0.49213216  0.99284558  1
  O  O412  1  0.38019237  0.99472112  0.49433144  1
  O  O413  1  0.37933381  0.99395434  0.99235923  1
  O  O414  1  0.88211301  0.49923301  0.49493174  1
  O  O415  1  0.88238102  0.49700506  0.99475017  1
  O  O416  1  0.87447692  0.99277451  0.48954561  1
  O  O417  1  0.87755500  0.99210206  0.99388956  1
  O  O418  1  0.12256673  0.01111337  0.01007096  1
  O  O419  1  0.12460946  0.01046674  0.50650921  1
  O  O420  1  0.11841756  0.50624419  0.00353907  1
  O  O421  1  0.12075365  0.50877574  0.50411578  1
  O  O422  1  0.61507161  0.00317687  0.00202164  1
  O  O423  1  0.62091266  0.00433364  0.50329853  1
  O  O424  1  0.62434319  0.50096914  0.01418406  1
  O  O425  1  0.61961382  0.50712027  0.50608067  1
  O  O426  1  0.36834475  0.36956336  0.12047799  1
  O  O427  1  0.37246325  0.36559753  0.62404386  1
  O  O428  1  0.36633262  0.87088995  0.11708576  1
  O  O429  1  0.37324035  0.86365166  0.61661742  1
  O  O430  1  0.86987448  0.36658117  0.12722317  1
  O  O431  1  0.86946026  0.36777124  0.62544856  1
  O  O432  1  0.87046320  0.86933807  0.12003398  1
  O  O433  1  0.87027150  0.87081210  0.61836630  1
  O  O434  1  0.13387584  0.11852851  0.38427244  1
  O  O435  1  0.13408608  0.11654022  0.88632787  1
  O  O436  1  0.12356112  0.63262422  0.38478114  1
  O  O437  1  0.13270113  0.62440305  0.88199786  1
  O  O438  1  0.62706316  0.13307078  0.38136244  1
  O  O439  1  0.63831845  0.12460246  0.87398932  1
  O  O440  1  0.62738274  0.63147926  0.38443096  1
  O  O441  1  0.63883000  0.62570952  0.87664023  1
