# generated using pymatgen
data_V93Zn93O256
_symmetry_space_group_name_H-M   'P 1'
_cell_length_a   17.05430089
_cell_length_b   17.05452973
_cell_length_c   17.05520168
_cell_angle_alpha   90.03071998
_cell_angle_beta   90.02763946
_cell_angle_gamma   90.06132644
_symmetry_Int_Tables_number   1
_chemical_formula_structural   V93Zn93O256
_chemical_formula_sum   'V93 Zn93 O256'
_cell_volume   4960.55383281
_cell_formula_units_Z   1
loop_
 _symmetry_equiv_pos_site_id
 _symmetry_equiv_pos_as_xyz
  1  'x, y, z'
loop_
 _atom_site_type_symbol
 _atom_site_label
 _atom_site_symmetry_multiplicity
 _atom_site_fract_x
 _atom_site_fract_y
 _atom_site_fract_z
 _atom_site_occupancy
  V  V0  1  0.87517505  0.87647713  0.50006192  1
  V  V1  1  0.50113670  0.62507097  0.62499032  1
  V  V2  1  0.74992989  0.75152187  0.49979879  1
  V  V3  1  0.12874373  -0.00813909  0.13173216  1
  V  V4  1  0.49916364  -0.00161238  0.00131558  1
  V  V5  1  0.12512764  0.00035515  0.62638154  1
  V  V6  1  0.74784284  0.37611935  0.12625440  1
  V  V7  1  0.50071615  0.62223914  0.12441904  1
  V  V8  1  0.37527720  0.24850062  0.12413268  1
  V  V9  1  0.62470608  -0.00039408  0.12581795  1
  V  V10  1  0.74818442  0.00667468  0.75462606  1
  V  V11  1  0.00550859  0.75446577  0.24856865  1
  V  V12  1  0.87449359  0.12464991  0.25103466  1
  V  V13  1  0.25163318  0.75048286  0.49928547  1
  V  V14  1  0.87609860  0.37624530  0.49958993  1
  V  V15  1  0.12386399  0.62599636  0.49935350  1
  V  V16  1  0.12420083  0.37495641  0.24991548  1
  V  V17  1  0.87443063  0.62717521  0.74959309  1
  V  V18  1  -0.00000253  0.75184300  0.74922500  1
  V  V19  1  0.50176526  0.24804731  0.75063551  1
  V  V20  1  0.25032776  0.12272828  0.37117224  1
  V  V21  1  -0.00034161  0.00076348  0.50024754  1
  V  V22  1  0.50242328  0.24962715  0.24992346  1
  V  V23  1  0.50163809  0.87187569  0.87546716  1
  V  V24  1  0.50202357  0.37513018  0.37583522  1
  V  V25  1  0.00410171  0.87540114  0.37312420  1
  V  V26  1  0.62572044  0.50089616  0.62547199  1
  V  V27  1  -0.00023078  0.87712268  0.87384320  1
  V  V28  1  0.62523870  0.87206919  0.75551086  1
  V  V29  1  0.87511848  0.24902741  0.12419119  1
  V  V30  1  0.37479023  0.74837316  0.12437534  1
  V  V31  1  0.75030281  0.37631846  0.62565408  1
  V  V32  1  0.74991456  0.62554191  0.37477611  1
  V  V33  1  0.62468243  0.62575473  0.50073511  1
  V  V34  1  0.37704049  0.49954308  0.87427106  1
  V  V35  1  0.75009600  0.24359898  -0.00418307  1
  V  V36  1  0.12725831  0.37720766  0.74728389  1
  V  V37  1  0.50012582  0.74947915  0.25042268  1
  V  V38  1  0.50053115  0.12321986  0.12532344  1
  V  V39  1  0.74302925  0.24643241  0.50116240  1
  V  V40  1  0.37666865  0.62592056  0.74960478  1
  V  V41  1  0.24953282  0.62492236  0.37419399  1
  V  V42  1  0.74364485  0.12538396  0.37922659  1
  V  V43  1  0.00081773  0.37920205  0.87729009  1
  V  V44  1  0.50310967  0.75085934  0.75371522  1
  V  V45  1  0.74901008  0.87750087  0.62579562  1
  V  V46  1  0.12420875  0.12553998  0.50073604  1
  V  V47  1  0.87560284  0.75024279  0.12424092  1
  V  V48  1  0.74515249  0.75096391  -0.00479592  1
  V  V49  1  0.62851532  0.24139682  0.87492866  1
  V  V50  1  0.37722910  0.12324456  0.74996496  1
  V  V51  1  0.37962607  0.88264533  0.50050770  1
  V  V52  1  0.50066679  0.88143484  0.37962443  1
  V  V53  1  0.62189401  0.00449966  0.61571575  1
  V  V54  1  0.25172145  0.37433416  0.12409006  1
  V  V55  1  0.24746538  0.74734516  -0.00036806  1
  V  V56  1  0.12427690  0.25052527  0.37551881  1
  V  V57  1  0.87494996  0.75180266  0.62479140  1
  V  V58  1  0.37348286  0.87361596  0.00237029  1
  V  V59  1  0.25096948  0.25331664  0.50186754  1
  V  V60  1  0.74786488  0.62827535  0.87420946  1
  V  V61  1  0.87531235  0.00119071  0.37498820  1
  V  V62  1  0.00133348  0.62556798  0.62371487  1
  V  V63  1  0.87955890  0.38020017  0.00023509  1
  V  V64  1  0.62398019  0.75055961  0.37532747  1
  V  V65  1  0.87292049  0.12644861  0.75205282  1
  V  V66  1  0.50241886  0.37408213  0.87640885  1
  V  V67  1  0.12622132  0.24866577  0.87540745  1
  V  V68  1  0.75025902  0.50167127  0.74942807  1
  V  V69  1  0.00050865  0.00024586  -0.00015519  1
  V  V70  1  0.62465646  0.62562423  -0.00456584  1
  V  V71  1  0.00092795  0.12386035  0.12480952  1
  V  V72  1  0.25011404  -0.00059019  0.75057817  1
  V  V73  1  0.74889200  0.87544199  0.12695467  1
  V  V74  1  0.87272172  0.00544919  0.87558414  1
  V  V75  1  0.37640350  0.24923302  0.62516496  1
  V  V76  1  0.37602750  0.75099682  0.62448857  1
  V  V77  1  0.24690174  0.49931020  0.24811651  1
  V  V78  1  0.12486675  0.74981862  0.87449971  1
  V  V79  1  0.25053294  0.62493348  0.87333058  1
  V  V80  1  -0.00062250  0.25110143  0.75082502  1
  V  V81  1  0.50412836  0.12220483  0.61135794  1
  V  V82  1  0.12751556  0.75439279  0.36980767  1
  V  V83  1  -0.00101990  0.12596236  0.62537665  1
  V  V84  1  0.12600690  0.87621199  0.74925373  1
  V  V85  1  0.87325720  0.62516861  0.25154154  1
  V  V86  1  -0.00054965  0.24973000  0.25050586  1
  V  V87  1  0.87410899  0.25125530  0.62630577  1
  V  V88  1  0.37503485  -0.00089004  0.87597029  1
  V  V89  1  0.25008083  0.12538607  0.87607955  1
  V  V90  1  0.87730072  0.50113722  0.87644922  1
  V  V91  1  -0.00145029  0.37638676  0.37616044  1
  V  V92  1  0.37578216  0.49971172  0.37694942  1
  Zn  Zn93  1  0.12698013  0.50051536  0.62267078  1
  Zn  Zn94  1  0.25061821  0.50088834  0.74639525  1
  Zn  Zn95  1  0.25162997  0.87593879  0.62398810  1
  Zn  Zn96  1  0.62358364  0.87494777  0.25228848  1
  Zn  Zn97  1  0.12695442  0.12522808  0.00113484  1
  Zn  Zn98  1  0.37465439  0.62398154  0.24913169  1
  Zn  Zn99  1  0.87355788  0.87596772  -0.00179844  1
  Zn  Zn100  1  0.10998550  0.61022019  -0.00707484  1
  Zn  Zn101  1  -0.00110274  0.61392272  0.11700598  1
  Zn  Zn102  1  0.24912654  -0.01551012  0.25783974  1
  Zn  Zn103  1  0.62707174  0.37718670  0.25109933  1
  Zn  Zn104  1  0.00042590  0.50145223  0.49918757  1
  Zn  Zn105  1  0.10623587  0.49036050  0.10435393  1
  Zn  Zn106  1  0.24982008  0.24909200  -0.00081245  1
  Zn  Zn107  1  0.75009766  0.00108109  0.25116386  1
  Zn  Zn108  1  0.74766341  0.49875043  0.25267192  1
  Zn  Zn109  1  0.37333578  0.11893442  0.24972076  1
  Zn  Zn110  1  0.62537137  0.49860683  0.12626821  1
  Zn  Zn111  1  0.87449203  0.50057054  0.37640682  1
  Zn  Zn112  1  0.37617943  0.37495637  -0.00006392  1
  Zn  Zn113  1  0.37704135  0.37602034  0.50398534  1
  Zn  Zn114  1  0.37922746  0.00224927  0.37494026  1
  Zn  Zn115  1  0.62877084  0.12101080  -0.00360131  1
  Zn  Zn116  1  0.50067727  0.49941713  0.50116805  1
  Zn  Zn117  1  0.24157794  0.86175654  0.13794914  1
  Zn  Zn118  1  0.50247831  0.49813007  0.00096227  1
  Zn  Zn119  1  0.25351160  0.37844400  0.62580461  1
  Zn  Zn120  1  0.62762913  0.37506817  0.75147560  1
  Zn  Zn121  1  0.62150410  0.24668739  0.37972176  1
  Zn  Zn122  1  0.18464818  0.18545093  0.18685827  1
  Zn  Zn123  1  0.18840179  0.18774543  0.68902941  1
  Zn  Zn124  1  0.18184901  0.67654865  0.18079683  1
  Zn  Zn125  1  0.18922576  0.68820854  0.68653829  1
  Zn  Zn126  1  0.68817919  0.18753300  0.18791815  1
  Zn  Zn127  1  0.68504742  0.18725710  0.68726706  1
  Zn  Zn128  1  0.68546065  0.68784941  0.18688198  1
  Zn  Zn129  1  0.68737710  0.68915235  0.68673164  1
  Zn  Zn130  1  0.31459284  0.31170945  0.31193281  1
  Zn  Zn131  1  0.31322104  0.31126625  0.81089234  1
  Zn  Zn132  1  0.31626916  0.81232028  0.31166381  1
  Zn  Zn133  1  0.31388177  0.81304086  0.81266659  1
  Zn  Zn134  1  0.81270852  0.31009910  0.31407887  1
  Zn  Zn135  1  0.81169932  0.31478338  0.81372958  1
  Zn  Zn136  1  0.81371061  0.81298902  0.31199955  1
  Zn  Zn137  1  0.81258016  0.81649063  0.81259923  1
  Zn  Zn138  1  0.18515852  0.43922196  0.43726687  1
  Zn  Zn139  1  0.19224480  0.43470518  0.93354255  1
  Zn  Zn140  1  0.18838543  0.93581394  0.43944920  1
  Zn  Zn141  1  0.18667587  0.93646583  0.94197578  1
  Zn  Zn142  1  0.68843368  0.43814899  0.43832378  1
  Zn  Zn143  1  0.68954438  0.43802692  0.93914925  1
  Zn  Zn144  1  0.68809621  0.93777870  0.43583776  1
  Zn  Zn145  1  0.68782834  0.93771840  0.93830806  1
  Zn  Zn146  1  0.31086615  0.06287543  0.06253123  1
  Zn  Zn147  1  0.31276174  0.06455544  0.56307750  1
  Zn  Zn148  1  0.31142617  0.56185145  0.05969791  1
  Zn  Zn149  1  0.31070768  0.56263201  0.56316032  1
  Zn  Zn150  1  0.81390065  0.06233450  0.06251161  1
  Zn  Zn151  1  0.81058677  0.06315473  0.56441336  1
  Zn  Zn152  1  0.81339128  0.56240006  0.06300664  1
  Zn  Zn153  1  0.81385601  0.56268529  0.56115613  1
  Zn  Zn154  1  0.43631872  0.43713964  0.19012982  1
  Zn  Zn155  1  0.43981316  0.43585867  0.68902330  1
  Zn  Zn156  1  0.43255347  0.93476439  0.19227524  1
  Zn  Zn157  1  0.43996393  0.93890488  0.68589886  1
  Zn  Zn158  1  0.93349673  0.43692686  0.19101353  1
  Zn  Zn159  1  0.93955874  0.44052358  0.68780512  1
  Zn  Zn160  1  0.93840714  0.93733857  0.18802701  1
  Zn  Zn161  1  0.93707371  0.93929274  0.68828128  1
  Zn  Zn162  1  0.06284174  0.06275749  0.31214541  1
  Zn  Zn163  1  0.06194322  0.06385384  0.81277591  1
  Zn  Zn164  1  0.05954346  0.56442835  0.30995488  1
  Zn  Zn165  1  0.06185522  0.56213357  0.81292870  1
  Zn  Zn166  1  0.56356385  0.06214866  0.30983248  1
  Zn  Zn167  1  0.56066143  0.05993004  0.80848842  1
  Zn  Zn168  1  0.56551674  0.56094476  0.30994212  1
  Zn  Zn169  1  0.56378543  0.56274276  0.81203269  1
  Zn  Zn170  1  0.43362388  0.18891327  0.43578951  1
  Zn  Zn171  1  0.43938687  0.18526392  0.93938744  1
  Zn  Zn172  1  0.43759625  0.68927249  0.43815105  1
  Zn  Zn173  1  0.43780555  0.68829258  0.93701505  1
  Zn  Zn174  1  0.93383709  0.18907784  0.43833771  1
  Zn  Zn175  1  0.93933579  0.18918628  0.93855604  1
  Zn  Zn176  1  0.93898309  0.68981653  0.43633289  1
  Zn  Zn177  1  0.93377240  0.68941908  0.93590584  1
  Zn  Zn178  1  0.06385385  0.31185570  0.06191883  1
  Zn  Zn179  1  0.06209643  0.31305399  0.56293884  1
  Zn  Zn180  1  0.05944815  0.81016601  0.05816232  1
  Zn  Zn181  1  0.06429914  0.81242828  0.56041002  1
  Zn  Zn182  1  0.56419230  0.31069507  0.05999762  1
  Zn  Zn183  1  0.56201144  0.31367041  0.56470555  1
  Zn  Zn184  1  0.56198412  0.81125081  0.06245993  1
  Zn  Zn185  1  0.56287372  0.81472022  0.56529251  1
  O  O186  1  0.11781500  0.11563780  0.12281580  1
  O  O187  1  0.11834558  0.12069300  0.62096153  1
  O  O188  1  0.12055241  0.61088739  0.11542901  1
  O  O189  1  0.11819426  0.62822986  0.61788360  1
  O  O190  1  0.62055180  0.11417415  0.12401926  1
  O  O191  1  0.61549862  0.11622333  0.63173684  1
  O  O192  1  0.61617574  0.62479189  0.11567070  1
  O  O193  1  0.62076235  0.62103252  0.62041955  1
  O  O194  1  0.38397843  0.38249959  0.37562074  1
  O  O195  1  0.38494962  0.38119230  0.87359428  1
  O  O196  1  0.38511774  0.87419527  0.38508906  1
  O  O197  1  0.38072810  0.88094942  0.88149316  1
  O  O198  1  0.88109345  0.37399788  0.38170943  1
  O  O199  1  0.87952449  0.38009787  0.88251059  1
  O  O200  1  0.88060426  0.88115210  0.38143360  1
  O  O201  1  0.88102396  0.88849487  0.87351280  1
  O  O202  1  0.24605467  0.01313088  0.37683519  1
  O  O203  1  0.25559413  0.00432732  0.87068062  1
  O  O204  1  0.25744523  0.50252242  0.36769662  1
  O  O205  1  0.26328917  0.50484445  0.86984837  1
  O  O206  1  0.75663275  0.00813260  0.37481537  1
  O  O207  1  0.75941659  -0.00515060  0.86525001  1
  O  O208  1  0.75293940  0.51008461  0.37425094  1
  O  O209  1  0.75617921  0.50682334  0.86862447  1
  O  O210  1  0.25963303  0.48801631  0.13566465  1
  O  O211  1  0.24634410  0.49620082  0.62878084  1
  O  O212  1  0.23452341  1.00006801  0.12432356  1
  O  O213  1  0.24277065  1.00083143  0.63233018  1
  O  O214  1  0.75190596  0.48635595  0.12586770  1
  O  O215  1  0.74586556  0.49670870  0.63010078  1
  O  O216  1  0.74280479  0.99173535  0.12318477  1
  O  O217  1  0.74455447  0.99642418  0.63547996  1
  O  O218  1  0.00396200  0.36740888  0.25638944  1
  O  O219  1  0.00662933  0.36922741  0.75542612  1
  O  O220  1  -0.00864297  0.86296603  0.25857774  1
  O  O221  1  0.00572776  0.87155123  0.75378879  1
  O  O222  1  0.49978830  0.36613589  0.25853231  1
  O  O223  1  0.50324395  0.36702148  0.76091043  1
  O  O224  1  0.50049642  0.86625942  0.26036132  1
  O  O225  1  0.50791295  0.87156282  0.75494063  1
  O  O226  1  0.49850993  0.13408029  0.24482961  1
  O  O227  1  0.49369803  0.13079547  0.74482954  1
  O  O228  1  0.49996091  0.62976984  0.23928818  1
  O  O229  1  0.49689362  0.63132912  0.74515151  1
  O  O230  1  0.99415013  0.13111952  0.24566166  1
  O  O231  1  0.99367825  0.13115964  0.74427368  1
  O  O232  1  0.98755649  0.63779881  0.24953306  1
  O  O233  1  0.99348916  0.63334397  0.74498901  1
  O  O234  1  0.37549638  0.25076778  0.01376699  1
  O  O235  1  0.36464873  0.25144581  0.50585434  1
  O  O236  1  0.36680054  0.75387744  0.00374851  1
  O  O237  1  0.37039490  0.75732017  0.50569129  1
  O  O238  1  0.86762607  0.25762359  0.00316932  1
  O  O239  1  0.86652250  0.25633546  0.50758648  1
  O  O240  1  0.86238421  0.75287747  0.01004029  1
  O  O241  1  0.86990464  0.75709438  0.50527531  1
  O  O242  1  0.13189075  0.24460885  0.49613393  1
  O  O243  1  0.12727457  0.24775481  0.99036136  1
  O  O244  1  0.13195153  0.74541976  0.49232110  1
  O  O245  1  0.13698853  0.75415832  0.99182964  1
  O  O246  1  0.63996084  0.25378380  0.50111601  1
  O  O247  1  0.63322395  0.24667549  0.99210062  1
  O  O248  1  0.63122210  0.74581047  0.49666219  1
  O  O249  1  0.63645877  0.74015143  1.00673420  1
  O  O250  1  0.49417135  0.24560706  0.13100643  1
  O  O251  1  0.49727549  0.24251308  0.63117093  1
  O  O252  1  0.49577461  0.74110574  0.12903750  1
  O  O253  1  0.49586760  0.74454356  0.63265786  1
  O  O254  1  0.99484888  0.24493364  0.13084723  1
  O  O255  1  0.99357249  0.24489753  0.63071096  1
  O  O256  1  0.98700637  0.75772230  0.13349956  1
  O  O257  1  0.99402107  0.74712340  0.63016125  1
  O  O258  1  0.00486346  0.25427797  0.37044737  1
  O  O259  1  0.00516504  0.25685725  0.86881598  1
  O  O260  1  0.00611620  0.75580931  0.36696006  1
  O  O261  1  0.00340233  0.75789031  0.86687967  1
  O  O262  1  0.49919303  0.25664576  0.36742322  1
  O  O263  1  0.50699935  0.25621221  0.87205347  1
  O  O264  1  0.50546898  0.75621758  0.36981650  1
  O  O265  1  0.49455322  0.75905973  0.86662748  1
  O  O266  1  0.24423906  0.13427284  0.49324027  1
  O  O267  1  0.24841863  0.12813660  0.99103017  1
  O  O268  1  0.24481884  0.63118150  0.49323573  1
  O  O269  1  0.25321946  0.63661995  0.99083261  1
  O  O270  1  0.75898113  0.13554864  0.49117602  1
  O  O271  1  0.75032136  0.13945557  1.00449085  1
  O  O272  1  0.74525403  0.63308210  0.49569378  1
  O  O273  1  0.74391181  0.63264977  0.99577282  1
  O  O274  1  0.25542367  0.37079497  0.01272711  1
  O  O275  1  0.24920717  0.36209275  0.49992214  1
  O  O276  1  0.25609815  0.86244571  0.00159449  1
  O  O277  1  0.26048228  0.86788145  0.50120240  1
  O  O278  1  0.75845820  0.36537050  0.00679141  1
  O  O279  1  0.75641315  0.36694432  0.50581817  1
  O  O280  1  0.74905907  0.86753780  0.00890990  1
  O  O281  1  0.75618538  0.87078354  0.50587035  1
  O  O282  1  0.13834957  0.49283898  0.25525096  1
  O  O283  1  0.12624911  0.48778566  0.75006478  1
  O  O284  1  0.12394547  1.00322754  0.23486741  1
  O  O285  1  0.12969870  0.99580369  0.74561106  1
  O  O286  1  0.63049795  0.49547454  0.24395199  1
  O  O287  1  0.63314032  0.50005991  0.74350165  1
  O  O288  1  0.62818121  0.99649217  0.23678477  1
  O  O289  1  0.63336533  0.99294858  0.74483287  1
  O  O290  1  0.36730807  0.00295446  0.25540142  1
  O  O291  1  0.37026272  0.00346163  0.75618356  1
  O  O292  1  0.36523935  0.49963954  0.26091461  1
  O  O293  1  0.37800120  0.50654023  0.75987597  1
  O  O294  1  0.87412586  0.00677068  0.25671619  1
  O  O295  1  0.86728131  0.00531345  0.75594383  1
  O  O296  1  0.86972877  0.51502563  0.25310932  1
  O  O297  1  0.86852597  0.50832859  0.75432986  1
  O  O298  1  0.11952139  0.36827397  0.36980961  1
  O  O299  1  0.12080613  0.36762661  0.86506920  1
  O  O300  1  0.11596096  0.86715591  0.38250542  1
  O  O301  1  0.11962358  0.87075906  0.86849891  1
  O  O302  1  0.61345164  0.37262483  0.37404961  1
  O  O303  1  0.61631448  0.36735528  0.87564256  1
  O  O304  1  0.61784388  0.86874171  0.37562714  1
  O  O305  1  0.61889500  0.88328464  0.86272255  1
  O  O306  1  0.38025653  0.13316079  0.12707685  1
  O  O307  1  0.38385361  0.12871426  0.63058160  1
  O  O308  1  0.38571735  0.62936993  0.12314880  1
  O  O309  1  0.38160855  0.63048209  0.62982220  1
  O  O310  1  0.88037881  0.12951813  0.13098430  1
  O  O311  1  0.88010078  0.13110700  0.63161042  1
  O  O312  1  0.87015426  0.63751566  0.13354376  1
  O  O313  1  0.87939504  0.63318692  0.63014394  1
  O  O314  1  0.25878194  0.25775091  0.12917688  1
  O  O315  1  0.25632258  0.24770683  0.61571651  1
  O  O316  1  0.25451009  0.74413939  0.11477942  1
  O  O317  1  0.25845410  0.75216608  0.61812255  1
  O  O318  1  0.75487117  0.25642510  0.11696650  1
  O  O319  1  0.75482988  0.25461549  0.62003266  1
  O  O320  1  0.75565106  0.75792216  0.11844800  1
  O  O321  1  0.75546303  0.75764277  0.61983865  1
  O  O322  1  0.24538223  0.24425986  0.38280760  1
  O  O323  1  0.24512246  0.24313800  0.87484267  1
  O  O324  1  0.24697917  0.74309430  0.37941994  1
  O  O325  1  0.24626792  0.74547875  0.88088068  1
  O  O326  1  0.74880204  0.24239480  0.38438732  1
  O  O327  1  0.73987077  0.25792402  0.88405174  1
  O  O328  1  0.74418988  0.74731827  0.38101420  1
  O  O329  1  0.75801143  0.74633072  0.88747759  1
  O  O330  1  -0.00031204  0.11835058  0.00753978  1
  O  O331  1  0.00388958  0.12107864  0.50558161  1
  O  O332  1  0.00207998  0.64325615  0.00654209  1
  O  O333  1  0.00594487  0.62798424  0.50583395  1
  O  O334  1  0.50239521  0.11580125  0.00798292  1
  O  O335  1  0.49620887  0.13111123  0.51255053  1
  O  O336  1  0.50908163  0.62698215  0.00667007  1
  O  O337  1  0.50714157  0.62509929  0.50712021  1
  O  O338  1  0.49840282  0.37613607  0.48878373  1
  O  O339  1  0.49795799  0.37601799  0.98913005  1
  O  O340  1  0.49134452  0.86719033  0.49116734  1
  O  O341  1  0.49479286  0.87869773  0.99551159  1
  O  O342  1  0.99390330  0.37399199  0.49364158  1
  O  O343  1  0.98567345  0.36643847  0.99441898  1
  O  O344  1  0.99374925  0.88115388  0.49491923  1
  O  O345  1  0.99542321  0.88143065  0.99116451  1
  O  O346  1  0.49171325  0.49274323  0.37386979  1
  O  O347  1  0.49450467  0.49103773  0.87445915  1
  O  O348  1  0.50245487  0.98515426  0.37002780  1
  O  O349  1  0.49409190  0.99356097  0.88084828  1
  O  O350  1  0.99688512  0.49142953  0.37521536  1
  O  O351  1  0.98838771  0.49177581  0.86672377  1
  O  O352  1  0.99552069  0.99656850  0.38134709  1
  O  O353  1  0.99266899  0.99621933  0.87858046  1
  O  O354  1  0.00743170  0.00328913  0.12048512  1
  O  O355  1  0.00413932  0.00657394  0.62007933  1
  O  O356  1  -0.00328293  0.50046725  0.12951105  1
  O  O357  1  0.00342814  0.51112009  0.62322956  1
  O  O358  1  0.50715712  0.00160063  0.12150367  1
  O  O359  1  0.51021909  0.01050010  0.63208003  1
  O  O360  1  0.49820773  0.51020049  0.12269496  1
  O  O361  1  0.50661461  0.50671141  0.62448243  1
  O  O362  1  0.24551312  0.37979016  0.24396211  1
  O  O363  1  0.23896656  0.37437133  0.74888092  1
  O  O364  1  0.24650440  0.87165034  0.24977992  1
  O  O365  1  0.24407348  0.88159597  0.74863370  1
  O  O366  1  0.75076889  0.37163112  0.23843899  1
  O  O367  1  0.75056758  0.38332232  0.74323764  1
  O  O368  1  0.74769454  0.87627993  0.23826459  1
  O  O369  1  0.74331574  0.88395380  0.74565743  1
  O  O370  1  0.24847795  0.12827114  0.26418004  1
  O  O371  1  0.25734766  0.11900724  0.75545461  1
  O  O372  1  0.25110215  0.61387701  0.25477691  1
  O  O373  1  0.25906489  0.62591699  0.75630120  1
  O  O374  1  0.75728132  0.12589690  0.25974693  1
  O  O375  1  0.75599862  0.11361305  0.74521358  1
  O  O376  1  0.75863594  0.63007476  0.25604049  1
  O  O377  1  0.75501566  0.62319360  0.75433036  1
  O  O378  1  0.36371990  0.12264836  0.37470733  1
  O  O379  1  0.37167235  0.11847178  0.86990468  1
  O  O380  1  0.36991797  0.61547419  0.37419539  1
  O  O381  1  0.37291755  0.61774631  0.86890413  1
  O  O382  1  0.86763775  0.12034205  0.37045194  1
  O  O383  1  0.88211209  0.11292061  0.86849642  1
  O  O384  1  0.86833043  0.62982843  0.36626826  1
  O  O385  1  0.86766402  0.62140467  0.86802071  1
  O  O386  1  0.13583669  0.37367148  0.13159708  1
  O  O387  1  0.12550375  0.37416414  0.63675472  1
  O  O388  1  0.12311533  0.88889822  0.11951681  1
  O  O389  1  0.12597982  0.88240025  0.63090610  1
  O  O390  1  0.63650929  0.37430985  0.12343529  1
  O  O391  1  0.63227199  0.38247221  0.62765188  1
  O  O392  1  0.63232524  0.88229532  0.12497288  1
  O  O393  1  0.62893903  0.88398344  0.63539638  1
  O  O394  1  0.11873461  0.25562035  0.25546927  1
  O  O395  1  0.11887969  0.25642645  0.75463874  1
  O  O396  1  0.11168473  0.74138570  0.25228098  1
  O  O397  1  0.11967693  0.75654479  0.75456952  1
  O  O398  1  0.61175949  0.25202247  0.25073642  1
  O  O399  1  0.62125760  0.25241969  0.75954207  1
  O  O400  1  0.61793294  0.75150495  0.25661389  1
  O  O401  1  0.62094030  0.76468930  0.74369357  1
  O  O402  1  0.38538418  0.24814927  0.24090028  1
  O  O403  1  0.38156502  0.24263069  0.74488551  1
  O  O404  1  0.38331465  0.74443564  0.24275766  1
  O  O405  1  0.38196798  0.74580822  0.74429920  1
  O  O406  1  0.88074863  0.24432906  0.24389610  1
  O  O407  1  0.87878930  0.24630964  0.74631608  1
  O  O408  1  0.88026166  0.74417004  0.24262749  1
  O  O409  1  0.87926553  0.74737910  0.74428307  1
  O  O410  1  0.37572000  0.49769477  0.48786506  1
  O  O411  1  0.37840801  0.49903519  0.98517051  1
  O  O412  1  0.36969776  0.98626013  0.49855626  1
  O  O413  1  0.37965344  0.99353811  0.99638041  1
  O  O414  1  0.87820545  0.49179977  0.49805577  1
  O  O415  1  0.86553686  0.48723158  0.99219901  1
  O  O416  1  0.88050658  0.99594481  0.49623956  1
  O  O417  1  0.87902046  0.99900866  0.99075019  1
  O  O418  1  0.11769737  0.00259906  0.00920910  1
  O  O419  1  0.11857652  0.00609694  0.50667424  1
  O  O420  1  0.12625294  0.49747811  -0.00677309  1
  O  O421  1  0.12207228  0.51036707  0.50050229  1
  O  O422  1  0.61978243  0.00037008  0.00928977  1
  O  O423  1  0.63269392  -0.00519987  0.51745573  1
  O  O424  1  0.62481609  0.51208154  0.00418820  1
  O  O425  1  0.62452392  0.50823641  0.50746556  1
  O  O426  1  0.36869015  0.36512928  0.12654675  1
  O  O427  1  0.37505384  0.36541361  0.62404710  1
  O  O428  1  0.37394400  0.86519172  0.11789676  1
  O  O429  1  0.37669263  0.86957542  0.61710323  1
  O  O430  1  0.86758730  0.36757929  0.11785534  1
  O  O431  1  0.87033239  0.36999709  0.62103700  1
  O  O432  1  0.86463467  0.86811658  0.12403848  1
  O  O433  1  0.86934302  0.87191283  0.62053438  1
  O  O434  1  0.13005611  0.13137342  0.38141140  1
  O  O435  1  0.13168897  0.13153640  0.87391180  1
  O  O436  1  0.13055099  0.63286108  0.37861183  1
  O  O437  1  0.13228881  0.63334525  0.87223385  1
  O  O438  1  0.63959885  0.12508345  0.37070854  1
  O  O439  1  0.61860201  0.13725438  0.87586563  1
  O  O440  1  0.62940747  0.63145408  0.38106789  1
  O  O441  1  0.63170547  0.62136757  0.88613240  1
