# generated using pymatgen
data_V93Zn93O256
_symmetry_space_group_name_H-M   'P 1'
_cell_length_a   17.04611526
_cell_length_b   17.04446556
_cell_length_c   17.04583241
_cell_angle_alpha   89.96302654
_cell_angle_beta   89.94079340
_cell_angle_gamma   90.03806597
_symmetry_Int_Tables_number   1
_chemical_formula_structural   V93Zn93O256
_chemical_formula_sum   'V93 Zn93 O256'
_cell_volume   4952.52418072
_cell_formula_units_Z   1
loop_
 _symmetry_equiv_pos_site_id
 _symmetry_equiv_pos_as_xyz
  1  'x, y, z'
loop_
 _atom_site_type_symbol
 _atom_site_label
 _atom_site_symmetry_multiplicity
 _atom_site_fract_x
 _atom_site_fract_y
 _atom_site_fract_z
 _atom_site_occupancy
  V  V0  1  0.87533896  0.49964389  0.87410547  1
  V  V1  1  0.75164104  0.62407134  0.87505458  1
  V  V2  1  0.50258936  0.75076591  0.75091739  1
  V  V3  1  0.12626782  -0.00683130  0.13163623  1
  V  V4  1  0.62207259  0.25021159  0.37595908  1
  V  V5  1  0.24790750  0.25731759  0.50487125  1
  V  V6  1  0.37420979  0.00040966  0.37655950  1
  V  V7  1  0.37627730  0.62344531  0.75006351  1
  V  V8  1  0.50062259  0.50001379  0.00086228  1
  V  V9  1  0.62628099  0.62424540  0.00042718  1
  V  V10  1  0.62572698  0.50049750  0.12501696  1
  V  V11  1  0.00370528  0.74908979  0.75031747  1
  V  V12  1  0.49517790  0.87459953  0.87962950  1
  V  V13  1  0.87470860  0.00379293  0.86711007  1
  V  V14  1  0.37593148  0.75027651  0.62495007  1
  V  V15  1  0.87452062  0.24684637  0.62568238  1
  V  V16  1  0.75150002  0.75058772  -0.00022253  1
  V  V17  1  0.74985334  0.87569736  0.12433178  1
  V  V18  1  0.25113163  0.62672720  0.37450445  1
  V  V19  1  0.37152729  0.12357346  0.25099506  1
  V  V20  1  0.62559096  0.62483895  0.50042904  1
  V  V21  1  0.12410362  0.12703118  0.50041681  1
  V  V22  1  0.25120051  0.12436713  0.87394912  1
  V  V23  1  0.24963452  0.87604666  0.62615608  1
  V  V24  1  0.49282825  -0.00409240  0.00117848  1
  V  V25  1  0.50179260  0.87511762  0.37558726  1
  V  V26  1  0.75090734  0.12593133  0.86848562  1
  V  V27  1  0.75419364  0.49898162  0.25499098  1
  V  V28  1  0.87367359  0.00086886  0.37379309  1
  V  V29  1  0.12794595  0.37415880  0.74329329  1
  V  V30  1  0.25100202  0.74966367  0.50003630  1
  V  V31  1  0.36956024  0.25566074  0.62638391  1
  V  V32  1  -0.00445777  0.12468286  0.62705243  1
  V  V33  1  -0.00035941  0.00081804  0.49937917  1
  V  V34  1  0.24931924  0.25025755  -0.00037935  1
  V  V35  1  0.74902408  0.12452976  0.37507723  1
  V  V36  1  0.62436747  0.37299107  0.75043143  1
  V  V37  1  0.62716051  0.87493882  0.25113127  1
  V  V38  1  0.37817039  0.62723573  0.24804227  1
  V  V39  1  0.62583872  0.75025238  0.37495178  1
  V  V40  1  0.75005665  0.37474029  0.62456406  1
  V  V41  1  0.49955911  0.24592571  0.74517142  1
  V  V42  1  0.87623398  0.75075411  0.62300862  1
  V  V43  1  0.25491777  0.75841833  0.00018904  1
  V  V44  1  -0.00479762  0.37757346  0.37419849  1
  V  V45  1  -0.00434984  0.24575136  0.74965440  1
  V  V46  1  0.37714206  0.12322169  0.74618949  1
  V  V47  1  0.12399727  0.37517470  0.24972591  1
  V  V48  1  -0.00060389  -0.00031090  -0.00108569  1
  V  V49  1  0.87681578  0.62352940  0.25324098  1
  V  V50  1  0.12508535  0.62486747  0.49865092  1
  V  V51  1  0.87376437  0.37790190  0.49570579  1
  V  V52  1  0.62554043  0.50046715  0.62504002  1
  V  V53  1  0.00481761  0.75296740  0.24787101  1
  V  V54  1  0.37533436  0.49959411  0.37566945  1
  V  V55  1  0.49853902  0.00385580  0.50629925  1
  V  V56  1  0.75171470  0.49872573  0.75058547  1
  V  V57  1  0.37432790  0.24922691  0.12616413  1
  V  V58  1  0.00257898  0.62380508  0.62330384  1
  V  V59  1  0.37504030  0.49948555  0.87549945  1
  V  V60  1  0.00064111  0.87455293  0.87420052  1
  V  V61  1  -0.00320779  0.12677881  0.12465212  1
  V  V62  1  0.50018950  0.37326172  0.87493346  1
  V  V63  1  -0.00143051  0.25078108  0.24889224  1
  V  V64  1  0.12425878  0.25012308  0.37575953  1
  V  V65  1  0.00569517  0.87644918  0.37101349  1
  V  V66  1  0.25073946  0.62536997  0.87542832  1
  V  V67  1  0.49761720  0.37421817  0.37755281  1
  V  V68  1  0.62363502  0.00006367  0.12586312  1
  V  V69  1  0.12473605  0.50027892  0.12341749  1
  V  V70  1  0.75172507  0.74970563  0.50045240  1
  V  V71  1  0.24962078  0.50057544  0.24963806  1
  V  V72  1  0.37468698  0.37567105  0.00124089  1
  V  V73  1  -0.00487522  0.50061399  0.49498132  1
  V  V74  1  0.61978873  0.12583809  0.50580471  1
  V  V75  1  -0.00001244  0.37438873  0.87336695  1
  V  V76  1  0.12671983  0.62464166  -0.00070234  1
  V  V77  1  0.12471769  0.12610721  -0.00067110  1
  V  V78  1  0.75194490  0.62275526  0.37464874  1
  V  V79  1  0.74969347  0.37319402  0.12447316  1
  V  V80  1  0.12506688  -0.00007397  0.62528935  1
  V  V81  1  0.50228314  0.62544282  0.62521880  1
  V  V82  1  0.12754831  0.75386675  0.37070096  1
  V  V83  1  0.62440941  -0.00042330  0.62751798  1
  V  V84  1  0.74855932  0.25113607  0.50053364  1
  V  V85  1  0.62618939  0.75113257  0.87472039  1
  V  V86  1  0.25022995  0.49509627  0.74314740  1
  V  V87  1  0.24965985  0.37489681  0.12514936  1
  V  V88  1  0.37723908  0.75741325  0.12133454  1
  V  V89  1  0.00131187  0.50060549  -0.00088947  1
  V  V90  1  0.87399137  0.37477315  0.00069341  1
  V  V91  1  0.49898222  0.12465739  0.12415930  1
  V  V92  1  0.87409967  0.87443878  -0.00070522  1
  Zn  Zn93  1  0.36878831  0.37979719  0.50577236  1
  Zn  Zn94  1  0.49833668  0.49963077  0.50150962  1
  Zn  Zn95  1  0.87717473  0.62332118  0.74966328  1
  Zn  Zn96  1  0.25051151  -0.00057706  0.75121382  1
  Zn  Zn97  1  0.12931143  0.49621559  0.62046976  1
  Zn  Zn98  1  0.74768575  0.24662747  0.00098960  1
  Zn  Zn99  1  0.87224067  0.24895471  0.12449721  1
  Zn  Zn100  1  0.24828554  0.12509651  0.37641311  1
  Zn  Zn101  1  0.62387758  0.37460501  0.25086942  1
  Zn  Zn102  1  0.50228447  0.74992217  0.24791836  1
  Zn  Zn103  1  0.75055060  0.87568597  0.62606989  1
  Zn  Zn104  1  -0.00000955  0.62638702  0.12420439  1
  Zn  Zn105  1  0.62507922  0.12632776  0.00089859  1
  Zn  Zn106  1  0.75013666  0.00137850  0.24836367  1
  Zn  Zn107  1  0.24184057  -0.00944389  0.25976137  1
  Zn  Zn108  1  0.25085628  0.87436723  0.13037786  1
  Zn  Zn109  1  0.62810714  0.87642123  0.75031786  1
  Zn  Zn110  1  0.12744479  0.75220181  0.87668218  1
  Zn  Zn111  1  0.62360627  0.24716406  0.87694927  1
  Zn  Zn112  1  0.87405999  0.87503851  0.49858105  1
  Zn  Zn113  1  0.75525120  0.00041387  0.74463615  1
  Zn  Zn114  1  0.50181980  0.62561711  0.12474886  1
  Zn  Zn115  1  0.37618229  0.87527890  0.50063163  1
  Zn  Zn116  1  0.49927634  0.25077023  0.25014434  1
  Zn  Zn117  1  0.12339979  0.24972472  0.87328782  1
  Zn  Zn118  1  0.12690757  0.87683073  0.75287537  1
  Zn  Zn119  1  0.87163116  0.12726436  0.24892172  1
  Zn  Zn120  1  0.37238566  -0.00516558  0.87783875  1
  Zn  Zn121  1  0.87686965  0.75077390  0.12496683  1
  Zn  Zn122  1  0.18656245  0.18405801  0.18828473  1
  Zn  Zn123  1  0.18575930  0.18766291  0.68709595  1
  Zn  Zn124  1  0.18920053  0.68824638  0.18444842  1
  Zn  Zn125  1  0.18782719  0.68530643  0.68702864  1
  Zn  Zn126  1  0.68408127  0.18682212  0.19120472  1
  Zn  Zn127  1  0.68764659  0.18581684  0.68895889  1
  Zn  Zn128  1  0.68935985  0.68829899  0.18686692  1
  Zn  Zn129  1  0.68982874  0.68686748  0.68917574  1
  Zn  Zn130  1  0.31096734  0.31157990  0.31523704  1
  Zn  Zn131  1  0.31258034  0.31163152  0.81335405  1
  Zn  Zn132  1  0.31271286  0.81585821  0.30841112  1
  Zn  Zn133  1  0.31405127  0.81055966  0.81134274  1
  Zn  Zn134  1  0.81290803  0.31081646  0.31204421  1
  Zn  Zn135  1  0.81372104  0.31180702  0.81216048  1
  Zn  Zn136  1  0.81506270  0.81213051  0.31135722  1
  Zn  Zn137  1  0.81269697  0.81558414  0.80960896  1
  Zn  Zn138  1  0.18426113  0.43850449  0.43527437  1
  Zn  Zn139  1  0.18677282  0.43692765  0.93270214  1
  Zn  Zn140  1  0.18742142  0.93719185  0.44126711  1
  Zn  Zn141  1  0.18505964  0.93870516  0.93997775  1
  Zn  Zn142  1  0.68502614  0.43785119  0.43737981  1
  Zn  Zn143  1  0.68659476  0.43606282  0.93732915  1
  Zn  Zn144  1  0.68882416  0.93614451  0.44064238  1
  Zn  Zn145  1  0.68405397  0.93995344  0.93844968  1
  Zn  Zn146  1  0.31114914  0.06256734  0.06222824  1
  Zn  Zn147  1  0.31052015  0.06793001  0.56384506  1
  Zn  Zn148  1  0.31224186  0.56558069  0.06291993  1
  Zn  Zn149  1  0.31467202  0.56434686  0.56171265  1
  Zn  Zn150  1  0.80986124  0.06031654  0.05585750  1
  Zn  Zn151  1  0.81093113  0.06412843  0.56079570  1
  Zn  Zn152  1  0.81463499  0.56279159  0.06543145  1
  Zn  Zn153  1  0.81395172  0.56373573  0.56310192  1
  Zn  Zn154  1  0.43879338  0.43772408  0.18926722  1
  Zn  Zn155  1  0.43873725  0.43612746  0.68808778  1
  Zn  Zn156  1  0.43884327  0.93722129  0.19118265  1
  Zn  Zn157  1  0.43836884  0.93604257  0.69111901  1
  Zn  Zn158  1  0.93640738  0.43866862  0.18600912  1
  Zn  Zn159  1  0.93919147  0.43539750  0.68432996  1
  Zn  Zn160  1  0.93688592  0.93790326  0.18768048  1
  Zn  Zn161  1  0.94050541  0.93432647  0.68692790  1
  Zn  Zn162  1  0.05944910  0.06616757  0.31220866  1
  Zn  Zn163  1  0.06424810  0.06190776  0.81110860  1
  Zn  Zn164  1  0.06319049  0.56455226  0.31283369  1
  Zn  Zn165  1  0.06548410  0.56259697  0.81220873  1
  Zn  Zn166  1  0.56084365  0.06291266  0.31297571  1
  Zn  Zn167  1  0.56196081  0.06258514  0.81558631  1
  Zn  Zn168  1  0.56433282  0.56005958  0.31315110  1
  Zn  Zn169  1  0.56432225  0.56182981  0.81321716  1
  Zn  Zn170  1  0.43492630  0.18854970  0.43999027  1
  Zn  Zn171  1  0.43746946  0.18577021  0.93684564  1
  Zn  Zn172  1  0.43919235  0.68802373  0.43812875  1
  Zn  Zn173  1  0.43839597  0.68697230  0.93830425  1
  Zn  Zn174  1  0.93636601  0.18906144  0.43836873  1
  Zn  Zn175  1  0.93304480  0.18891167  0.93786922  1
  Zn  Zn176  1  0.93822944  0.68755916  0.43459631  1
  Zn  Zn177  1  0.93791125  0.68666820  0.93661033  1
  Zn  Zn178  1  0.06234618  0.31250948  0.06099500  1
  Zn  Zn179  1  0.06052236  0.31348849  0.56296789  1
  Zn  Zn180  1  0.06333007  0.81070090  0.05982351  1
  Zn  Zn181  1  0.06337512  0.81376688  0.55883841  1
  Zn  Zn182  1  0.56405714  0.31019419  0.06170818  1
  Zn  Zn183  1  0.55873329  0.31286456  0.56394106  1
  Zn  Zn184  1  0.56252861  0.81236458  0.06280962  1
  Zn  Zn185  1  0.56324448  0.81508692  0.56137347  1
  O  O186  1  0.11491186  0.11832215  0.11895383  1
  O  O187  1  0.11720397  0.11964889  0.61940286  1
  O  O188  1  0.12526041  0.61662329  0.11769342  1
  O  O189  1  0.11966585  0.62388253  0.61582348  1
  O  O190  1  0.61605472  0.11778810  0.12705433  1
  O  O191  1  0.62952316  0.11771075  0.61231781  1
  O  O192  1  0.62586697  0.61846513  0.11812561  1
  O  O193  1  0.62148730  0.62019442  0.62059756  1
  O  O194  1  0.38174142  0.38083428  0.37606554  1
  O  O195  1  0.37951115  0.38019320  0.88178153  1
  O  O196  1  0.38138635  0.88600034  0.37755239  1
  O  O197  1  0.39027298  0.87542839  0.86884524  1
  O  O198  1  0.88223811  0.36927273  0.38355321  1
  O  O199  1  0.87969022  0.38088823  0.88051869  1
  O  O200  1  0.88471348  0.88404091  0.37598156  1
  O  O201  1  0.88078968  0.88276056  0.88034086  1
  O  O202  1  0.26134893  0.00266455  0.37970969  1
  O  O203  1  0.25241631  0.01043245  0.87598957  1
  O  O204  1  0.25415931  0.50649645  0.36858647  1
  O  O205  1  0.25665509  0.50558192  0.86652551  1
  O  O206  1  0.75909275  0.00470011  0.37697295  1
  O  O207  1  0.75726039  0.00862113  0.87467196  1
  O  O208  1  0.74347333  0.50539741  0.36265191  1
  O  O209  1  0.75549327  0.50355111  0.86986771  1
  O  O210  1  0.24533813  0.49407576  0.13009185  1
  O  O211  1  0.25107839  0.50526115  0.63941750  1
  O  O212  1  0.23297183  1.00036241  0.12052435  1
  O  O213  1  0.24527528  0.99093637  0.62346005  1
  O  O214  1  0.74546560  0.49200945  0.13280466  1
  O  O215  1  0.74571024  0.49441965  0.63040727  1
  O  O216  1  0.74251067  0.99353466  0.12468392  1
  O  O217  1  0.74014132  0.99954573  0.62424932  1
  O  O218  1  0.00474231  0.37160606  0.25357454  1
  O  O219  1  0.00780656  0.36749378  0.75381158  1
  O  O220  1  -0.00555471  0.86518749  0.25987316  1
  O  O221  1  0.00264749  0.86416995  0.75508368  1
  O  O222  1  0.50087545  0.37346993  0.26329544  1
  O  O223  1  0.50469410  0.36665960  0.75560067  1
  O  O224  1  0.50863324  0.87332456  0.25898281  1
  O  O225  1  0.50499283  0.86798389  0.75889708  1
  O  O226  1  0.48721716  0.12548058  0.24453210  1
  O  O227  1  0.48836260  0.13550461  0.75994260  1
  O  O228  1  0.48871006  0.62465636  0.25001242  1
  O  O229  1  0.49577898  0.62968304  0.74558661  1
  O  O230  1  0.99796586  0.13236235  0.23976907  1
  O  O231  1  1.00681944  0.13824113  0.74386743  1
  O  O232  1  0.99238214  0.63259105  0.25099977  1
  O  O233  1  1.00045241  0.63280556  0.74378011  1
  O  O234  1  0.36922923  0.25579121  0.00620984  1
  O  O235  1  0.36542592  0.24878031  0.50994498  1
  O  O236  1  0.36606544  0.74058061  0.01010305  1
  O  O237  1  0.36880127  0.75046397  0.50703843  1
  O  O238  1  0.87026288  0.26000675  0.00404418  1
  O  O239  1  0.86771543  0.25705878  0.50560161  1
  O  O240  1  0.86964024  0.75641637  0.00046045  1
  O  O241  1  0.87152309  0.74817704  0.50804879  1
  O  O242  1  0.12929356  0.24732246  0.49646905  1
  O  O243  1  0.13148056  0.24442726  0.99735577  1
  O  O244  1  0.13115356  0.74457638  0.49177879  1
  O  O245  1  0.13600411  0.74264807  0.99986740  1
  O  O246  1  0.62766771  0.24301851  0.49781512  1
  O  O247  1  0.62888269  0.24622181  0.99419143  1
  O  O248  1  0.63143892  0.74379154  0.49546341  1
  O  O249  1  0.63183696  0.74412092  0.99419419  1
  O  O250  1  0.49119608  0.24434490  0.12677555  1
  O  O251  1  0.49065363  0.25233484  0.63827130  1
  O  O252  1  0.49227955  0.74495251  0.12613375  1
  O  O253  1  0.49643629  0.74548427  0.63020704  1
  O  O254  1  1.00001999  0.24119146  0.12908913  1
  O  O255  1  0.99444620  0.24521828  0.63103769  1
  O  O256  1  1.00010265  0.74901964  0.13523337  1
  O  O257  1  0.99551200  0.74528484  0.62964128  1
  O  O258  1  0.00512207  0.25633180  0.36948126  1
  O  O259  1  -0.00134959  0.25459596  0.86559897  1
  O  O260  1  0.00607930  0.75817445  0.36825784  1
  O  O261  1  0.00019528  0.75469992  0.86512584  1
  O  O262  1  0.50273261  0.25838394  0.37621104  1
  O  O263  1  0.49772356  0.25644228  0.86439358  1
  O  O264  1  0.50778726  0.75711875  0.37510014  1
  O  O265  1  0.50554512  0.75574081  0.87188429  1
  O  O266  1  0.24122683  0.13668929  0.49914835  1
  O  O267  1  0.24626682  0.13073794  0.99242365  1
  O  O268  1  0.24538660  0.63035930  0.49419844  1
  O  O269  1  0.24563454  0.63116294  0.99380913  1
  O  O270  1  0.73956137  0.13204604  0.49417756  1
  O  O271  1  0.74658250  0.12627650  0.98765640  1
  O  O272  1  0.74563442  0.62910400  0.49443471  1
  O  O273  1  0.74632072  0.62930132  0.99464979  1
  O  O274  1  0.25478636  0.37097548  0.00484452  1
  O  O275  1  0.24872770  0.36214208  0.49456055  1
  O  O276  1  0.24613019  0.86167518  0.00345908  1
  O  O277  1  0.25250585  0.86846329  0.51052838  1
  O  O278  1  0.75522137  0.37694956  0.01019025  1
  O  O279  1  0.75304146  0.37062296  0.50506409  1
  O  O280  1  0.75425003  0.87005845  0.00368088  1
  O  O281  1  0.75393921  0.86457867  0.50340167  1
  O  O282  1  0.13019916  0.49530215  0.24489808  1
  O  O283  1  0.13390297  0.49253818  0.74837683  1
  O  O284  1  0.12336906  1.00783925  0.23486449  1
  O  O285  1  0.12852371  0.99748974  0.74040717  1
  O  O286  1  0.63658310  0.49961519  0.24331906  1
  O  O287  1  0.63133028  0.49361575  0.74465952  1
  O  O288  1  0.62521579  0.99311003  0.24453092  1
  O  O289  1  0.62027958  1.00356449  0.73472114  1
  O  O290  1  0.37636814  0.00796270  0.26147430  1
  O  O291  1  0.37366283  0.01128008  0.75212178  1
  O  O292  1  0.36887597  0.50844204  0.25426978  1
  O  O293  1  0.36911251  0.50303895  0.75539660  1
  O  O294  1  0.87488305  0.00348458  0.26290277  1
  O  O295  1  0.87786796  -0.00497982  0.76360613  1
  O  O296  1  0.86438332  0.50952243  0.24463390  1
  O  O297  1  0.86978553  0.49858160  0.75523831  1
  O  O298  1  0.11691772  0.36970016  0.36776827  1
  O  O299  1  0.11753819  0.37286587  0.86423425  1
  O  O300  1  0.11341006  0.87144892  0.37951791  1
  O  O301  1  0.11669318  0.87297950  0.87345961  1
  O  O302  1  0.61477938  0.36884970  0.37625999  1
  O  O303  1  0.61868601  0.37313838  0.86721687  1
  O  O304  1  0.62175760  0.87004556  0.37140135  1
  O  O305  1  0.61532015  0.86876748  0.87389633  1
  O  O306  1  0.37777212  0.12864363  0.13294269  1
  O  O307  1  0.36925659  0.13660512  0.63847837  1
  O  O308  1  0.37593098  0.63147821  0.13526658  1
  O  O309  1  0.38204983  0.63051702  0.63102052  1
  O  O310  1  0.88734005  0.12250725  0.12310788  1
  O  O311  1  0.88239652  0.13404187  0.61759088  1
  O  O312  1  0.87770977  0.62866741  0.13768230  1
  O  O313  1  0.88326812  0.63503923  0.62627393  1
  O  O314  1  0.25398699  0.25497740  0.12011629  1
  O  O315  1  0.25612445  0.24738340  0.61656779  1
  O  O316  1  0.25890475  0.75002490  0.11648546  1
  O  O317  1  0.25510341  0.75636127  0.62068305  1
  O  O318  1  0.74929646  0.26273512  0.12743107  1
  O  O319  1  0.75360502  0.25526128  0.62036213  1
  O  O320  1  0.75193581  0.75767323  0.11709662  1
  O  O321  1  0.76156508  0.74697463  0.61988556  1
  O  O322  1  0.24224489  0.24715225  0.38408209  1
  O  O323  1  0.24878318  0.24019183  0.88098310  1
  O  O324  1  0.24740193  0.74613040  0.37992641  1
  O  O325  1  0.25216826  0.74404423  0.88303758  1
  O  O326  1  0.74280452  0.24576679  0.38210013  1
  O  O327  1  0.75205008  0.23571255  0.87311076  1
  O  O328  1  0.74556263  0.74367923  0.38018503  1
  O  O329  1  0.74652744  0.74463029  0.87975106  1
  O  O330  1  0.00378113  0.12088870  0.00613980  1
  O  O331  1  0.00522940  0.12075222  0.50601153  1
  O  O332  1  0.00760448  0.61864085  0.00033756  1
  O  O333  1  0.00490388  0.61820683  0.50113296  1
  O  O334  1  0.50036757  0.11602271  0.00618738  1
  O  O335  1  0.50966003  0.11623641  0.49458886  1
  O  O336  1  0.50816555  0.61681951  -0.00032181  1
  O  O337  1  0.50781848  0.62412560  0.50743816  1
  O  O338  1  0.49528472  0.37665109  0.48979283  1
  O  O339  1  0.49355826  0.38053309  0.99552476  1
  O  O340  1  0.49820579  0.88604566  0.49362483  1
  O  O341  1  0.50460950  0.88275569  0.99096285  1
  O  O342  1  0.99490538  0.38255569  0.49507712  1
  O  O343  1  0.99526276  0.38054192  0.99370411  1
  O  O344  1  0.99760053  0.88161687  0.48872979  1
  O  O345  1  0.99463195  0.87938166  0.99345306  1
  O  O346  1  0.49460491  0.49154144  0.37698221  1
  O  O347  1  0.49453413  0.49365574  0.87978988  1
  O  O348  1  0.49278056  0.99603822  0.38500059  1
  O  O349  1  0.49974664  0.99178171  0.88408029  1
  O  O350  1  1.00615790  0.49447738  0.38683422  1
  O  O351  1  0.99512883  0.49454419  0.87912125  1
  O  O352  1  0.99407270  0.99472979  0.37817722  1
  O  O353  1  0.99388284  0.99669596  0.87926409  1
  O  O354  1  0.00738565  0.00757996  0.12059791  1
  O  O355  1  0.00374960  0.00431461  0.61910425  1
  O  O356  1  0.00752885  0.50053525  0.11723068  1
  O  O357  1  0.00261404  0.50567140  0.61361773  1
  O  O358  1  0.50283530  0.00358688  0.11912236  1
  O  O359  1  0.50609716  -0.00504778  0.61268779  1
  O  O360  1  0.50692760  0.50053127  0.11882215  1
  O  O361  1  0.50712932  0.50662390  0.62555218  1
  O  O362  1  0.24407375  0.38032921  0.24509342  1
  O  O363  1  0.24086036  0.38430562  0.75847207  1
  O  O364  1  0.24963362  0.87958266  0.24397122  1
  O  O365  1  0.24936484  0.87506490  0.73828890  1
  O  O366  1  0.75068654  0.38359038  0.24288534  1
  O  O367  1  0.74452403  0.37863487  0.74413019  1
  O  O368  1  0.74515475  0.87688276  0.24359948  1
  O  O369  1  0.74542405  0.88124396  0.74520447  1
  O  O370  1  0.26041870  0.11764742  0.25168755  1
  O  O371  1  0.25675021  0.12593411  0.75904476  1
  O  O372  1  0.25897096  0.62085343  0.25476257  1
  O  O373  1  0.25631392  0.61754483  0.75539525  1
  O  O374  1  0.75185238  0.12178559  0.25915419  1
  O  O375  1  0.74818721  0.12042419  0.76313508  1
  O  O376  1  0.75728387  0.61845995  0.25384497  1
  O  O377  1  0.75306369  0.61672868  0.75728233  1
  O  O378  1  0.37502827  0.11709677  0.36791932  1
  O  O379  1  0.36478376  0.12495313  0.86670910  1
  O  O380  1  0.37057889  0.62147342  0.36695933  1
  O  O381  1  0.37160839  0.61852088  0.86887187  1
  O  O382  1  0.86918414  0.11656704  0.37634007  1
  O  O383  1  0.86348380  0.11467814  0.88094549  1
  O  O384  1  0.86821529  0.63014444  0.36187184  1
  O  O385  1  0.86912919  0.61702966  0.87330429  1
  O  O386  1  0.13058338  0.38013710  0.13005632  1
  O  O387  1  0.12036605  0.37708479  0.63865707  1
  O  O388  1  0.12007015  0.89206721  0.12079432  1
  O  O389  1  0.13468420  0.88009074  0.62365974  1
  O  O390  1  0.63408025  0.38149779  0.12668556  1
  O  O391  1  0.63028150  0.37977917  0.63008863  1
  O  O392  1  0.63005269  0.87992291  0.13100079  1
  O  O393  1  0.62704319  0.88700758  0.62474166  1
  O  O394  1  0.11964983  0.25555030  0.25452444  1
  O  O395  1  0.11576046  0.25791003  0.75057151  1
  O  O396  1  0.11352070  0.74127367  0.25573065  1
  O  O397  1  0.11411489  0.75072354  0.75087364  1
  O  O398  1  0.61992228  0.25292972  0.26099318  1
  O  O399  1  0.61499811  0.25376811  0.75027948  1
  O  O400  1  0.62502717  0.75552928  0.25725636  1
  O  O401  1  0.61922047  0.74839376  0.75748312  1
  O  O402  1  0.37270910  0.23952237  0.24530803  1
  O  O403  1  0.37949142  0.24481251  0.74445535  1
  O  O404  1  0.37671908  0.73994439  0.24236273  1
  O  O405  1  0.38219492  0.74229406  0.74418149  1
  O  O406  1  0.88298067  0.24729766  0.24516133  1
  O  O407  1  0.88816073  0.25886257  0.74123217  1
  O  O408  1  0.88614167  0.74229922  0.24849004  1
  O  O409  1  0.88652132  0.74844165  0.74098611  1
  O  O410  1  0.37629104  0.49847196  0.49235734  1
  O  O411  1  0.37943593  0.49525749  0.99565762  1
  O  O412  1  0.38283964  1.00472968  0.49366039  1
  O  O413  1  0.38800458  1.00307290  1.00007651  1
  O  O414  1  0.88629156  0.49437048  0.50476863  1
  O  O415  1  0.88110634  0.49493863  0.99446532  1
  O  O416  1  0.88115400  0.99992449  0.48925847  1
  O  O417  1  0.88141654  0.99315606  0.98988640  1
  O  O418  1  0.11758065  0.00740076  0.00873710  1
  O  O419  1  0.11846241  0.00686596  0.50537640  1
  O  O420  1  0.12125911  0.50368490  0.00355230  1
  O  O421  1  0.11669288  0.50589651  0.50126192  1
  O  O422  1  0.61264733  0.00168569  0.00892030  1
  O  O423  1  0.61770559  0.00734794  0.50593980  1
  O  O424  1  0.62043337  0.50474436  0.00475478  1
  O  O425  1  0.62447895  0.50735244  0.50789122  1
  O  O426  1  0.36875395  0.37042353  0.12122695  1
  O  O427  1  0.37713502  0.36125523  0.62515631  1
  O  O428  1  0.37699089  0.86024120  0.13005229  1
  O  O429  1  0.36656635  0.86925699  0.62450693  1
  O  O430  1  0.86466301  0.37657451  0.11904695  1
  O  O431  1  0.86856267  0.36840076  0.61674073  1
  O  O432  1  0.86878181  0.87612025  0.11706604  1
  O  O433  1  0.87701198  0.86148544  0.62131275  1
  O  O434  1  0.12360995  0.13228203  0.38204172  1
  O  O435  1  0.13482363  0.12551703  0.88033087  1
  O  O436  1  0.13257090  0.63202419  0.37947982  1
  O  O437  1  0.13319137  0.62688347  0.88150139  1
  O  O438  1  0.62843268  0.12921612  0.38511415  1
  O  O439  1  0.63884314  0.12384370  0.87657837  1
  O  O440  1  0.63123816  0.63014788  0.38029806  1
  O  O441  1  0.63207414  0.62944932  0.88098260  1
