# generated using pymatgen
data_V93Zn93O256
_symmetry_space_group_name_H-M   'P 1'
_cell_length_a   17.05597483
_cell_length_b   17.05282934
_cell_length_c   17.05715354
_cell_angle_alpha   90.07024265
_cell_angle_beta   90.02444831
_cell_angle_gamma   89.97428947
_symmetry_Int_Tables_number   1
_chemical_formula_structural   V93Zn93O256
_chemical_formula_sum   'V93 Zn93 O256'
_cell_volume   4961.11325640
_cell_formula_units_Z   1
loop_
 _symmetry_equiv_pos_site_id
 _symmetry_equiv_pos_as_xyz
  1  'x, y, z'
loop_
 _atom_site_type_symbol
 _atom_site_label
 _atom_site_symmetry_multiplicity
 _atom_site_fract_x
 _atom_site_fract_y
 _atom_site_fract_z
 _atom_site_occupancy
  V  V0  1  0.37580154  0.00028596  0.87261879  1
  V  V1  1  0.87426102  0.74924233  0.62579079  1
  V  V2  1  0.37150134  0.62389099  0.24584225  1
  V  V3  1  0.10653201  0.85560879  0.23105161  1
  V  V4  1  0.62462025  0.74912060  0.87547724  1
  V  V5  1  0.12606814  0.12620483  0.49137776  1
  V  V6  1  -0.00104111  0.62387356  0.62413489  1
  V  V7  1  0.75045456  0.12588687  0.87594017  1
  V  V8  1  0.11008195  0.50182730  0.12238875  1
  V  V9  1  0.87960440  0.50134151  0.88640195  1
  V  V10  1  0.25158978  0.87658650  0.12242526  1
  V  V11  1  0.50100146  0.87493664  0.87282645  1
  V  V12  1  0.24717072  0.49852077  0.24797647  1
  V  V13  1  0.12651845  0.49757952  0.62719725  1
  V  V14  1  0.49889528  0.62574848  0.12282978  1
  V  V15  1  0.12605388  0.00237825  0.12272936  1
  V  V16  1  0.12416720  0.37235037  0.25083992  1
  V  V17  1  0.49975811  -0.00541882  0.49203658  1
  V  V18  1  0.75275578  0.75155859  0.00685665  1
  V  V19  1  0.12255191  0.74926796  0.37155491  1
  V  V20  1  0.62586668  -0.00135085  0.62583579  1
  V  V21  1  0.62741605  0.62313555  0.00021368  1
  V  V22  1  0.37565663  0.87450291  -0.00256381  1
  V  V23  1  0.00028755  0.75030297  0.74981672  1
  V  V24  1  0.50062930  0.74966216  0.74995513  1
  V  V25  1  0.24679873  0.24773708  0.49114479  1
  V  V26  1  0.37346461  0.12440796  0.25139248  1
  V  V27  1  0.87413313  0.87316966  0.50341651  1
  V  V28  1  0.00159854  0.00061194  0.50078928  1
  V  V29  1  0.00259235  0.25150585  0.75106359  1
  V  V30  1  0.62469107  0.37360355  0.75270239  1
  V  V31  1  0.25027961  0.12593197  0.87342056  1
  V  V32  1  0.24708054  0.62346838  0.37318180  1
  V  V33  1  0.00060734  0.12464778  0.12492578  1
  V  V34  1  0.87235560  0.49896533  0.36612517  1
  V  V35  1  -0.00027503  0.00205308  -0.00160215  1
  V  V36  1  0.37600590  0.37525247  0.49754064  1
  V  V37  1  0.74882714  0.38083354  0.13236916  1
  V  V38  1  0.49897897  0.12444315  0.62466834  1
  V  V39  1  0.62851792  0.50317803  0.13749715  1
  V  V40  1  0.12640570  -0.00060897  0.62209545  1
  V  V41  1  0.37283124  0.49919758  0.37393172  1
  V  V42  1  0.11207535  0.62415767  0.00248863  1
  V  V43  1  -0.00027408  0.49877229  0.49966780  1
  V  V44  1  0.24974207  0.75039642  -0.00245000  1
  V  V45  1  0.37387339  0.62365963  0.75044783  1
  V  V46  1  0.87418798  0.25033329  0.12585391  1
  V  V47  1  0.12530220  0.87393235  0.74866751  1
  V  V48  1  0.00523509  0.36942542  0.37536538  1
  V  V49  1  0.62645660  -0.00437824  0.12604565  1
  V  V50  1  0.74989504  0.37454909  0.62670607  1
  V  V51  1  0.87833935  0.64147556  0.24628995  1
  V  V52  1  0.25113401  -0.00018053  0.74833534  1
  V  V53  1  0.24821472  0.62411558  0.87539040  1
  V  V54  1  0.74998527  -0.00069203  0.74947733  1
  V  V55  1  0.87339212  0.62227677  0.75178347  1
  V  V56  1  0.50066146  0.62284569  0.62536989  1
  V  V57  1  0.24851606  0.37641894  0.12413140  1
  V  V58  1  0.62540584  0.12546634  0.50036412  1
  V  V59  1  0.37499830  0.74878008  0.12288480  1
  V  V60  1  0.87329938  0.87360501  0.00437493  1
  V  V61  1  0.87538883  0.00092223  0.87498116  1
  V  V62  1  0.37472261  0.24911950  0.62356095  1
  V  V63  1  0.37504034  0.74804951  0.62412172  1
  V  V64  1  0.62519961  0.25120839  0.87605021  1
  V  V65  1  0.00074551  0.37788832  0.88331309  1
  V  V66  1  0.62572833  0.12582172  0.00021390  1
  V  V67  1  0.62278836  0.25283958  0.37218992  1
  V  V68  1  0.25015704  0.87395879  0.62257131  1
  V  V69  1  -0.00052204  0.86928667  0.37068795  1
  V  V70  1  0.24692948  -0.00367444  0.24822942  1
  V  V71  1  0.87659697  0.12464847  0.25083736  1
  V  V72  1  0.87586993  0.12596064  0.75021579  1
  V  V73  1  0.75041582  0.62142839  0.37091388  1
  V  V74  1  0.74916113  -0.00347572  0.25027739  1
  V  V75  1  0.50116990  0.00002645  -0.00155026  1
  V  V76  1  0.37436407  0.49897741  0.87518556  1
  V  V77  1  0.12391855  0.62464527  0.49874209  1
  V  V78  1  0.75129884  0.12585658  0.37594300  1
  V  V79  1  0.62476702  0.49825394  0.62748271  1
  V  V80  1  0.49984865  0.12801866  0.12659940  1
  V  V81  1  0.75126806  0.25019103  0.50050424  1
  V  V82  1  0.24958151  0.24974063  -0.00091722  1
  V  V83  1  0.87595378  0.37506005  0.50075041  1
  V  V84  1  0.87516621  -0.00081172  0.37630009  1
  V  V85  1  0.37531851  0.37676802  -0.00009167  1
  V  V86  1  0.75168372  0.25159918  0.00245130  1
  V  V87  1  0.00440274  0.24830334  0.25282595  1
  V  V88  1  0.12473020  0.74971446  0.87262667  1
  V  V89  1  0.62834922  0.62431486  0.50183498  1
  V  V90  1  0.37793582  0.87381900  0.49109786  1
  V  V91  1  0.24975869  0.74905164  0.49869155  1
  V  V92  1  0.87572540  0.25021414  0.62638576  1
  Zn  Zn93  1  0.75075954  0.49890748  0.75408908  1
  Zn  Zn94  1  0.60659821  0.88121690  0.27088030  1
  Zn  Zn95  1  0.49879333  0.24886771  0.75279209  1
  Zn  Zn96  1  0.62477613  0.38247421  0.25383728  1
  Zn  Zn97  1  0.62062341  0.75536998  0.37530297  1
  Zn  Zn98  1  0.37506270  0.12542719  0.74802827  1
  Zn  Zn99  1  0.37798824  -0.00828207  0.36712152  1
  Zn  Zn100  1  0.75156860  0.62359208  0.87755299  1
  Zn  Zn101  1  0.24760077  0.12245136  0.37023363  1
  Zn  Zn102  1  0.12728926  0.37519572  0.75214454  1
  Zn  Zn103  1  0.00247287  0.12597887  0.62462471  1
  Zn  Zn104  1  0.87877112  0.38161750  0.00654003  1
  Zn  Zn105  1  0.74893205  0.87274103  0.62801629  1
  Zn  Zn106  1  0.37594468  0.25340794  0.12696304  1
  Zn  Zn107  1  0.50024195  0.37297314  0.87594292  1
  Zn  Zn108  1  0.49953846  0.49969724  0.49865881  1
  Zn  Zn109  1  0.74875021  0.74911047  0.50152462  1
  Zn  Zn110  1  0.12438222  0.12604472  -0.00168677  1
  Zn  Zn111  1  0.00875803  0.67092776  0.14784456  1
  Zn  Zn112  1  -0.00059335  0.87695504  0.87304959  1
  Zn  Zn113  1  0.24921230  0.37302569  0.62649222  1
  Zn  Zn114  1  0.24930991  0.49643175  0.74928026  1
  Zn  Zn115  1  0.49763966  0.76059015  0.25811862  1
  Zn  Zn116  1  0.62705097  0.87328655  0.74825315  1
  Zn  Zn117  1  0.75160566  0.86887192  0.13115550  1
  Zn  Zn118  1  0.50195386  0.38185843  0.37030724  1
  Zn  Zn119  1  0.12650570  0.25298690  0.87281304  1
  Zn  Zn120  1  0.50438562  0.49673875  -0.00087060  1
  Zn  Zn121  1  0.49796344  0.25504513  0.25119235  1
  Zn  Zn122  1  0.18768243  0.18858684  0.18652243  1
  Zn  Zn123  1  0.18752679  0.18562667  0.68249534  1
  Zn  Zn124  1  0.18910891  0.68616745  0.18288048  1
  Zn  Zn125  1  0.18823559  0.68486260  0.68690584  1
  Zn  Zn126  1  0.68881013  0.18732797  0.18857153  1
  Zn  Zn127  1  0.68767202  0.18749530  0.68851033  1
  Zn  Zn128  1  0.68634888  0.69075077  0.19495776  1
  Zn  Zn129  1  0.68918956  0.68807138  0.68713041  1
  Zn  Zn130  1  0.31248201  0.31147674  0.31097553  1
  Zn  Zn131  1  0.31115384  0.31377474  0.80912256  1
  Zn  Zn132  1  0.30690342  0.80969015  0.30736970  1
  Zn  Zn133  1  0.31275094  0.81184211  0.81114976  1
  Zn  Zn134  1  0.81360247  0.31267839  0.31219954  1
  Zn  Zn135  1  0.81463307  0.31464122  0.81581971  1
  Zn  Zn136  1  0.80493361  0.81048239  0.31953319  1
  Zn  Zn137  1  0.81056887  0.81246418  0.81688793  1
  Zn  Zn138  1  0.18857818  0.43581112  0.43938311  1
  Zn  Zn139  1  0.18386846  0.44026263  0.93874148  1
  Zn  Zn140  1  0.18698224  0.93607640  0.43090784  1
  Zn  Zn141  1  0.18663099  0.93852524  0.93576873  1
  Zn  Zn142  1  0.68881295  0.43946434  0.43899001  1
  Zn  Zn143  1  0.69467226  0.43866789  0.93985829  1
  Zn  Zn144  1  0.68793897  0.93806000  0.44044741  1
  Zn  Zn145  1  0.68818882  0.93619136  0.93642716  1
  Zn  Zn146  1  0.31474605  0.06283853  0.06188751  1
  Zn  Zn147  1  0.31247391  0.06098070  0.55809452  1
  Zn  Zn148  1  0.30543857  0.56143386  0.06034413  1
  Zn  Zn149  1  0.31084831  0.56206162  0.56165243  1
  Zn  Zn150  1  0.81321129  0.06231239  0.06294298  1
  Zn  Zn151  1  0.81339469  0.06251799  0.56485258  1
  Zn  Zn152  1  0.81438007  0.56718664  0.07035625  1
  Zn  Zn153  1  0.81123327  0.55856586  0.56281725  1
  Zn  Zn154  1  0.44174691  0.44015008  0.18696516  1
  Zn  Zn155  1  0.43886485  0.43598047  0.68763279  1
  Zn  Zn156  1  0.43658025  0.93810775  0.18526520  1
  Zn  Zn157  1  0.43726844  0.93555747  0.68411382  1
  Zn  Zn158  1  0.93485314  0.43603092  0.19111755  1
  Zn  Zn159  1  0.93910446  0.43712541  0.69150061  1
  Zn  Zn160  1  0.93600556  0.93760910  0.18456621  1
  Zn  Zn161  1  0.93923388  0.93877285  0.68759729  1
  Zn  Zn162  1  0.06266830  0.05399309  0.30987145  1
  Zn  Zn163  1  0.06413039  0.06338488  0.81159231  1
  Zn  Zn164  1  0.05864942  0.55972589  0.31085186  1
  Zn  Zn165  1  0.05986318  0.56165648  0.81338712  1
  Zn  Zn166  1  0.56353921  0.06582503  0.31200630  1
  Zn  Zn167  1  0.56430187  0.06290083  0.81064018  1
  Zn  Zn168  1  0.54731481  0.58848256  0.32532239  1
  Zn  Zn169  1  0.56077199  0.56066688  0.81372775  1
  Zn  Zn170  1  0.43779291  0.18586726  0.43612182  1
  Zn  Zn171  1  0.43754599  0.18857524  0.93772959  1
  Zn  Zn172  1  0.43736526  0.68584342  0.43766251  1
  Zn  Zn173  1  0.43860502  0.68680385  0.93683341  1
  Zn  Zn174  1  0.93900281  0.18679076  0.43863426  1
  Zn  Zn175  1  0.93724810  0.19012130  0.93839953  1
  Zn  Zn176  1  0.93592624  0.68676501  0.43619327  1
  Zn  Zn177  1  0.93680882  0.69146618  0.93678217  1
  Zn  Zn178  1  0.06399344  0.31061793  0.06495930  1
  Zn  Zn179  1  0.06365493  0.31073556  0.56266049  1
  Zn  Zn180  1  0.06217829  0.81671985  0.05414304  1
  Zn  Zn181  1  0.06099112  0.81100102  0.56084318  1
  Zn  Zn182  1  0.56514097  0.31521486  0.06345165  1
  Zn  Zn183  1  0.56173837  0.31341803  0.56057705  1
  Zn  Zn184  1  0.56198234  0.81103401  0.06355430  1
  Zn  Zn185  1  0.56268403  0.81196189  0.56212215  1
  O  O186  1  0.11857655  0.11915466  0.12280588  1
  O  O187  1  0.12499827  0.11621569  0.61241883  1
  O  O188  1  0.11970572  0.61902739  0.12044581  1
  O  O189  1  0.11887424  0.61827661  0.61838278  1
  O  O190  1  0.61847418  0.11654446  0.12138535  1
  O  O191  1  0.61725422  0.12157218  0.61951383  1
  O  O192  1  0.61909627  0.62117432  0.11818823  1
  O  O193  1  0.62182606  0.61838249  0.62070357  1
  O  O194  1  0.37372812  0.38018093  0.38317770  1
  O  O195  1  0.37393313  0.38245120  0.88279501  1
  O  O196  1  0.36912454  0.87000329  0.38793092  1
  O  O197  1  0.38058720  0.88018323  0.87869880  1
  O  O198  1  0.88172401  0.38115284  0.37990455  1
  O  O199  1  0.88197629  0.38442127  0.87928985  1
  O  O200  1  0.88057701  0.87865804  0.38457375  1
  O  O201  1  0.87532947  0.88352864  0.88478698  1
  O  O202  1  0.25403803  -0.00030087  0.36273724  1
  O  O203  1  0.25613179  0.00724947  0.86950747  1
  O  O204  1  0.25215068  0.50389516  0.36794496  1
  O  O205  1  0.25912145  0.50570187  0.87486667  1
  O  O206  1  0.75527983  0.00674998  0.36892232  1
  O  O207  1  0.75477045  0.00742080  0.87018991  1
  O  O208  1  0.76341619  0.50751414  0.38336034  1
  O  O209  1  0.76331174  0.50353253  0.87240594  1
  O  O210  1  0.23939163  0.49509129  0.12998882  1
  O  O211  1  0.23764689  0.50002291  0.62475436  1
  O  O212  1  0.24657807  0.99629618  0.12799355  1
  O  O213  1  0.24654092  0.99352713  0.62858745  1
  O  O214  1  0.74159390  0.49139248  0.11982732  1
  O  O215  1  0.74375824  0.49122111  0.62975357  1
  O  O216  1  0.74139994  1.00321567  0.13452172  1
  O  O217  1  0.74371220  1.00006554  0.63166038  1
  O  O218  1  0.00381554  0.36888244  0.25856243  1
  O  O219  1  0.00012582  0.36473792  0.76006268  1
  O  O220  1  -0.00165592  0.88484756  0.26492873  1
  O  O221  1  0.00761983  0.86851347  0.75011168  1
  O  O222  1  0.50542826  0.37183588  0.25246753  1
  O  O223  1  0.51295220  0.37133745  0.75180126  1
  O  O224  1  0.49442097  0.87399903  0.25191476  1
  O  O225  1  0.50038415  0.86765305  0.75506625  1
  O  O226  1  0.49212711  0.12430176  0.24060823  1
  O  O227  1  0.49844177  0.12584604  0.73590578  1
  O  O228  1  0.48875610  0.61987344  0.22958743  1
  O  O229  1  0.49364185  0.63000431  0.74549717  1
  O  O230  1  0.99586719  0.12731764  0.24578952  1
  O  O231  1  0.99498477  0.13498565  0.74944429  1
  O  O232  1  0.98479614  0.62670504  0.25526902  1
  O  O233  1  0.99145919  0.63018506  0.74422680  1
  O  O234  1  0.36591501  0.25942421  0.00050701  1
  O  O235  1  0.36882172  0.25529105  0.50466204  1
  O  O236  1  0.36936673  0.75498225  0.00206956  1
  O  O237  1  0.37082858  0.75434250  0.50427459  1
  O  O238  1  0.86808011  0.25034082  0.00947072  1
  O  O239  1  0.87078659  0.25512612  0.50595483  1
  O  O240  1  0.86460025  0.76088854  -0.00661630  1
  O  O241  1  0.87716734  0.75880544  0.50682351  1
  O  O242  1  0.13552021  0.23888320  0.50750074  1
  O  O243  1  0.13942422  0.24888960  0.99747195  1
  O  O244  1  0.12994149  0.74424137  0.49288974  1
  O  O245  1  0.13182035  0.74492982  0.99159919  1
  O  O246  1  0.63160449  0.24578480  0.49294867  1
  O  O247  1  0.63129755  0.24491147  0.99624979  1
  O  O248  1  0.62544970  0.73337834  0.50269096  1
  O  O249  1  0.63046153  0.74156090  0.99571019  1
  O  O250  1  0.50126400  0.23715379  0.12477283  1
  O  O251  1  0.49185924  0.23984318  0.62061856  1
  O  O252  1  0.49204230  0.73935566  0.12150661  1
  O  O253  1  0.49384822  0.74308001  0.63041553  1
  O  O254  1  0.99425931  0.24432798  0.13190672  1
  O  O255  1  0.99399480  0.25050081  0.63485201  1
  O  O256  1  1.03351181  0.78038565  0.15459236  1
  O  O257  1  0.99497750  0.74279416  0.62994288  1
  O  O258  1  -0.00687184  0.26231390  0.36981151  1
  O  O259  1  0.00087043  0.25685332  0.86616380  1
  O  O260  1  0.00668918  0.76163716  0.38251736  1
  O  O261  1  0.00761019  0.75261319  0.86666962  1
  O  O262  1  0.51288041  0.25056845  0.37636768  1
  O  O263  1  0.50834669  0.25138017  0.87305507  1
  O  O264  1  0.51378072  0.70555120  0.35984206  1
  O  O265  1  0.50419648  0.75498684  0.86979493  1
  O  O266  1  0.24354880  0.12980744  0.49547009  1
  O  O267  1  0.25312387  0.13341941  0.99130466  1
  O  O268  1  0.24370009  0.62983723  0.49331390  1
  O  O269  1  0.23946696  0.63229840  0.99451403  1
  O  O270  1  0.74604004  0.13021824  0.49534888  1
  O  O271  1  0.74463495  0.13036795  0.99584691  1
  O  O272  1  0.74330768  0.62383625  0.49603769  1
  O  O273  1  0.74231298  0.63355449  1.00187034  1
  O  O274  1  0.25661477  0.36889008  0.00267732  1
  O  O275  1  0.25801865  0.36531450  0.50196231  1
  O  O276  1  0.25654277  0.87065967  0.00179334  1
  O  O277  1  0.25649205  0.86895973  0.50380859  1
  O  O278  1  0.75298493  0.36841978  0.01264874  1
  O  O279  1  0.75657621  0.36904339  0.50670107  1
  O  O280  1  0.75627398  0.86857168  0.00099150  1
  O  O281  1  0.76605301  0.87513466  0.50307404  1
  O  O282  1  0.12829006  0.49386248  0.24186177  1
  O  O283  1  0.12399477  0.50167123  0.73755343  1
  O  O284  1  0.12788081  0.98834938  0.23941097  1
  O  O285  1  0.13159578  0.99443772  0.74326776  1
  O  O286  1  0.62052814  0.50772254  0.23748924  1
  O  O287  1  0.62661834  0.49004813  0.74737115  1
  O  O288  1  0.63313113  1.00118818  0.24352468  1
  O  O289  1  0.63183927  0.99899603  0.74344643  1
  O  O290  1  0.36682162  0.00857750  0.24702913  1
  O  O291  1  0.36884354  0.00054365  0.75458849  1
  O  O292  1  0.36627714  0.50442903  0.25264886  1
  O  O293  1  0.37476254  0.50441143  0.75942694  1
  O  O294  1  0.86788352  0.00601781  0.25571602  1
  O  O295  1  0.87111587  0.00639378  0.75484630  1
  O  O296  1  0.87873046  0.50547393  0.26373707  1
  O  O297  1  0.87583890  0.50994955  0.75760505  1
  O  O298  1  0.11200090  0.38319023  0.36912303  1
  O  O299  1  0.11557183  0.37464999  0.87304467  1
  O  O300  1  0.11478967  0.86799687  0.36652891  1
  O  O301  1  0.12558649  0.86825564  0.86621252  1
  O  O302  1  0.62605815  0.36675007  0.37493702  1
  O  O303  1  0.62638350  0.37098624  0.86890858  1
  O  O304  1  0.62745180  0.86890944  0.38183299  1
  O  O305  1  0.61733765  0.86789312  0.87414796  1
  O  O306  1  0.38484586  0.12525800  0.13188155  1
  O  O307  1  0.38294184  0.13182716  0.62164905  1
  O  O308  1  0.37933131  0.62765795  0.12374859  1
  O  O309  1  0.37918810  0.62880266  0.62942844  1
  O  O310  1  0.88059866  0.12944470  0.13175672  1
  O  O311  1  0.87773793  0.13250093  0.63196276  1
  O  O312  1  0.87866748  0.62668118  0.14341014  1
  O  O313  1  0.87986626  0.62726213  0.63272001  1
  O  O314  1  0.25206260  0.25679143  0.11425719  1
  O  O315  1  0.26153593  0.24743802  0.61383896  1
  O  O316  1  0.25564737  0.75543529  0.11601218  1
  O  O317  1  0.25518893  0.75293584  0.61807330  1
  O  O318  1  0.75414990  0.25619350  0.12156390  1
  O  O319  1  0.75557242  0.25456887  0.61977920  1
  O  O320  1  0.74182860  0.75261147  0.11103903  1
  O  O321  1  0.75911420  0.75269777  0.62214552  1
  O  O322  1  0.25490699  0.24558583  0.38758585  1
  O  O323  1  0.25158706  0.24247814  0.88130400  1
  O  O324  1  0.24360579  0.74276188  0.38152984  1
  O  O325  1  0.24499902  0.74368407  0.87795960  1
  O  O326  1  0.74450567  0.24542729  0.38099190  1
  O  O327  1  0.74586785  0.24499173  0.88185808  1
  O  O328  1  0.74698842  0.73393428  0.38332726  1
  O  O329  1  0.74247896  0.74636431  0.88662754  1
  O  O330  1  0.00136583  0.12085393  0.00654924  1
  O  O331  1  0.00864826  0.11986053  0.50135885  1
  O  O332  1  0.01169881  0.64311888  0.01134670  1
  O  O333  1  0.00436371  0.61885788  0.50435566  1
  O  O334  1  0.50468277  0.12009732  0.00746421  1
  O  O335  1  0.50409413  0.11689810  0.50836146  1
  O  O336  1  0.50918144  0.62475759  0.00781519  1
  O  O337  1  0.50929802  0.62096856  0.50935768  1
  O  O338  1  0.48727771  0.37652206  0.49604697  1
  O  O339  1  0.48721463  0.37535557  0.99958189  1
  O  O340  1  0.48897496  0.88354464  0.50728460  1
  O  O341  1  0.49501644  0.88034845  0.99351816  1
  O  O342  1  0.99586404  0.37733949  0.49258968  1
  O  O343  1  0.99744592  0.36514832  0.98772015  1
  O  O344  1  0.99270786  0.88003558  0.49227851  1
  O  O345  1  0.99036807  0.88304870  0.99426709  1
  O  O346  1  0.48764674  0.50271003  0.37798528  1
  O  O347  1  0.48647164  0.49785539  0.87943968  1
  O  O348  1  0.49889192  1.00745078  0.38927582  1
  O  O349  1  0.49614134  0.99620542  0.87913547  1
  O  O350  1  0.99173405  0.49001975  0.38088887  1
  O  O351  1  0.99143808  0.48903107  0.87010732  1
  O  O352  1  0.99386190  0.99055724  0.38201704  1
  O  O353  1  0.99371456  1.00127930  0.87975525  1
  O  O354  1  0.00494882  0.00604810  0.11840065  1
  O  O355  1  0.00823776  0.00154420  0.61831760  1
  O  O356  1  0.01106696  0.49492507  0.12857825  1
  O  O357  1  0.00644221  0.50422241  0.61971565  1
  O  O358  1  0.50755586  0.00971720  0.11843480  1
  O  O359  1  0.50379260  0.00774995  0.61632550  1
  O  O360  1  0.50968926  0.50860232  0.11773131  1
  O  O361  1  0.50660008  0.50566125  0.62454901  1
  O  O362  1  0.24411022  0.37870584  0.24410941  1
  O  O363  1  0.24488071  0.37834485  0.74375331  1
  O  O364  1  0.24338171  0.87818143  0.23823436  1
  O  O365  1  0.24536922  0.87912929  0.74262666  1
  O  O366  1  0.74594011  0.36921231  0.23671749  1
  O  O367  1  0.74023086  0.37324121  0.74537291  1
  O  O368  1  0.75502780  0.89026835  0.24961211  1
  O  O369  1  0.74880261  0.88335192  0.74933484  1
  O  O370  1  0.25722270  0.11868866  0.24784257  1
  O  O371  1  0.25186373  0.11953382  0.75713871  1
  O  O372  1  0.25304517  0.61736133  0.25327653  1
  O  O373  1  0.25648222  0.62273073  0.75737651  1
  O  O374  1  0.75597790  0.11611949  0.25605163  1
  O  O375  1  0.75596583  0.12078470  0.75647346  1
  O  O376  1  0.76231869  0.62739050  0.26163652  1
  O  O377  1  0.76349944  0.62476195  0.75286823  1
  O  O378  1  0.37546141  0.12171907  0.36046980  1
  O  O379  1  0.36650331  0.11992132  0.87258596  1
  O  O380  1  0.36396433  0.61833071  0.36819595  1
  O  O381  1  0.36966670  0.61746482  0.87178929  1
  O  O382  1  0.87091945  0.11940200  0.37107259  1
  O  O383  1  0.86906231  0.12127084  0.87008806  1
  O  O384  1  0.86985573  0.61774109  0.36976089  1
  O  O385  1  0.87899244  0.61832132  0.86719196  1
  O  O386  1  0.12939044  0.38331708  0.12873472  1
  O  O387  1  0.12442045  0.38723905  0.62434381  1
  O  O388  1  0.13584301  0.88575012  0.12090889  1
  O  O389  1  0.13108803  0.87827741  0.62811709  1
  O  O390  1  0.63173494  0.38623566  0.12585026  1
  O  O391  1  0.62951212  0.37701373  0.63280151  1
  O  O392  1  0.62608270  0.89108615  0.12108728  1
  O  O393  1  0.62760219  0.88278341  0.62605984  1
  O  O394  1  0.11726738  0.25937796  0.24305567  1
  O  O395  1  0.11404132  0.24983768  0.74844550  1
  O  O396  1  0.13843364  0.75161348  0.26244211  1
  O  O397  1  0.12055649  0.75349896  0.75279244  1
  O  O398  1  0.62458941  0.24727810  0.26371193  1
  O  O399  1  0.62489013  0.25810507  0.75639794  1
  O  O400  1  0.62088770  0.76067254  0.25232191  1
  O  O401  1  0.61817983  0.74880388  0.75649398  1
  O  O402  1  0.37631155  0.23932759  0.24572071  1
  O  O403  1  0.37766328  0.24893127  0.73573289  1
  O  O404  1  0.37168191  0.74014158  0.23969640  1
  O  O405  1  0.37990389  0.74346625  0.74397815  1
  O  O406  1  0.88175835  0.24314488  0.24544216  1
  O  O407  1  0.88269828  0.24604580  0.74660113  1
  O  O408  1  0.87244475  0.74020792  0.25705164  1
  O  O409  1  0.88011237  0.74177677  0.74726423  1
  O  O410  1  0.37103496  0.48938351  0.49462363  1
  O  O411  1  0.37171019  0.49155987  0.99177904  1
  O  O412  1  0.38242008  0.98998644  0.49742316  1
  O  O413  1  0.38150484  0.99465211  0.99304320  1
  O  O414  1  0.88220338  0.49345204  0.49420325  1
  O  O415  1  0.87339740  0.50449498  0.99012753  1
  O  O416  1  0.88058628  0.99303537  0.49635770  1
  O  O417  1  0.87907302  0.99550234  0.99375298  1
  O  O418  1  0.11873621  0.00247523  0.00432598  1
  O  O419  1  0.12197448  0.00456636  0.50317542  1
  O  O420  1  0.12811592  0.51400524  0.00940618  1
  O  O421  1  0.11958018  0.50515186  0.50681133  1
  O  O422  1  0.62133431  0.00666687  0.00658188  1
  O  O423  1  0.61804078  0.00677803  0.50618041  1
  O  O424  1  0.62669424  0.51219081  0.00486496  1
  O  O425  1  0.62397251  0.50729143  0.50934968  1
  O  O426  1  0.36822486  0.37740068  0.11482798  1
  O  O427  1  0.37612258  0.36578603  0.61492358  1
  O  O428  1  0.37003434  0.86959967  0.11505455  1
  O  O429  1  0.36874666  0.86730088  0.61534356  1
  O  O430  1  0.86682355  0.37035516  0.12589764  1
  O  O431  1  0.87076149  0.37029529  0.62099331  1
  O  O432  1  0.87045731  0.88357352  0.10888008  1
  O  O433  1  0.87818521  0.86926468  0.61668502  1
  O  O434  1  0.12504394  0.11675967  0.38721645  1
  O  O435  1  0.13953306  0.12688911  0.87649051  1
  O  O436  1  0.12791359  0.62774983  0.37973453  1
  O  O437  1  0.12689402  0.62865925  0.88314772  1
  O  O438  1  0.63149016  0.13270501  0.38153105  1
  O  O439  1  0.63077751  0.13016046  0.88081670  1
  O  O440  1  0.64017298  0.61261019  0.38843797  1
  O  O441  1  0.62454492  0.62897023  0.88548083  1
