# generated using pymatgen
data_V93Zn93O256
_symmetry_space_group_name_H-M   'P 1'
_cell_length_a   17.05211381
_cell_length_b   17.05135401
_cell_length_c   17.05366303
_cell_angle_alpha   89.97310740
_cell_angle_beta   89.91977439
_cell_angle_gamma   89.96656246
_symmetry_Int_Tables_number   1
_chemical_formula_structural   V93Zn93O256
_chemical_formula_sum   'V93 Zn93 O256'
_cell_volume   4958.54459560
_cell_formula_units_Z   1
loop_
 _symmetry_equiv_pos_site_id
 _symmetry_equiv_pos_as_xyz
  1  'x, y, z'
loop_
 _atom_site_type_symbol
 _atom_site_label
 _atom_site_symmetry_multiplicity
 _atom_site_fract_x
 _atom_site_fract_y
 _atom_site_fract_z
 _atom_site_occupancy
  V  V0  1  0.12411353  0.62669449  0.50041154  1
  V  V1  1  0.75055998  0.24964418  0.50112481  1
  V  V2  1  0.87611694  0.62554795  0.75030263  1
  V  V3  1  -0.00166851  0.74350600  0.24605040  1
  V  V4  1  0.74988231  0.74907404  0.00053867  1
  V  V5  1  0.37703197  0.63112685  0.75117385  1
  V  V6  1  0.12540965  0.00136677  0.62546797  1
  V  V7  1  0.00114088  0.62566741  0.62402028  1
  V  V8  1  0.37639075  0.25481840  0.62062556  1
  V  V9  1  0.37506684  0.12503095  0.25016459  1
  V  V10  1  0.25017350  0.87663834  0.62643577  1
  V  V11  1  0.25252690  0.25302517  0.49933612  1
  V  V12  1  0.50125094  0.25101792  0.75073864  1
  V  V13  1  0.75187353  0.62361971  0.37194297  1
  V  V14  1  0.12491321  0.12561502  0.50098724  1
  V  V15  1  0.49322592  0.49551775  0.50124684  1
  V  V16  1  0.12586987  0.37649845  0.74941832  1
  V  V17  1  0.74858627  0.62449841  0.87529867  1
  V  V18  1  0.49970399  -0.00006419  0.00099951  1
  V  V19  1  0.37413683  0.24965840  0.12411085  1
  V  V20  1  -0.00087252  0.50171482  0.00267714  1
  V  V21  1  0.25044656  0.62592131  0.37510340  1
  V  V22  1  0.87474417  0.00051266  0.37550875  1
  V  V23  1  0.24929306  0.49867559  0.24865753  1
  V  V24  1  0.00299142  0.87615993  0.36849750  1
  V  V25  1  0.25066626  0.75143148  0.50087412  1
  V  V26  1  0.00137214  0.12528130  0.12346888  1
  V  V27  1  0.50242813  0.12129045  0.62666323  1
  V  V28  1  0.62321539  0.62354854  -0.00001744  1
  V  V29  1  0.87423739  0.37519831  0.50017990  1
  V  V30  1  0.37340381  0.75048083  0.12590153  1
  V  V31  1  0.25290260  0.37756177  0.62055742  1
  V  V32  1  0.87558822  0.87546248  0.00047757  1
  V  V33  1  0.50004227  0.37547370  0.87458615  1
  V  V34  1  0.87262764  -0.00011737  0.87496136  1
  V  V35  1  0.49997022  0.87194677  0.87064772  1
  V  V36  1  0.24207446  -0.00295363  0.25072576  1
  V  V37  1  0.24304278  0.87540377  0.13040201  1
  V  V38  1  0.49918578  0.62377542  0.12481191  1
  V  V39  1  0.37413636  0.37415006  0.00047784  1
  V  V40  1  0.50003044  0.24999727  0.25066394  1
  V  V41  1  0.37488189  0.62367134  0.25111768  1
  V  V42  1  0.11929647  0.50276430  0.12579162  1
  V  V43  1  0.87513076  0.12626827  0.24933454  1
  V  V44  1  0.12038056  0.62556383  0.00274064  1
  V  V45  1  0.37696509  0.75202105  0.62641076  1
  V  V46  1  0.87288800  0.12618131  0.74800080  1
  V  V47  1  0.37599305  -0.00081204  0.37760539  1
  V  V48  1  0.00008058  0.50168302  0.49931338  1
  V  V49  1  0.49875057  0.49971211  0.00126104  1
  V  V50  1  0.00167803  0.37427153  0.37437835  1
  V  V51  1  0.12478382  0.87618669  0.75053428  1
  V  V52  1  0.12578082  0.75586985  0.37013653  1
  V  V53  1  0.62706650  0.74784469  0.37182330  1
  V  V54  1  0.12495452  0.75032052  0.87450208  1
  V  V55  1  0.62493774  0.37414063  0.75054034  1
  V  V56  1  0.75084454  0.37479467  0.62406420  1
  V  V57  1  0.00073149  0.00071581  0.50071809  1
  V  V58  1  0.25035886  0.12596354  0.37517984  1
  V  V59  1  0.37325546  0.87501559  0.00207063  1
  V  V60  1  0.49391871  0.37411501  0.37940138  1
  V  V61  1  0.62606632  0.87399012  0.24859022  1
  V  V62  1  0.62391575  -0.00161030  0.12436776  1
  V  V63  1  0.87230141  0.87447586  0.50350860  1
  V  V64  1  0.62564102  0.12176520  0.50291610  1
  V  V65  1  0.74877804  0.24793683  -0.00187279  1
  V  V66  1  0.62023734  0.75250531  0.87046667  1
  V  V67  1  0.74986043  0.12408305  0.37585272  1
  V  V68  1  0.24953280  0.62532720  0.87542045  1
  V  V69  1  0.74984932  0.87356141  0.12491112  1
  V  V70  1  0.50050616  0.74751209  0.24995508  1
  V  V71  1  0.37380799  0.50172488  0.87541373  1
  V  V72  1  0.36762467  0.12663861  0.75433298  1
  V  V73  1  0.49852817  0.87469080  0.37219539  1
  V  V74  1  0.62474064  0.37345123  0.25091614  1
  V  V75  1  0.75002831  0.37408353  0.12564032  1
  V  V76  1  0.74241429  -0.01315451  0.74403072  1
  V  V77  1  0.00039633  0.75149277  0.74964744  1
  V  V78  1  0.50051270  0.12352393  0.12524921  1
  V  V79  1  0.74974873  0.49758118  0.25037496  1
  V  V80  1  0.87345738  0.75140031  0.62445306  1
  V  V81  1  0.00211250  0.37209924  0.87394832  1
  V  V82  1  0.87500843  0.49987718  0.87525201  1
  V  V83  1  0.87441930  0.49980975  0.37390300  1
  V  V84  1  0.25044148  0.24573044  -0.00762224  1
  V  V85  1  0.12775778  0.12440300  -0.00646368  1
  V  V86  1  0.12576329  0.25160864  0.37371786  1
  V  V87  1  0.87460099  0.37448668  -0.00021652  1
  V  V88  1  0.50124614  0.62825160  0.62817812  1
  V  V89  1  0.75048916  0.49919989  0.74940868  1
  V  V90  1  0.36849004  0.00386838  0.87595542  1
  V  V91  1  0.75076447  0.75088794  0.50154920  1
  V  V92  1  0.62421963  0.49996467  0.62453106  1
  Zn  Zn93  1  0.87651815  0.25005936  0.12405492  1
  Zn  Zn94  1  0.12268387  -0.00195544  0.12580888  1
  Zn  Zn95  1  0.00001811  0.12837582  0.62521273  1
  Zn  Zn96  1  0.24474634  0.00597448  0.75476257  1
  Zn  Zn97  1  0.88035000  0.74284860  0.12085505  1
  Zn  Zn98  1  0.00307522  0.25130299  0.24866357  1
  Zn  Zn99  1  0.62387892  0.24835008  0.37563282  1
  Zn  Zn100  1  0.00229566  -0.00028613  -0.00030930  1
  Zn  Zn101  1  0.87916456  0.61782422  0.23858369  1
  Zn  Zn102  1  0.37121268  0.49631042  0.37963204  1
  Zn  Zn103  1  0.87767409  0.25044821  0.62561347  1
  Zn  Zn104  1  0.00011856  0.24882390  0.74685040  1
  Zn  Zn105  1  0.62511464  0.12456642  -0.00113028  1
  Zn  Zn106  1  0.00113605  0.87521290  0.87638029  1
  Zn  Zn107  1  0.24793848  0.37330872  0.12387233  1
  Zn  Zn108  1  0.62493175  0.62319324  0.49830603  1
  Zn  Zn109  1  0.24787387  0.75069834  0.00237742  1
  Zn  Zn110  1  0.62806308  -0.02111877  0.62656135  1
  Zn  Zn111  1  0.56310503  0.81263208  0.70728745  1
  Zn  Zn112  1  0.50206363  -0.00263459  0.50197113  1
  Zn  Zn113  1  0.74352768  0.12356382  0.87323015  1
  Zn  Zn114  1  0.25064203  0.50122088  0.74867764  1
  Zn  Zn115  1  0.12390097  0.37280755  0.24725357  1
  Zn  Zn116  1  0.74945611  -0.00074920  0.24930046  1
  Zn  Zn117  1  0.62342295  0.24690975  0.87569063  1
  Zn  Zn118  1  0.37504677  0.87536438  0.50136969  1
  Zn  Zn119  1  0.12729522  0.50155973  0.62391950  1
  Zn  Zn120  1  0.13005095  0.24495249  0.87082163  1
  Zn  Zn121  1  0.62465096  0.49925150  0.12581847  1
  Zn  Zn122  1  0.18808082  0.18645674  0.18462314  1
  Zn  Zn123  1  0.18626908  0.19146617  0.68558264  1
  Zn  Zn124  1  0.18566834  0.68688782  0.18814965  1
  Zn  Zn125  1  0.18920541  0.68916239  0.68825567  1
  Zn  Zn126  1  0.68733268  0.18763523  0.18581002  1
  Zn  Zn127  1  0.69014165  0.18561991  0.68866657  1
  Zn  Zn128  1  0.69028149  0.68490520  0.18549113  1
  Zn  Zn129  1  0.69088863  0.68479009  0.68494678  1
  Zn  Zn130  1  0.31271604  0.31356448  0.31118481  1
  Zn  Zn131  1  0.31385248  0.31391761  0.81016675  1
  Zn  Zn132  1  0.31310982  0.81313060  0.31112295  1
  Zn  Zn133  1  0.31056642  0.81411042  0.81390037  1
  Zn  Zn134  1  0.81261956  0.31031467  0.31472840  1
  Zn  Zn135  1  0.81211671  0.31126842  0.81351748  1
  Zn  Zn136  1  0.81475201  0.81233470  0.31277790  1
  Zn  Zn137  1  0.81120395  0.81106374  0.81482325  1
  Zn  Zn138  1  0.18599848  0.43793649  0.43768077  1
  Zn  Zn139  1  0.18880653  0.43705471  0.93868306  1
  Zn  Zn140  1  0.18850554  0.93773027  0.43974402  1
  Zn  Zn141  1  0.18710565  0.93667261  0.94124412  1
  Zn  Zn142  1  0.68292064  0.43696537  0.43696145  1
  Zn  Zn143  1  0.68609352  0.43604347  0.93802508  1
  Zn  Zn144  1  0.68734640  0.93737364  0.43656460  1
  Zn  Zn145  1  0.68672092  0.93655258  0.93555709  1
  Zn  Zn146  1  0.31118323  0.06232297  0.06322237  1
  Zn  Zn147  1  0.31151540  0.06518794  0.56456299  1
  Zn  Zn148  1  0.30938464  0.56308767  0.06302321  1
  Zn  Zn149  1  0.31279641  0.56492080  0.56334628  1
  Zn  Zn150  1  0.81071151  0.06220882  0.06367396  1
  Zn  Zn151  1  0.81158808  0.06051467  0.56591103  1
  Zn  Zn152  1  0.81219028  0.56282265  0.06493727  1
  Zn  Zn153  1  0.81328253  0.56407727  0.56124396  1
  Zn  Zn154  1  0.43685720  0.43589189  0.18825659  1
  Zn  Zn155  1  0.43680353  0.44071039  0.68963558  1
  Zn  Zn156  1  0.43473038  0.93687488  0.18905112  1
  Zn  Zn157  1  0.43189163  0.94229640  0.68896605  1
  Zn  Zn158  1  0.93760857  0.43501269  0.18762686  1
  Zn  Zn159  1  0.93859705  0.43875718  0.68597068  1
  Zn  Zn160  1  0.93681614  0.93834304  0.18623557  1
  Zn  Zn161  1  0.93742883  0.93962583  0.68747762  1
  Zn  Zn162  1  0.06114465  0.06587189  0.31407356  1
  Zn  Zn163  1  0.05711292  0.06096574  0.81240803  1
  Zn  Zn164  1  0.06398808  0.56388899  0.31458177  1
  Zn  Zn165  1  0.06318646  0.56146070  0.81300766  1
  Zn  Zn166  1  0.56346706  0.06143282  0.31211998  1
  Zn  Zn167  1  0.56147994  0.06130345  0.81460417  1
  Zn  Zn168  1  0.56358329  0.55954672  0.31401881  1
  Zn  Zn169  1  0.56188391  0.56241679  0.81248179  1
  Zn  Zn170  1  0.43898743  0.18644816  0.43852198  1
  Zn  Zn171  1  0.43899341  0.18708342  0.93795114  1
  Zn  Zn172  1  0.43717345  0.68501885  0.43956837  1
  Zn  Zn173  1  0.43634270  0.68940430  0.93938428  1
  Zn  Zn174  1  0.93835513  0.18929140  0.43802005  1
  Zn  Zn175  1  0.93617933  0.18594144  0.93645723  1
  Zn  Zn176  1  0.93678058  0.68666601  0.43284679  1
  Zn  Zn177  1  0.93836204  0.68835883  0.93635069  1
  Zn  Zn178  1  0.06476417  0.31208141  0.06218296  1
  Zn  Zn179  1  0.06253371  0.31212964  0.56267644  1
  Zn  Zn180  1  0.06294342  0.81309345  0.06164225  1
  Zn  Zn181  1  0.06205216  0.81442596  0.56126885  1
  Zn  Zn182  1  0.56349491  0.31251760  0.06388049  1
  Zn  Zn183  1  0.56413554  0.31130998  0.56224143  1
  Zn  Zn184  1  0.56156788  0.81186615  0.06009085  1
  Zn  Zn185  1  0.56147498  0.81152404  0.54617101  1
  O  O186  1  0.11603616  0.12408743  0.11611726  1
  O  O187  1  0.12529287  0.11975075  0.61843768  1
  O  O188  1  0.12989407  0.61594237  0.11388663  1
  O  O189  1  0.11926409  0.62618992  0.61854255  1
  O  O190  1  0.61763659  0.11660010  0.12446172  1
  O  O191  1  0.61537468  0.12597010  0.61845536  1
  O  O192  1  0.61729200  0.62367036  0.11761493  1
  O  O193  1  0.61572452  0.61926429  0.62544271  1
  O  O194  1  0.38925486  0.37694038  0.37054861  1
  O  O195  1  0.38066366  0.38175960  0.87955176  1
  O  O196  1  0.37937166  0.88447860  0.37396107  1
  O  O197  1  0.38067147  0.88105889  0.88170048  1
  O  O198  1  0.88048019  0.38020697  0.38130469  1
  O  O199  1  0.88296184  0.38116932  0.87841326  1
  O  O200  1  0.88332279  0.87981876  0.38395411  1
  O  O201  1  0.87396888  0.88173989  0.88495796  1
  O  O202  1  0.25672382  0.00434747  0.36954463  1
  O  O203  1  0.26516446  -0.00480973  0.87580072  1
  O  O204  1  0.24956798  0.50622171  0.36644868  1
  O  O205  1  0.25700765  0.50690043  0.87422802  1
  O  O206  1  0.75724014  0.00613879  0.37337635  1
  O  O207  1  0.75816423  -0.00009854  0.86615059  1
  O  O208  1  0.75445410  0.50315766  0.37058601  1
  O  O209  1  0.75491955  0.50457823  0.86937101  1
  O  O210  1  0.24062338  0.49979439  0.13384562  1
  O  O211  1  0.25043492  0.49025877  0.62582528  1
  O  O212  1  0.25160059  0.99272252  0.13551023  1
  O  O213  1  0.24357622  0.99481846  0.62696012  1
  O  O214  1  0.74761841  0.49088605  0.13176067  1
  O  O215  1  0.74479342  0.49638888  0.62978517  1
  O  O216  1  0.74256919  0.99151146  0.12635442  1
  O  O217  1  0.74801602  0.99991220  0.63973910  1
  O  O218  1  0.00271059  0.37186967  0.25887155  1
  O  O219  1  0.00805835  0.37716976  0.75757126  1
  O  O220  1  -0.00519617  0.86899249  0.26393992  1
  O  O221  1  0.00624848  0.86864177  0.75040903  1
  O  O222  1  0.50462547  0.36969892  0.25766106  1
  O  O223  1  0.50488747  0.37118487  0.75422533  1
  O  O224  1  0.50509844  0.86697979  0.25343900  1
  O  O225  1  0.49077528  0.87763546  0.76573322  1
  O  O226  1  0.49457694  0.13002934  0.24567414  1
  O  O227  1  0.49278094  0.13017839  0.74196797  1
  O  O228  1  0.49531932  0.62830752  0.24525101  1
  O  O229  1  0.49062466  0.61883966  0.73841515  1
  O  O230  1  0.99208244  0.12579120  0.24244440  1
  O  O231  1  0.98675225  0.12610593  0.74894649  1
  O  O232  1  0.99932677  0.64031476  0.25655011  1
  O  O233  1  0.99517093  0.63058513  0.74510408  1
  O  O234  1  0.36891565  0.25315356  0.00433423  1
  O  O235  1  0.37025992  0.24280323  0.51390105  1
  O  O236  1  0.37155038  0.75594842  0.00863113  1
  O  O237  1  0.36841007  0.75045551  0.50783689  1
  O  O238  1  0.86589858  0.25646881  -0.00050353  1
  O  O239  1  0.86768772  0.25736981  0.50035143  1
  O  O240  1  0.86978030  0.75976578  -0.00231539  1
  O  O241  1  0.86982012  0.75624272  0.50212703  1
  O  O242  1  0.13296327  0.24500900  0.49394106  1
  O  O243  1  0.13433556  0.24348058  0.99777088  1
  O  O244  1  0.12971589  0.74617111  0.49087762  1
  O  O245  1  0.12425496  0.74070966  0.99498364  1
  O  O246  1  0.63090282  0.23770526  0.49995723  1
  O  O247  1  0.63602111  0.25001475  0.99949354  1
  O  O248  1  0.63626435  0.74601968  0.48962397  1
  O  O249  1  0.62935439  0.74338236  0.99101026  1
  O  O250  1  0.49378038  0.24406348  0.13054845  1
  O  O251  1  0.49316554  0.24331167  0.62941683  1
  O  O252  1  0.49408563  0.74402587  0.13052796  1
  O  O253  1  0.49671614  0.74031473  0.62398488  1
  O  O254  1  0.99806217  0.23901435  0.12634943  1
  O  O255  1  0.99575350  0.24734860  0.62812155  1
  O  O256  1  1.00431162  0.75906930  0.14445160  1
  O  O257  1  0.99405720  0.74496894  0.62940903  1
  O  O258  1  0.00818518  0.25651346  0.37502577  1
  O  O259  1  0.00031433  0.26459394  0.87408973  1
  O  O260  1  0.00709392  0.75762289  0.36842507  1
  O  O261  1  0.00667430  0.75192750  0.86682598  1
  O  O262  1  0.50020634  0.25670491  0.37015240  1
  O  O263  1  0.49883334  0.25842441  0.86816958  1
  O  O264  1  0.50555379  0.75307508  0.36942174  1
  O  O265  1  0.50805083  0.75881120  0.88094509  1
  O  O266  1  0.24512133  0.13201258  0.49436609  1
  O  O267  1  0.24012117  0.13377993  1.00636799  1
  O  O268  1  0.24499419  0.63177470  0.49506755  1
  O  O269  1  0.23824718  0.62631506  0.99415255  1
  O  O270  1  0.74325480  0.12811881  0.49731691  1
  O  O271  1  0.74983847  0.13600938  0.99919629  1
  O  O272  1  0.75062519  0.63418266  0.49124569  1
  O  O273  1  0.74319282  0.62847425  0.99301179  1
  O  O274  1  0.25674218  0.36596202  0.00176899  1
  O  O275  1  0.24476707  0.36958624  0.51213509  1
  O  O276  1  0.25662918  0.87399789  0.01197004  1
  O  O277  1  0.25213921  0.86873368  0.50748190  1
  O  O278  1  0.75496120  0.36890566  0.00461202  1
  O  O279  1  0.75362950  0.37073009  0.50431607  1
  O  O280  1  0.75724636  0.86921980  0.00408748  1
  O  O281  1  0.76141244  0.86288688  0.49055345  1
  O  O282  1  0.13279194  0.50368942  0.24220483  1
  O  O283  1  0.12776084  0.48925621  0.74680270  1
  O  O284  1  0.13926659  1.00703945  0.25045785  1
  O  O285  1  0.12581529  0.99570821  0.74522175  1
  O  O286  1  0.63183902  0.49130056  0.24924439  1
  O  O287  1  0.63064303  0.49490593  0.74452467  1
  O  O288  1  0.62560232  0.99140363  0.24331115  1
  O  O289  1  0.63928779  1.00213096  0.75090425  1
  O  O290  1  0.36743883  0.00534833  0.26033446  1
  O  O291  1  0.37112174  0.01057378  0.75892429  1
  O  O292  1  0.36422691  0.50573132  0.24990852  1
  O  O293  1  0.37370071  0.51250123  0.75676101  1
  O  O294  1  0.87412362  0.01025619  0.25644187  1
  O  O295  1  0.86618056  0.00453100  0.75627531  1
  O  O296  1  0.86813384  0.49745722  0.25719386  1
  O  O297  1  0.87035863  0.50582771  0.75545223  1
  O  O298  1  0.11933380  0.36884173  0.37404489  1
  O  O299  1  0.11748606  0.37656539  0.86711168  1
  O  O300  1  0.11597810  0.86584058  0.38247706  1
  O  O301  1  0.12415931  0.86921844  0.87000528  1
  O  O302  1  0.61352791  0.37159646  0.36894338  1
  O  O303  1  0.61719662  0.37473174  0.86729038  1
  O  O304  1  0.61949774  0.86866309  0.36856575  1
  O  O305  1  0.61325053  0.86437053  0.88103772  1
  O  O306  1  0.38082726  0.12914201  0.13135147  1
  O  O307  1  0.38314175  0.13285570  0.63308121  1
  O  O308  1  0.37893953  0.63043064  0.13080783  1
  O  O309  1  0.38180454  0.63089324  0.63280582  1
  O  O310  1  0.88294768  0.12423673  0.13298857  1
  O  O311  1  0.87652840  0.12519902  0.63550054  1
  O  O312  1  0.87517729  0.63005664  0.12589113  1
  O  O313  1  0.88113883  0.63081493  0.63081122  1
  O  O314  1  0.25707324  0.25126763  0.11536546  1
  O  O315  1  0.25846583  0.25794856  0.61999309  1
  O  O316  1  0.25484337  0.75882643  0.12851050  1
  O  O317  1  0.25581996  0.75638714  0.61986830  1
  O  O318  1  0.75268947  0.25574129  0.11567583  1
  O  O319  1  0.75213364  0.25760846  0.61865987  1
  O  O320  1  0.75007954  0.75708841  0.11680572  1
  O  O321  1  0.75762335  0.74156376  0.61026603  1
  O  O322  1  0.24771700  0.24551351  0.37997033  1
  O  O323  1  0.25167054  0.25357556  0.88789262  1
  O  O324  1  0.24296013  0.74739517  0.37823645  1
  O  O325  1  0.24240811  0.74367917  0.87815024  1
  O  O326  1  0.74707346  0.24163742  0.38306723  1
  O  O327  1  0.74728163  0.25031442  0.88657313  1
  O  O328  1  0.74743376  0.74377867  0.38067080  1
  O  O329  1  0.74142932  0.74401384  0.88098378  1
  O  O330  1  0.00576192  0.12463018  0.00873755  1
  O  O331  1  0.00679460  0.11730565  0.49881047  1
  O  O332  1  0.01271651  0.61786916  -0.00850039  1
  O  O333  1  0.00390690  0.62207912  0.50377907  1
  O  O334  1  0.49935865  0.11771013  0.00874222  1
  O  O335  1  0.50835056  0.12369278  0.50927807  1
  O  O336  1  0.50284595  0.61928335  0.00549398  1
  O  O337  1  0.50141939  0.61712480  0.51208359  1
  O  O338  1  0.50615795  0.38292819  0.49200297  1
  O  O339  1  0.49381159  0.37959435  0.99514780  1
  O  O340  1  0.49341272  0.87967072  0.48687842  1
  O  O341  1  0.49213519  0.88033141  0.99328879  1
  O  O342  1  0.99497634  0.38200080  0.49455515  1
  O  O343  1  0.99593411  0.38066783  0.99203932  1
  O  O344  1  0.99201354  0.87931103  0.48956230  1
  O  O345  1  0.98816745  0.87719881  1.00007001  1
  O  O346  1  0.49859306  0.49246889  0.38399550  1
  O  O347  1  0.49337930  0.49571883  0.88122069  1
  O  O348  1  0.48980493  0.99495570  0.37346364  1
  O  O349  1  0.49088144  0.99062717  0.88074314  1
  O  O350  1  0.99528589  0.49540938  0.38015342  1
  O  O351  1  0.99490993  0.49130667  0.88050717  1
  O  O352  1  0.99620514  0.99341415  0.38003061  1
  O  O353  1  0.98453597  0.99548512  0.87737448  1
  O  O354  1  0.00246180  0.01083746  0.12391768  1
  O  O355  1  0.00775262  0.00151804  0.61727435  1
  O  O356  1  0.01106328  0.49522697  0.11914246  1
  O  O357  1  0.00166192  0.50828205  0.61711264  1
  O  O358  1  0.50305289  0.00336469  0.12119337  1
  O  O359  1  0.50005191  0.01230523  0.62522143  1
  O  O360  1  0.50009374  0.50613864  0.11917879  1
  O  O361  1  0.50379443  0.50576014  0.61911144  1
  O  O362  1  0.24804385  0.38780968  0.24873402  1
  O  O363  1  0.24247562  0.37598977  0.74094349  1
  O  O364  1  0.25585008  0.88538172  0.24206795  1
  O  O365  1  0.24234748  0.87742789  0.74346575  1
  O  O366  1  0.74515550  0.37711465  0.24645934  1
  O  O367  1  0.74583035  0.38101861  0.74483144  1
  O  O368  1  0.74435048  0.87451131  0.24410589  1
  O  O369  1  0.75390475  0.88786111  0.75351644  1
  O  O370  1  0.25662719  0.11750958  0.25542738  1
  O  O371  1  0.26394822  0.12826099  0.74588160  1
  O  O372  1  0.25404367  0.61744007  0.25506609  1
  O  O373  1  0.25909609  0.62325423  0.75551556  1
  O  O374  1  0.75883212  0.12345136  0.25522487  1
  O  O375  1  0.75923835  0.11615184  0.75261683  1
  O  O376  1  0.75113067  0.61634208  0.25589503  1
  O  O377  1  0.75691066  0.61832840  0.75541578  1
  O  O378  1  0.37031387  0.11812806  0.37050770  1
  O  O379  1  0.38441536  0.11516358  0.86535747  1
  O  O380  1  0.36808106  0.62329717  0.36856310  1
  O  O381  1  0.37123519  0.62281532  0.86886816  1
  O  O382  1  0.87121253  0.11975496  0.36851202  1
  O  O383  1  0.87248218  0.11458602  0.86805396  1
  O  O384  1  0.86905117  0.61669098  0.37055885  1
  O  O385  1  0.86886864  0.61997399  0.86995403  1
  O  O386  1  0.12791401  0.38760726  0.12585896  1
  O  O387  1  0.13470849  0.37592656  0.63304698  1
  O  O388  1  0.13913043  0.87786907  0.11997863  1
  O  O389  1  0.12980029  0.88084476  0.62993361  1
  O  O390  1  0.63110677  0.37625085  0.13342082  1
  O  O391  1  0.63062116  0.38057169  0.63076874  1
  O  O392  1  0.62890985  0.87830978  0.12943106  1
  O  O393  1  0.61303147  0.86823103  0.62605918  1
  O  O394  1  0.12601251  0.25093147  0.25827142  1
  O  O395  1  0.12382636  0.26225267  0.75329559  1
  O  O396  1  0.11544977  0.74591889  0.26263624  1
  O  O397  1  0.11960914  0.75575936  0.75466177  1
  O  O398  1  0.61739372  0.25451350  0.25207081  1
  O  O399  1  0.61883543  0.25690949  0.74978968  1
  O  O400  1  0.61988537  0.75403793  0.25336772  1
  O  O401  1  0.62980231  0.74198692  0.76549180  1
  O  O402  1  0.37936796  0.24392631  0.24461059  1
  O  O403  1  0.38093010  0.24387252  0.74192297  1
  O  O404  1  0.38117089  0.74354618  0.24584818  1
  O  O405  1  0.37099051  0.73797458  0.74509370  1
  O  O406  1  0.87706673  0.23635026  0.24951031  1
  O  O407  1  0.87436067  0.23873503  0.74990804  1
  O  O408  1  0.89043325  0.74933608  0.25134373  1
  O  O409  1  0.87882920  0.74476259  0.74533422  1
  O  O410  1  0.38867817  0.50434732  0.49998585  1
  O  O411  1  0.37896958  0.49533525  0.99556761  1
  O  O412  1  0.37491592  1.00188003  0.48704755  1
  O  O413  1  0.37959765  0.99621463  0.99379877  1
  O  O414  1  0.88007020  0.49506541  0.49364815  1
  O  O415  1  0.87920048  0.49421015  0.99354272  1
  O  O416  1  0.87878216  0.99222071  0.49572606  1
  O  O417  1  0.87157216  0.99121413  0.99177237  1
  O  O418  1  0.12354463  0.01027706  0.00299243  1
  O  O419  1  0.12070562  0.00604863  0.50467683  1
  O  O420  1  0.12059576  0.50653711  0.00675296  1
  O  O421  1  0.11805718  0.50932914  0.50009400  1
  O  O422  1  0.61739594  -0.00134333  0.00699401  1
  O  O423  1  0.62531404  0.00959008  0.50557992  1
  O  O424  1  0.61671483  0.50584417  0.00064491  1
  O  O425  1  0.61449893  0.50256294  0.50711305  1
  O  O426  1  0.37415375  0.36734021  0.11801066  1
  O  O427  1  0.36670556  0.36419334  0.63432770  1
  O  O428  1  0.36724390  0.86985071  0.12166334  1
  O  O429  1  0.36982452  0.86977923  0.62488195  1
  O  O430  1  0.86905557  0.37270549  0.11723190  1
  O  O431  1  0.86775816  0.37690436  0.61776778  1
  O  O432  1  0.86961723  0.87287838  0.11514899  1
  O  O433  1  0.88280841  0.86880180  0.60991257  1
  O  O434  1  0.13186356  0.13087066  0.38129987  1
  O  O435  1  0.11452721  0.12744549  0.88871974  1
  O  O436  1  0.13080043  0.63593894  0.38108855  1
  O  O437  1  0.13012717  0.62925239  0.88157214  1
  O  O438  1  0.62945846  0.12347895  0.38626112  1
  O  O439  1  0.62533415  0.12862001  0.88057982  1
  O  O440  1  0.63243997  0.63080985  0.37515979  1
  O  O441  1  0.62798611  0.63120039  0.88026053  1
