# generated using pymatgen
data_V93Zn93O256
_symmetry_space_group_name_H-M   'P 1'
_cell_length_a   17.04478648
_cell_length_b   17.04276460
_cell_length_c   17.04406712
_cell_angle_alpha   90.02696333
_cell_angle_beta   89.95531173
_cell_angle_gamma   90.04400017
_symmetry_Int_Tables_number   1
_chemical_formula_structural   V93Zn93O256
_chemical_formula_sum   'V93 Zn93 O256'
_cell_volume   4951.13237680
_cell_formula_units_Z   1
loop_
 _symmetry_equiv_pos_site_id
 _symmetry_equiv_pos_as_xyz
  1  'x, y, z'
loop_
 _atom_site_type_symbol
 _atom_site_label
 _atom_site_symmetry_multiplicity
 _atom_site_fract_x
 _atom_site_fract_y
 _atom_site_fract_z
 _atom_site_occupancy
  V  V0  1  0.12890581  0.12545644  0.50083166  1
  V  V1  1  0.25259283  0.63028565  0.37868604  1
  V  V2  1  0.62495919  0.49133961  0.62863699  1
  V  V3  1  0.74668110  0.49159581  0.75019134  1
  V  V4  1  0.88383507  0.25386110  0.12016240  1
  V  V5  1  0.00093567  0.37487735  0.37468122  1
  V  V6  1  0.25210727  0.86619276  0.61968735  1
  V  V7  1  -0.00024308  0.87503012  0.37632245  1
  V  V8  1  0.75028332  0.75010310  -0.00023356  1
  V  V9  1  0.62240299  0.74800994  0.37186408  1
  V  V10  1  0.37442527  -0.00103434  0.37635408  1
  V  V11  1  0.12911984  0.62990239  0.50122540  1
  V  V12  1  0.62608811  0.62349455  0.49962620  1
  V  V13  1  0.25053868  0.75092375  0.00115716  1
  V  V14  1  0.62327434  0.87376406  0.74797006  1
  V  V15  1  0.36758919  0.25593054  0.62027375  1
  V  V16  1  0.50715882  0.25327030  0.74797032  1
  V  V17  1  0.62662992  0.37571136  0.24878029  1
  V  V18  1  0.12845087  0.49240311  0.62503688  1
  V  V19  1  0.74800990  0.25535272  0.00087778  1
  V  V20  1  0.12666035  0.25030642  0.37535631  1
  V  V21  1  0.62618718  0.50050957  0.12497904  1
  V  V22  1  0.87395939  0.74951729  0.62474450  1
  V  V23  1  -0.00034806  0.50027864  0.50088410  1
  V  V24  1  0.24856560  0.49316022  0.74728873  1
  V  V25  1  0.25164201  0.25063981  0.00006477  1
  V  V26  1  0.25074910  0.37614826  0.12468754  1
  V  V27  1  -0.00195109  0.37567325  0.87853803  1
  V  V28  1  0.87285626  0.12412582  0.75132178  1
  V  V29  1  0.62452216  0.12314612  0.49838591  1
  V  V30  1  0.37514033  0.49976989  0.87504535  1
  V  V31  1  0.75002536  0.12511808  0.37333276  1
  V  V32  1  0.38050719  0.62945645  0.25011487  1
  V  V33  1  0.88149953  0.12586289  0.24484815  1
  V  V34  1  0.87518708  0.87637424  -0.00075793  1
  V  V35  1  0.11819094  0.12517755  0.00427823  1
  V  V36  1  0.50121285  0.49948405  -0.00126526  1
  V  V37  1  0.49891344  0.37555347  0.37409788  1
  V  V38  1  0.75048478  0.00039682  0.24934102  1
  V  V39  1  0.50236154  0.12593149  0.12362940  1
  V  V40  1  0.37617077  0.12544733  0.25060037  1
  V  V41  1  0.74996009  0.87588660  0.12520212  1
  V  V42  1  0.37952183  0.75186061  0.12773830  1
  V  V43  1  0.87405737  0.25027535  0.62526400  1
  V  V44  1  -0.00350528  0.49871336  0.00084609  1
  V  V45  1  0.50074222  0.25020751  0.24920569  1
  V  V46  1  0.12615394  0.37562638  0.25029313  1
  V  V47  1  0.75004861  0.62380410  0.87471318  1
  V  V48  1  0.12450486  0.87424983  0.75214655  1
  V  V49  1  0.50758538  0.37392062  0.86987085  1
  V  V50  1  0.49956269  0.87222639  0.37164703  1
  V  V51  1  0.49989171  0.87483263  0.87407896  1
  V  V52  1  0.62525946  0.24872411  0.37414235  1
  V  V53  1  0.37675204  0.50155334  0.37384717  1
  V  V54  1  0.87586671  0.75098648  0.12526756  1
  V  V55  1  0.62358861  -0.00209452  0.62316850  1
  V  V56  1  -0.00227447  -0.00192363  0.49993890  1
  V  V57  1  0.87325702  0.37458649  0.50061544  1
  V  V58  1  0.25013851  0.12478274  0.87525914  1
  V  V59  1  0.37547127  0.37522753  0.00015495  1
  V  V60  1  0.50038887  0.62716862  0.12570681  1
  V  V61  1  0.12454410  0.25095073  0.87469734  1
  V  V62  1  0.87607859  0.62441042  0.25099682  1
  V  V63  1  0.00082549  0.75064367  0.25066317  1
  V  V64  1  0.37317947  0.12326650  0.74965356  1
  V  V65  1  0.12557777  -0.00133871  0.62814443  1
  V  V66  1  0.62528332  0.62496188  -0.00055804  1
  V  V67  1  0.12549964  0.87693832  0.24991336  1
  V  V68  1  0.62338567  0.87105552  0.24834775  1
  V  V69  1  0.00184840  0.62559394  0.12628980  1
  V  V70  1  0.24947025  0.00189244  0.25017799  1
  V  V71  1  0.12551335  0.50027073  0.12607237  1
  V  V72  1  0.62432115  0.75015581  0.87332531  1
  V  V73  1  0.49953557  0.62404412  0.62509157  1
  V  V74  1  0.87455568  0.62359691  0.75037443  1
  V  V75  1  0.87497082  0.49729383  0.87924903  1
  V  V76  1  0.37518751  0.87486134  -0.00043671  1
  V  V77  1  -0.00049367  0.74936118  0.75226332  1
  V  V78  1  0.74947569  0.74915663  0.50024569  1
  V  V79  1  0.12377893  0.75037530  0.87677873  1
  V  V80  1  0.49945524  0.12301333  0.62326520  1
  V  V81  1  0.00045308  0.62470469  0.62582594  1
  V  V82  1  -0.00105920  0.12394530  0.62597810  1
  V  V83  1  0.24974348  0.62445490  0.87589102  1
  V  V84  1  0.50097714  0.49861530  0.49897631  1
  V  V85  1  0.75189937  0.49990550  0.25138804  1
  V  V86  1  0.50021058  0.00144678  -0.00092187  1
  V  V87  1  0.11889269  0.00525579  0.12593359  1
  V  V88  1  0.74811591  0.87344841  0.62452740  1
  V  V89  1  0.12673436  0.74983807  0.37671083  1
  V  V90  1  0.87481386  0.00003746  0.87582349  1
  V  V91  1  0.12544413  0.62579358  0.00186347  1
  V  V92  1  0.37515148  0.62731598  0.74862300  1
  Zn  Zn93  1  0.25287463  0.12872699  0.37780202  1
  Zn  Zn94  1  0.00051561  0.25234751  0.75217739  1
  Zn  Zn95  1  0.00074037  0.87587120  0.87761396  1
  Zn  Zn96  1  0.75279582  0.62584545  0.37545499  1
  Zn  Zn97  1  0.62609464  0.12480919  -0.00515105  1
  Zn  Zn98  1  0.37071543  0.74193668  0.61176846  1
  Zn  Zn99  1  0.12704375  0.37090244  0.74769748  1
  Zn  Zn100  1  0.49740995  -0.00303243  0.49988138  1
  Zn  Zn101  1  0.74716967  0.12494817  0.87718442  1
  Zn  Zn102  1  0.25146247  0.50181425  0.24915401  1
  Zn  Zn103  1  0.24993001  0.87709499  0.12472785  1
  Zn  Zn104  1  0.87469839  0.00029634  0.37374648  1
  Zn  Zn105  1  0.87348997  0.87418661  0.49919889  1
  Zn  Zn106  1  0.87552792  0.50042387  0.37564935  1
  Zn  Zn107  1  0.74481929  0.37074064  0.62826698  1
  Zn  Zn108  1  0.00368423  0.24638373  0.24422433  1
  Zn  Zn109  1  -0.00332860  0.00241027  0.00447649  1
  Zn  Zn110  1  0.36980035  0.86573731  0.49324822  1
  Zn  Zn111  1  0.62905891  0.24958693  0.86972396  1
  Zn  Zn112  1  0.24879784  -0.00239826  0.75230177  1
  Zn  Zn113  1  0.36951600  0.37985672  0.50032782  1
  Zn  Zn114  1  0.74862757  0.24985932  0.49878136  1
  Zn  Zn115  1  0.74745975  -0.00051240  0.75048084  1
  Zn  Zn116  1  0.62603026  0.00018929  0.12370887  1
  Zn  Zn117  1  0.49780493  0.75083888  0.74668640  1
  Zn  Zn118  1  0.37311773  -0.00089044  0.87469659  1
  Zn  Zn119  1  0.37579306  0.25230107  0.12592550  1
  Zn  Zn120  1  0.75591526  0.37863214  0.12038389  1
  Zn  Zn121  1  0.23728887  0.27328988  0.51127360  1
  Zn  Zn122  1  0.19042341  0.18805132  0.18774589  1
  Zn  Zn123  1  0.18651031  0.18614044  0.68970286  1
  Zn  Zn124  1  0.19188305  0.68891856  0.19003715  1
  Zn  Zn125  1  0.18640550  0.68492430  0.69000748  1
  Zn  Zn126  1  0.69082601  0.18791781  0.18508232  1
  Zn  Zn127  1  0.68849342  0.18435028  0.68445724  1
  Zn  Zn128  1  0.68937644  0.68697014  0.18759304  1
  Zn  Zn129  1  0.68613689  0.68410273  0.68741182  1
  Zn  Zn130  1  0.31122388  0.31311262  0.31335914  1
  Zn  Zn131  1  0.31650105  0.31064319  0.81303594  1
  Zn  Zn132  1  0.31066702  0.81251588  0.30994001  1
  Zn  Zn133  1  0.31019179  0.81338007  0.81197471  1
  Zn  Zn134  1  0.81352803  0.31082524  0.31006319  1
  Zn  Zn135  1  0.81576943  0.31250978  0.81597742  1
  Zn  Zn136  1  0.81232127  0.81361197  0.31420230  1
  Zn  Zn137  1  0.81103841  0.81355789  0.81130977  1
  Zn  Zn138  1  0.18988152  0.44261744  0.43610785  1
  Zn  Zn139  1  0.18544698  0.43744225  0.93758468  1
  Zn  Zn140  1  0.18655828  0.93875153  0.43804610  1
  Zn  Zn141  1  0.18868364  0.93937796  0.93877494  1
  Zn  Zn142  1  0.68799465  0.43628072  0.43691622  1
  Zn  Zn143  1  0.68864952  0.43562196  0.93738313  1
  Zn  Zn144  1  0.68785200  0.93773297  0.43707684  1
  Zn  Zn145  1  0.68744038  0.93807686  0.93607862  1
  Zn  Zn146  1  0.31139403  0.06355395  0.06400579  1
  Zn  Zn147  1  0.31176264  0.05721086  0.56513889  1
  Zn  Zn148  1  0.31292959  0.56265629  0.06310343  1
  Zn  Zn149  1  0.31132171  0.55838113  0.56172431  1
  Zn  Zn150  1  0.81138752  0.06724135  0.06298662  1
  Zn  Zn151  1  0.80897716  0.06189379  0.56220489  1
  Zn  Zn152  1  0.81381878  0.56347658  0.06359080  1
  Zn  Zn153  1  0.81071091  0.56183925  0.56369825  1
  Zn  Zn154  1  0.43781364  0.44019151  0.18788200  1
  Zn  Zn155  1  0.43691524  0.43794621  0.68806381  1
  Zn  Zn156  1  0.43838173  0.93848183  0.18806836  1
  Zn  Zn157  1  0.43664789  0.93663487  0.68692086  1
  Zn  Zn158  1  0.93942105  0.43514707  0.18818735  1
  Zn  Zn159  1  0.93911638  0.43710935  0.69106374  1
  Zn  Zn160  1  0.93752496  0.93849264  0.18845631  1
  Zn  Zn161  1  0.93650915  0.93540431  0.68866208  1
  Zn  Zn162  1  0.06237323  0.06305726  0.31456640  1
  Zn  Zn163  1  0.06029721  0.06309978  0.81469861  1
  Zn  Zn164  1  0.06329620  0.56120209  0.31364637  1
  Zn  Zn165  1  0.06310947  0.56153405  0.81285447  1
  Zn  Zn166  1  0.56288249  0.05946857  0.31102721  1
  Zn  Zn167  1  0.56288786  0.06396657  0.81181016  1
  Zn  Zn168  1  0.56253952  0.56332860  0.31153152  1
  Zn  Zn169  1  0.56280229  0.56216184  0.81108263  1
  Zn  Zn170  1  0.43904619  0.18664039  0.43838191  1
  Zn  Zn171  1  0.43739061  0.18935837  0.93548038  1
  Zn  Zn172  1  0.43963703  0.68877352  0.43984270  1
  Zn  Zn173  1  0.43794931  0.68845823  0.93767188  1
  Zn  Zn174  1  0.93818277  0.18627782  0.43511945  1
  Zn  Zn175  1  0.93599292  0.18924824  0.93813299  1
  Zn  Zn176  1  0.93793020  0.68673103  0.43767665  1
  Zn  Zn177  1  0.93720474  0.68574052  0.93824838  1
  Zn  Zn178  1  0.06448228  0.31425972  0.05980114  1
  Zn  Zn179  1  0.05668289  0.31138420  0.56228435  1
  Zn  Zn180  1  0.06211888  0.81689513  0.06353684  1
  Zn  Zn181  1  0.06323746  0.81251245  0.56492762  1
  Zn  Zn182  1  0.56463410  0.31413598  0.06211786  1
  Zn  Zn183  1  0.55727790  0.31009999  0.55948038  1
  Zn  Zn184  1  0.56206355  0.81269844  0.06090795  1
  Zn  Zn185  1  0.55843125  0.80986742  0.55943608  1
  O  O186  1  0.13188345  0.11780200  0.11565658  1
  O  O187  1  0.11888839  0.12040283  0.61904374  1
  O  O188  1  0.12117107  0.62156482  0.12198170  1
  O  O189  1  0.12052995  0.61826099  0.61819418  1
  O  O190  1  0.61188770  0.12313243  0.12416507  1
  O  O191  1  0.61942689  0.11821944  0.61896250  1
  O  O192  1  0.62059672  0.62138011  0.11923296  1
  O  O193  1  0.61968589  0.61405771  0.61936815  1
  O  O194  1  0.38282079  0.38378537  0.37161236  1
  O  O195  1  0.38390541  0.38105820  0.88089077  1
  O  O196  1  0.38282892  0.88155585  0.36878911  1
  O  O197  1  0.38122466  0.87526411  0.88073696  1
  O  O198  1  0.88118961  0.37324080  0.38509552  1
  O  O199  1  0.88813563  0.38302437  0.87145732  1
  O  O200  1  0.88358505  0.87828699  0.37853528  1
  O  O201  1  0.87433616  0.88327432  0.87992351  1
  O  O202  1  0.25881387  0.00080710  0.36953405  1
  O  O203  1  0.25360691  0.00858474  0.87254799  1
  O  O204  1  0.25682813  0.51522184  0.37122906  1
  O  O205  1  0.25469339  0.50608878  0.86930035  1
  O  O206  1  0.75195997  0.00611944  0.36767728  1
  O  O207  1  0.76234492  0.00206494  0.87285383  1
  O  O208  1  0.75118912  0.50205938  0.36274807  1
  O  O209  1  0.75341324  0.50393574  0.86888372  1
  O  O210  1  0.24318796  0.49454743  0.12513278  1
  O  O211  1  0.23945678  0.50680378  0.63568230  1
  O  O212  1  0.24075957  0.99919449  0.13221618  1
  O  O213  1  0.24238642  0.98935739  0.62999599  1
  O  O214  1  0.74584112  0.49970547  0.13375427  1
  O  O215  1  0.74219137  0.49797715  0.63358942  1
  O  O216  1  0.74754804  0.99313295  0.13004940  1
  O  O217  1  0.74193885  0.99184030  0.62577615  1
  O  O218  1  0.00841236  0.37141734  0.25704300  1
  O  O219  1  0.00465864  0.37449928  0.76300377  1
  O  O220  1  0.00582487  0.87004330  0.25603438  1
  O  O221  1  0.00618087  0.86661646  0.75195306  1
  O  O222  1  0.50685660  0.37110953  0.25386716  1
  O  O223  1  0.49090749  0.36547756  0.75949554  1
  O  O224  1  0.51150043  0.87989439  0.25945468  1
  O  O225  1  0.50451895  0.87229477  0.75585458  1
  O  O226  1  0.49650152  0.12905633  0.24218906  1
  O  O227  1  0.49099829  0.13340078  0.74445982  1
  O  O228  1  0.48880612  0.62169615  0.24296798  1
  O  O229  1  0.48942126  0.62305172  0.74517134  1
  O  O230  1  0.98661006  0.12801306  0.25758919  1
  O  O231  1  0.98811351  0.12625849  0.74462994  1
  O  O232  1  0.99684515  0.63067276  0.24538289  1
  O  O233  1  0.99449995  0.62904021  0.74559360  1
  O  O234  1  0.36923272  0.25756920  0.00101564  1
  O  O235  1  0.37446661  0.24781963  0.51403560  1
  O  O236  1  0.36990316  0.75408197  0.00741559  1
  O  O237  1  0.37231085  0.75302681  0.49938449  1
  O  O238  1  0.86560079  0.24349729  0.01346003  1
  O  O239  1  0.87605423  0.25652659  0.50876045  1
  O  O240  1  0.86929327  0.75440098  0.00524321  1
  O  O241  1  0.86875654  0.74925446  0.50725154  1
  O  O242  1  0.12333420  0.24208398  0.49602615  1
  O  O243  1  0.13186589  0.24278267  0.99575303  1
  O  O244  1  0.11743924  0.73629463  0.49482452  1
  O  O245  1  0.13004806  0.74529502  0.99755820  1
  O  O246  1  0.62525113  0.24259878  0.49275568  1
  O  O247  1  0.63797125  0.24860187  1.00016797  1
  O  O248  1  0.62990760  0.74348088  0.49164623  1
  O  O249  1  0.63097756  0.74481558  0.99405139  1
  O  O250  1  0.49937775  0.24241754  0.13007914  1
  O  O251  1  0.49032751  0.24331789  0.63067473  1
  O  O252  1  0.48749217  0.74340984  0.11681786  1
  O  O253  1  0.49626865  0.73930177  0.62730191  1
  O  O254  1  0.98785979  0.25293135  0.12241566  1
  O  O255  1  0.98879432  0.24313326  0.62717719  1
  O  O256  1  0.99559251  0.74547917  0.13110805  1
  O  O257  1  0.99490977  0.74363111  0.63197934  1
  O  O258  1  0.01313191  0.25593526  0.37651583  1
  O  O259  1  0.00443139  0.25963220  0.87680476  1
  O  O260  1  0.00670292  0.75472757  0.36961235  1
  O  O261  1  0.00598363  0.74946511  0.86972556  1
  O  O262  1  0.50540120  0.25481314  0.36852265  1
  O  O263  1  0.49945884  0.25807069  0.86479190  1
  O  O264  1  0.51391063  0.75784295  0.37666376  1
  O  O265  1  0.50695519  0.75628823  0.87391688  1
  O  O266  1  0.23431352  0.12047062  0.50100106  1
  O  O267  1  0.24392268  0.13110572  0.99451045  1
  O  O268  1  0.23949963  0.61934032  0.49123601  1
  O  O269  1  0.24519704  0.63033371  0.99539485  1
  O  O270  1  0.74312615  0.12660560  0.49216080  1
  O  O271  1  0.74671521  0.13819622  0.99927077  1
  O  O272  1  0.74360401  0.63013669  0.49801323  1
  O  O273  1  0.74462125  0.63019930  0.99482442  1
  O  O274  1  0.25537006  0.37091842  0.00422414  1
  O  O275  1  0.25685203  0.38249497  0.50024507  1
  O  O276  1  0.25734775  0.86882665  0.00175543  1
  O  O277  1  0.24571783  0.87850340  0.51660036  1
  O  O278  1  0.74872247  0.36159342  0.00109930  1
  O  O279  1  0.76218297  0.37321919  0.50229929  1
  O  O280  1  0.75445495  0.86906033  0.00540791  1
  O  O281  1  0.75039733  0.86747074  0.50632140  1
  O  O282  1  0.12687770  0.49429367  0.24349901  1
  O  O283  1  0.13302694  0.50154766  0.74181971  1
  O  O284  1  0.12904449  0.99834511  0.24471581  1
  O  O285  1  0.12276715  0.99377277  0.74511224  1
  O  O286  1  0.63319020  0.49730445  0.24478032  1
  O  O287  1  0.63460632  0.50562067  0.74031758  1
  O  O288  1  0.63146725  0.98773926  0.24826939  1
  O  O289  1  0.62480242  0.99243802  0.74192919  1
  O  O290  1  0.37054422  0.00484564  0.25779016  1
  O  O291  1  0.37514043  0.01396974  0.75054794  1
  O  O292  1  0.37435994  0.51203252  0.25494324  1
  O  O293  1  0.36761848  0.50785655  0.75422599  1
  O  O294  1  0.86912273  0.00880646  0.24937528  1
  O  O295  1  0.87372714  0.00754609  0.75680330  1
  O  O296  1  0.86753029  0.50453192  0.24956348  1
  O  O297  1  0.86680921  0.50570464  0.75594300  1
  O  O298  1  0.12109301  0.36895676  0.37143678  1
  O  O299  1  0.11703213  0.36920865  0.87383027  1
  O  O300  1  0.12021812  0.86978597  0.37026083  1
  O  O301  1  0.12428124  0.86824777  0.87090020  1
  O  O302  1  0.61910071  0.36948632  0.36904771  1
  O  O303  1  0.61080061  0.37256986  0.87787362  1
  O  O304  1  0.61947810  0.86845434  0.36729654  1
  O  O305  1  0.62008424  0.86981325  0.86867933  1
  O  O306  1  0.38661166  0.12649585  0.13102898  1
  O  O307  1  0.37890856  0.13057379  0.63119466  1
  O  O308  1  0.37941782  0.63181832  0.13094618  1
  O  O309  1  0.37940046  0.62075748  0.63393258  1
  O  O310  1  0.86989700  0.13792539  0.13570816  1
  O  O311  1  0.87820319  0.13103785  0.63096920  1
  O  O312  1  0.88239937  0.63199394  0.13076774  1
  O  O313  1  0.88053753  0.62916792  0.63068160  1
  O  O314  1  0.25281977  0.25822324  0.11831849  1
  O  O315  1  0.26383370  0.24479620  0.62530473  1
  O  O316  1  0.26176000  0.75150496  0.11925412  1
  O  O317  1  0.24801648  0.76273325  0.63018891  1
  O  O318  1  0.75709011  0.25339120  0.11480732  1
  O  O319  1  0.76111605  0.25217534  0.62293474  1
  O  O320  1  0.75644782  0.75498990  0.11928562  1
  O  O321  1  0.75377283  0.75287003  0.61978878  1
  O  O322  1  0.23690362  0.24959758  0.38093831  1
  O  O323  1  0.24504107  0.24540290  0.88027245  1
  O  O324  1  0.24311000  0.73780324  0.36922806  1
  O  O325  1  0.24411212  0.74348605  0.88126695  1
  O  O326  1  0.74227166  0.24354935  0.37440523  1
  O  O327  1  0.75189817  0.25051419  0.88801604  1
  O  O328  1  0.73904166  0.74997014  0.38064191  1
  O  O329  1  0.74515739  0.74373668  0.88031735  1
  O  O330  1  0.01516573  0.12465052  -0.00484551  1
  O  O331  1  0.00852605  0.11743331  0.50477294  1
  O  O332  1  0.00648722  0.62070119  0.00753859  1
  O  O333  1  0.00786336  0.61944319  0.50552381  1
  O  O334  1  0.49867747  0.11843796  0.00678917  1
  O  O335  1  0.50661529  0.12113081  0.50555824  1
  O  O336  1  0.50603583  0.61869968  0.00397088  1
  O  O337  1  0.50758249  0.61727109  0.50485181  1
  O  O338  1  0.49481601  0.38097367  0.49136379  1
  O  O339  1  0.49564452  0.38042400  0.99199908  1
  O  O340  1  0.49938540  0.87721780  0.48316051  1
  O  O341  1  0.49533573  0.88285226  0.99504679  1
  O  O342  1  0.99101288  0.38040271  0.49542385  1
  O  O343  1  1.00700021  0.38441101  0.98836727  1
  O  O344  1  1.00137419  0.88369798  0.49652308  1
  O  O345  1  0.99068965  0.87849378  0.99796397  1
  O  O346  1  0.49702894  0.49549201  0.37939149  1
  O  O347  1  0.49584504  0.49305650  0.87836756  1
  O  O348  1  0.48991971  0.99175230  0.37382508  1
  O  O349  1  0.49720463  0.99480572  0.88409382  1
  O  O350  1  0.99935141  0.49296982  0.38263234  1
  O  O351  1  0.99586536  0.49532411  0.88050979  1
  O  O352  1  1.00081888  0.99427664  0.38539055  1
  O  O353  1  0.98601277  0.99846111  0.87804944  1
  O  O354  1  0.01439909  -0.00138652  0.12566674  1
  O  O355  1  0.00477657  0.00338781  0.61788918  1
  O  O356  1  0.00535855  0.50591706  0.12119926  1
  O  O357  1  0.00764526  0.50656313  0.62196842  1
  O  O358  1  0.50075930  0.00803281  0.11673104  1
  O  O359  1  0.50490294  0.00472233  0.62187117  1
  O  O360  1  0.50648119  0.50678286  0.11825850  1
  O  O361  1  0.50702050  0.50342341  0.62085565  1
  O  O362  1  0.24382935  0.37790768  0.24367796  1
  O  O363  1  0.24993582  0.38974919  0.75766729  1
  O  O364  1  0.24213089  0.88315988  0.24897010  1
  O  O365  1  0.24257788  0.87667579  0.74166669  1
  O  O366  1  0.74507896  0.38523605  0.24887443  1
  O  O367  1  0.75544329  0.38823275  0.74989336  1
  O  O368  1  0.74348136  0.87974478  0.24483798  1
  O  O369  1  0.74150969  0.87520333  0.74203612  1
  O  O370  1  0.25809874  0.11983512  0.25352497  1
  O  O371  1  0.25870075  0.12409439  0.75607574  1
  O  O372  1  0.26167445  0.62395602  0.25833371  1
  O  O373  1  0.25650067  0.61586893  0.75632802  1
  O  O374  1  0.75671266  0.11963393  0.25413286  1
  O  O375  1  0.76272258  0.12302881  0.75043645  1
  O  O376  1  0.75656468  0.61566965  0.24976484  1
  O  O377  1  0.75513136  0.61552397  0.75586289  1
  O  O378  1  0.37523594  0.11527440  0.37060501  1
  O  O379  1  0.36959203  0.12689862  0.86441581  1
  O  O380  1  0.37148424  0.62338074  0.36748006  1
  O  O381  1  0.37080717  0.61932930  0.86839362  1
  O  O382  1  0.86773503  0.12507461  0.36575863  1
  O  O383  1  0.87473368  0.11853682  0.86668396  1
  O  O384  1  0.87374842  0.62197060  0.36684495  1
  O  O385  1  0.86878924  0.61880236  0.86989443  1
  O  O386  1  0.13042296  0.38055526  0.12988721  1
  O  O387  1  0.11700573  0.38886642  0.62539057  1
  O  O388  1  0.12750670  0.88515885  0.13185965  1
  O  O389  1  0.13307584  0.87783244  0.63186748  1
  O  O390  1  0.62698577  0.38378192  0.13174860  1
  O  O391  1  0.62430392  0.38744071  0.61831699  1
  O  O392  1  0.63023225  0.87224347  0.13372486  1
  O  O393  1  0.62729566  0.87753599  0.62832938  1
  O  O394  1  0.12429687  0.25439578  0.25869076  1
  O  O395  1  0.12171632  0.25115110  0.75737192  1
  O  O396  1  0.11973765  0.75568977  0.25519423  1
  O  O397  1  0.11905368  0.75271925  0.75766769  1
  O  O398  1  0.62034009  0.25543253  0.25405827  1
  O  O399  1  0.61037669  0.24645572  0.74509458  1
  O  O400  1  0.63290374  0.76039887  0.25862773  1
  O  O401  1  0.62334178  0.75429649  0.75646928  1
  O  O402  1  0.38272437  0.24384833  0.25021101  1
  O  O403  1  0.38095449  0.24144201  0.73940456  1
  O  O404  1  0.37101374  0.74137970  0.23911260  1
  O  O405  1  0.37250123  0.73437559  0.74874313  1
  O  O406  1  0.87628456  0.24321752  0.23866338  1
  O  O407  1  0.87596585  0.24207419  0.74178174  1
  O  O408  1  0.88066599  0.74577117  0.24470677  1
  O  O409  1  0.87884362  0.74308366  0.74527213  1
  O  O410  1  0.38454236  0.50313418  0.49194580  1
  O  O411  1  0.38172141  0.49652302  0.99421939  1
  O  O412  1  0.37363035  0.99361580  0.48712747  1
  O  O413  1  0.38515810  0.99477542  1.00050462  1
  O  O414  1  0.88019050  0.49067131  0.50133791  1
  O  O415  1  0.88345950  0.50790306  0.99260250  1
  O  O416  1  0.88822638  1.00079426  0.50062111  1
  O  O417  1  0.87478769  0.99675123  0.99329978  1
  O  O418  1  0.12486992  0.00849592  0.00864557  1
  O  O419  1  0.11494824  0.00673221  0.50547999  1
  O  O420  1  0.11886457  0.50750839  0.00650288  1
  O  O421  1  0.11940315  0.50982725  0.50719960  1
  O  O422  1  0.61203704  -0.00013137  0.00186399  1
  O  O423  1  0.62233409  0.00565722  0.50501774  1
  O  O424  1  0.62139607  0.50579502  0.00459234  1
  O  O425  1  0.62125339  0.50395029  0.50710782  1
  O  O426  1  0.37010983  0.37643627  0.11811662  1
  O  O427  1  0.38023217  0.35836577  0.62515878  1
  O  O428  1  0.37567503  0.86667052  0.12059257  1
  O  O429  1  0.35938669  0.87432954  0.62645785  1
  O  O430  1  0.87281850  0.35869978  0.13156423  1
  O  O431  1  0.87741997  0.36625068  0.61762746  1
  O  O432  1  0.86972798  0.86982765  0.12042218  1
  O  O433  1  0.86765837  0.86687166  0.62379813  1
  O  O434  1  0.12529949  0.13340099  0.38428267  1
  O  O435  1  0.13028992  0.13024517  0.88287920  1
  O  O436  1  0.13256949  0.62874569  0.38189146  1
  O  O437  1  0.12995376  0.62984574  0.88210108  1
  O  O438  1  0.62920541  0.12913026  0.37760206  1
  O  O439  1  0.62868337  0.13116438  0.87575999  1
  O  O440  1  0.62558303  0.63384563  0.37890670  1
  O  O441  1  0.63037163  0.62910193  0.88021955  1
