# generated using pymatgen
data_V93Zn93O256
_symmetry_space_group_name_H-M   'P 1'
_cell_length_a   17.05834994
_cell_length_b   17.05242283
_cell_length_c   17.05972542
_cell_angle_alpha   89.90098116
_cell_angle_beta   89.97421412
_cell_angle_gamma   90.09785544
_symmetry_Int_Tables_number   1
_chemical_formula_structural   V93Zn93O256
_chemical_formula_sum   'V93 Zn93 O256'
_cell_volume   4962.42347627
_cell_formula_units_Z   1
loop_
 _symmetry_equiv_pos_site_id
 _symmetry_equiv_pos_as_xyz
  1  'x, y, z'
loop_
 _atom_site_type_symbol
 _atom_site_label
 _atom_site_symmetry_multiplicity
 _atom_site_fract_x
 _atom_site_fract_y
 _atom_site_fract_z
 _atom_site_occupancy
  V  V0  1  0.62607506  0.25103897  0.87598806  1
  V  V1  1  0.00266674  0.25185605  0.24938927  1
  V  V2  1  0.24964182  0.87383705  0.12468203  1
  V  V3  1  0.62146240  0.87469689  0.75219145  1
  V  V4  1  0.87446742  0.62517762  0.25261751  1
  V  V5  1  0.12529314  0.49192747  0.13018821  1
  V  V6  1  0.12571347  0.24732042  0.87484810  1
  V  V7  1  -0.00146348  0.87137057  0.87480052  1
  V  V8  1  0.00003891  -0.00072199  0.50006728  1
  V  V9  1  0.62477046  0.00173032  0.12654908  1
  V  V10  1  0.37903261  0.12912482  0.24987525  1
  V  V11  1  -0.00100589  0.49794203  -0.00019432  1
  V  V12  1  -0.00306445  0.62963785  0.63149863  1
  V  V13  1  -0.00255770  0.37476964  0.87363544  1
  V  V14  1  0.12427598  0.62245034  0.50082843  1
  V  V15  1  0.37442705  0.00124504  0.87561890  1
  V  V16  1  0.62469919  0.62455988  0.50247972  1
  V  V17  1  0.12713355  0.62442997  0.00063996  1
  V  V18  1  0.00169116  0.24965047  0.74895578  1
  V  V19  1  0.49900890  0.12617730  0.62538818  1
  V  V20  1  0.13054641  0.49930812  0.63105670  1
  V  V21  1  0.76266755  0.50675918  0.74750011  1
  V  V22  1  0.25241205  0.74995618  -0.00130904  1
  V  V23  1  0.74971531  0.74931352  0.50446133  1
  V  V24  1  0.24936748  -0.00036370  0.24935329  1
  V  V25  1  0.37377707  0.87427806  0.50126491  1
  V  V26  1  0.74838749  0.87408738  0.62475147  1
  V  V27  1  -0.00005528  0.12398194  0.62500823  1
  V  V28  1  0.37537682  0.12573745  0.75059516  1
  V  V29  1  0.87425625  0.75182091  0.12742124  1
  V  V30  1  0.61741153  0.25090142  0.36968490  1
  V  V31  1  0.00188723  0.00038937  0.00041293  1
  V  V32  1  0.37422602  0.00020352  0.37494746  1
  V  V33  1  0.74985368  0.37485524  0.12310690  1
  V  V34  1  0.87345934  0.87395625  0.50119992  1
  V  V35  1  0.12265351  0.74879436  0.87320273  1
  V  V36  1  0.00112018  0.12529069  0.12454590  1
  V  V37  1  0.74985324  0.12585386  0.37444491  1
  V  V38  1  0.62947054  0.37737511  0.74811150  1
  V  V39  1  0.12605626  0.25379141  0.36962227  1
  V  V40  1  0.25102834  0.74958502  0.50009067  1
  V  V41  1  0.87495699  0.25200608  0.12419964  1
  V  V42  1  0.49858534  0.62395436  0.62606860  1
  V  V43  1  0.62425938  0.87676225  0.25143251  1
  V  V44  1  0.61547508  0.37206902  0.24746803  1
  V  V45  1  0.00287534  0.37554260  0.37045760  1
  V  V46  1  0.87445467  0.37308424  0.49747418  1
  V  V47  1  0.74868928  0.00193580  0.74956657  1
  V  V48  1  0.75085945  0.62432739  0.37711283  1
  V  V49  1  0.12425029  0.74961388  0.37463783  1
  V  V50  1  0.50044373  0.12802840  0.12617158  1
  V  V51  1  0.62485926  0.74925673  0.37626466  1
  V  V52  1  0.87603504  0.24980867  0.62252153  1
  V  V53  1  0.49868221  0.74839001  0.25031341  1
  V  V54  1  0.24930502  0.00082608  0.75079410  1
  V  V55  1  0.25277447  0.62232320  0.37281000  1
  V  V56  1  0.49594171  0.75059220  0.75147363  1
  V  V57  1  0.12477466  -0.00101257  0.62601716  1
  V  V58  1  0.62656231  0.50431962  0.12054028  1
  V  V59  1  0.49833697  0.87574582  0.87567725  1
  V  V60  1  0.25042880  0.37733051  0.62949177  1
  V  V61  1  0.75028390  0.25023314  0.49891188  1
  V  V62  1  0.12479149  0.12482535  0.49975357  1
  V  V63  1  0.49964080  0.49811895  0.49668626  1
  V  V64  1  0.62598469  0.12634919  0.00011811  1
  V  V65  1  0.87490041  0.49966515  0.37567181  1
  V  V66  1  0.24653756  0.49239489  0.25048228  1
  V  V67  1  0.62435655  0.12582737  0.49876863  1
  V  V68  1  0.00105684  0.62423308  0.12769496  1
  V  V69  1  0.74950637  -0.00004662  0.24979286  1
  V  V70  1  0.25087251  0.25042634  0.50095332  1
  V  V71  1  0.49861142  0.00145966  -0.00028744  1
  V  V72  1  0.87022471  0.87491521  0.00245371  1
  V  V73  1  0.50023390  0.25058555  0.74922834  1
  V  V74  1  0.00059348  0.75037120  0.25167637  1
  V  V75  1  0.25105111  0.24976512  -0.00016073  1
  V  V76  1  0.37084370  0.60922512  0.75312270  1
  V  V77  1  0.50206049  0.50587223  -0.00334447  1
  V  V78  1  0.87548657  0.12589125  0.24967479  1
  V  V79  1  0.87548411  0.00056587  0.37476213  1
  V  V80  1  0.12061170  0.87013673  0.75048308  1
  V  V81  1  0.74967047  0.12564119  0.87464377  1
  V  V82  1  0.25366452  0.61055645  0.87294174  1
  V  V83  1  0.00035719  0.87459556  0.37521878  1
  V  V84  1  0.37331578  0.74956123  0.62649285  1
  V  V85  1  0.62392829  0.00138293  0.62374045  1
  V  V86  1  0.38045791  0.25279838  0.12792631  1
  V  V87  1  0.37511046  0.38089770  -0.00271087  1
  V  V88  1  0.50283748  0.62788681  0.12192860  1
  V  V89  1  0.87451941  0.12427859  0.74994197  1
  V  V90  1  0.49907402  0.87395342  0.37584506  1
  V  V91  1  0.49884167  -0.00010714  0.50023676  1
  V  V92  1  0.49747292  0.38149489  0.87328988  1
  Zn  Zn93  1  0.24936750  0.12555450  0.37462487  1
  Zn  Zn94  1  0.74860766  0.50027660  0.25072575  1
  Zn  Zn95  1  0.37578961  0.62337379  0.24840481  1
  Zn  Zn96  1  0.13066541  0.37756787  0.75206982  1
  Zn  Zn97  1  0.75205755  0.37412888  0.62387947  1
  Zn  Zn98  1  0.12580328  0.00200558  0.12582044  1
  Zn  Zn99  1  0.74674229  0.87256879  0.12503261  1
  Zn  Zn100  1  0.73831838  0.73361202  0.00637256  1
  Zn  Zn101  1  0.62206871  0.73606453  0.89010829  1
  Zn  Zn102  1  0.24758166  0.37213294  0.13020811  1
  Zn  Zn103  1  0.37684100  0.37486901  0.49861585  1
  Zn  Zn104  1  0.12462971  0.87546732  0.25046864  1
  Zn  Zn105  1  0.87182734  0.74753547  0.63330725  1
  Zn  Zn106  1  0.62732252  0.49956148  0.62420361  1
  Zn  Zn107  1  0.75214931  0.25041931  -0.00131056  1
  Zn  Zn108  1  0.12647893  0.12413455  0.00207456  1
  Zn  Zn109  1  0.75567951  0.63297070  0.87550942  1
  Zn  Zn110  1  0.87477563  0.00022246  0.87499277  1
  Zn  Zn111  1  0.25048358  0.12476391  0.87527071  1
  Zn  Zn112  1  0.37477163  0.87625915  0.00016520  1
  Zn  Zn113  1  0.87201675  0.37564868  -0.00301912  1
  Zn  Zn114  1  0.37636102  0.49496535  0.37125111  1
  Zn  Zn115  1  0.24862404  0.87395988  0.62604077  1
  Zn  Zn116  1  -0.06294019  0.69437287  0.79161551  1
  Zn  Zn117  1  0.49651053  0.37311805  0.37166922  1
  Zn  Zn118  1  -0.00034745  0.49795160  0.50119550  1
  Zn  Zn119  1  0.37476409  0.25135076  0.62469571  1
  Zn  Zn120  1  0.88177984  0.51285219  0.86694626  1
  Zn  Zn121  1  0.37486389  0.74875480  0.12655042  1
  Zn  Zn122  1  0.18941231  0.18654505  0.18610296  1
  Zn  Zn123  1  0.18792458  0.18730065  0.68792174  1
  Zn  Zn124  1  0.18600615  0.68486204  0.18795477  1
  Zn  Zn125  1  0.19020829  0.68619114  0.68964581  1
  Zn  Zn126  1  0.68805185  0.18929147  0.18787196  1
  Zn  Zn127  1  0.68723016  0.18956406  0.68681071  1
  Zn  Zn128  1  0.68790260  0.68859850  0.18849766  1
  Zn  Zn129  1  0.68158739  0.68235750  0.70059702  1
  Zn  Zn130  1  0.31417719  0.31370048  0.31517091  1
  Zn  Zn131  1  0.31455630  0.31318338  0.81207712  1
  Zn  Zn132  1  0.31346495  0.81069566  0.31193487  1
  Zn  Zn133  1  0.31057628  0.81191943  0.81253013  1
  Zn  Zn134  1  0.80990918  0.31335743  0.30996766  1
  Zn  Zn135  1  0.81363199  0.31218440  0.81073328  1
  Zn  Zn136  1  0.81139613  0.81223973  0.31390592  1
  Zn  Zn137  1  0.80680206  0.81349718  0.81702004  1
  Zn  Zn138  1  0.18780975  0.43654398  0.44054138  1
  Zn  Zn139  1  0.18343352  0.43292678  0.94215368  1
  Zn  Zn140  1  0.18751373  0.93663594  0.43707817  1
  Zn  Zn141  1  0.18653973  0.93656076  0.93585705  1
  Zn  Zn142  1  0.68615927  0.43667840  0.43592374  1
  Zn  Zn143  1  0.69008790  0.44518735  0.93363470  1
  Zn  Zn144  1  0.68733685  0.93723708  0.43726589  1
  Zn  Zn145  1  0.68613997  0.93803971  0.93657367  1
  Zn  Zn146  1  0.31359336  0.06394018  0.06318099  1
  Zn  Zn147  1  0.31129730  0.06319619  0.56458390  1
  Zn  Zn148  1  0.31378522  0.56278586  0.06434369  1
  Zn  Zn149  1  0.31519007  0.56110099  0.56281307  1
  Zn  Zn150  1  0.81255302  0.06224742  0.06280649  1
  Zn  Zn151  1  0.81210991  0.06202546  0.56217692  1
  Zn  Zn152  1  0.81397866  0.56347381  0.06216174  1
  Zn  Zn153  1  0.81299192  0.55856003  0.56361880  1
  Zn  Zn154  1  0.43399460  0.44246858  0.18511037  1
  Zn  Zn155  1  0.43862224  0.43477807  0.68096660  1
  Zn  Zn156  1  0.43644433  0.93785231  0.18671321  1
  Zn  Zn157  1  0.43498360  0.93844059  0.68726119  1
  Zn  Zn158  1  0.93564342  0.43807302  0.18949603  1
  Zn  Zn159  1  0.94457573  0.43600175  0.68197952  1
  Zn  Zn160  1  0.93800944  0.93784745  0.18691149  1
  Zn  Zn161  1  0.93491764  0.93340414  0.68944160  1
  Zn  Zn162  1  0.06371253  0.06508524  0.31262161  1
  Zn  Zn163  1  0.06198338  0.06054348  0.81351629  1
  Zn  Zn164  1  0.06314060  0.56114579  0.31271980  1
  Zn  Zn165  1  0.07083161  0.56056109  0.81307721  1
  Zn  Zn166  1  0.56096055  0.06311077  0.31285914  1
  Zn  Zn167  1  0.56183747  0.06291388  0.81353992  1
  Zn  Zn168  1  0.56494340  0.56146868  0.30981589  1
  Zn  Zn169  1  0.56623026  0.56387187  0.81020214  1
  Zn  Zn170  1  0.43556222  0.18610386  0.43756334  1
  Zn  Zn171  1  0.43880832  0.18977317  0.93679021  1
  Zn  Zn172  1  0.43735630  0.68587522  0.43898454  1
  Zn  Zn173  1  0.43474987  0.68771950  0.93377250  1
  Zn  Zn174  1  0.93885586  0.18787542  0.43668543  1
  Zn  Zn175  1  0.93539274  0.18736837  0.93878425  1
  Zn  Zn176  1  0.93670001  0.68840988  0.44194019  1
  Zn  Zn177  1  0.93316176  0.68613473  0.94998489  1
  Zn  Zn178  1  0.06164611  0.31174034  0.06091671  1
  Zn  Zn179  1  0.06393578  0.31345280  0.55942212  1
  Zn  Zn180  1  0.06365589  0.81314298  0.06284467  1
  Zn  Zn181  1  0.06333247  0.81149214  0.56265555  1
  Zn  Zn182  1  0.56278203  0.31459663  0.05954198  1
  Zn  Zn183  1  0.56337862  0.31231586  0.56153614  1
  Zn  Zn184  1  0.56150125  0.81644578  0.06329404  1
  Zn  Zn185  1  0.56152630  0.81096354  0.56470122  1
  O  O186  1  0.11735324  0.12368848  0.12189703  1
  O  O187  1  0.11857645  0.11928373  0.62009202  1
  O  O188  1  0.11983399  0.61553252  0.11949952  1
  O  O189  1  0.12199466  0.61877230  0.61814588  1
  O  O190  1  0.61976000  0.12188473  0.12141699  1
  O  O191  1  0.61946940  0.12074866  0.61868569  1
  O  O192  1  0.61566820  0.61441788  0.13046572  1
  O  O193  1  0.61610828  0.62452438  0.62007685  1
  O  O194  1  0.38069307  0.37683593  0.38034363  1
  O  O195  1  0.38699989  0.36976785  0.88444494  1
  O  O196  1  0.38032707  0.87973592  0.38098652  1
  O  O197  1  0.38069373  0.88306013  0.87573402  1
  O  O198  1  0.88180940  0.37831119  0.37803382  1
  O  O199  1  0.88993064  0.37496750  0.87544919  1
  O  O200  1  0.88019461  0.88084329  0.38134421  1
  O  O201  1  0.88150973  0.87895825  0.88743759  1
  O  O202  1  0.25587246  0.00092791  0.36597260  1
  O  O203  1  0.25534569  0.00292214  0.87004098  1
  O  O204  1  0.24607951  0.50708702  0.36797292  1
  O  O205  1  0.24277326  0.51193995  0.88366154  1
  O  O206  1  0.75523199  0.00635109  0.37045282  1
  O  O207  1  0.75026192  0.00802819  0.86687408  1
  O  O208  1  0.75621038  0.50664910  0.37377081  1
  O  O209  1  0.75782870  0.49967259  0.85806034  1
  O  O210  1  0.24174751  0.50005774  0.13233302  1
  O  O211  1  0.24154139  0.48881370  0.61448600  1
  O  O212  1  0.25051336  0.99271903  0.13231800  1
  O  O213  1  0.24214342  0.99774613  0.63127957  1
  O  O214  1  0.74179605  0.49248355  0.12522010  1
  O  O215  1  0.74830949  0.49243580  0.63392417  1
  O  O216  1  0.74267163  1.00049582  0.13350863  1
  O  O217  1  0.74255675  0.99583230  0.62909654  1
  O  O218  1  -0.00533074  0.36834615  0.26275458  1
  O  O219  1  0.00499127  0.36823040  0.75804627  1
  O  O220  1  0.00153262  0.86938115  0.25743875  1
  O  O221  1  0.01372818  0.88461234  0.75801059  1
  O  O222  1  0.51233225  0.38106947  0.24746333  1
  O  O223  1  0.50703877  0.37306444  0.75648500  1
  O  O224  1  0.50409593  0.87060946  0.25658395  1
  O  O225  1  0.50415260  0.87279261  0.75445260  1
  O  O226  1  0.48597706  0.11918592  0.24372147  1
  O  O227  1  0.49633414  0.13075473  0.74484452  1
  O  O228  1  0.50039034  0.62992018  0.24030339  1
  O  O229  1  0.48903446  0.63046089  0.74547052  1
  O  O230  1  0.99419796  0.13102021  0.24498852  1
  O  O231  1  0.99506033  0.12935739  0.74458776  1
  O  O232  1  0.99471694  0.63045410  0.24723181  1
  O  O233  1  1.00813713  0.62214367  0.73612856  1
  O  O234  1  0.36906673  0.25854214  0.00639416  1
  O  O235  1  0.36161413  0.24777359  0.50078704  1
  O  O236  1  0.36232430  0.75200468  0.00167872  1
  O  O237  1  0.37047615  0.75429567  0.50581007  1
  O  O238  1  0.87312567  0.25480484  0.00841675  1
  O  O239  1  0.86958290  0.25280607  0.50252241  1
  O  O240  1  0.87766188  0.76350843  0.01146653  1
  O  O241  1  0.86769823  0.75639589  0.50561358  1
  O  O242  1  0.13187452  0.24428921  0.49135488  1
  O  O243  1  0.13456237  0.25138827  0.99244479  1
  O  O244  1  0.13075928  0.74070902  0.49482215  1
  O  O245  1  0.13308512  0.74388151  0.99561031  1
  O  O246  1  0.63100926  0.24461966  0.49166509  1
  O  O247  1  0.62648687  0.24410719  0.99362617  1
  O  O248  1  0.62901643  0.74473170  0.49520740  1
  O  O249  1  0.62676657  0.75644958  1.00028284  1
  O  O250  1  0.48716683  0.24572108  0.11738217  1
  O  O251  1  0.49939953  0.24344060  0.63060126  1
  O  O252  1  0.50011463  0.74175565  0.13078755  1
  O  O253  1  0.49231516  0.74376173  0.63010702  1
  O  O254  1  0.99587322  0.24676802  0.13023776  1
  O  O255  1  0.99695421  0.24348872  0.62825738  1
  O  O256  1  0.99675278  0.74411072  0.13173851  1
  O  O257  1  1.00284412  0.73222230  0.62024581  1
  O  O258  1  0.00724280  0.25600565  0.36986686  1
  O  O259  1  0.00739262  0.25606000  0.87162912  1
  O  O260  1  0.00423446  0.75478955  0.37169911  1
  O  O261  1  0.00705294  0.75382679  0.87879871  1
  O  O262  1  0.51462290  0.25007215  0.38137452  1
  O  O263  1  0.50646146  0.26125293  0.87014721  1
  O  O264  1  0.50517515  0.75416998  0.37150217  1
  O  O265  1  0.50094760  0.75782824  0.86835812  1
  O  O266  1  0.24339456  0.13354895  0.49919317  1
  O  O267  1  0.25046751  0.13872931  0.99836448  1
  O  O268  1  0.24189529  0.62828826  0.49269845  1
  O  O269  1  0.24745106  0.63197083  0.99454288  1
  O  O270  1  0.74380231  0.12916868  0.49362714  1
  O  O271  1  0.74332678  0.12546884  0.99357442  1
  O  O272  1  0.74493357  0.62931783  0.49714542  1
  O  O273  1  0.75588454  0.62195537  0.99096010  1
  O  O274  1  0.25968500  0.36658968  0.00019767  1
  O  O275  1  0.24937085  0.36421993  0.50784517  1
  O  O276  1  0.24900369  0.86654973  0.00740241  1
  O  O277  1  0.25632540  0.86782913  0.50012332  1
  O  O278  1  0.75008561  0.37638232  0.01104569  1
  O  O279  1  0.75593666  0.36746762  0.49956633  1
  O  O280  1  0.76467846  0.88547510  0.00376912  1
  O  O281  1  0.75286527  0.86975860  0.50458971  1
  O  O282  1  0.13265111  0.50572857  0.23961252  1
  O  O283  1  0.12611044  0.49710592  0.73545969  1
  O  O284  1  0.13825401  1.00003981  0.25031435  1
  O  O285  1  0.13014146  0.99354393  0.74576582  1
  O  O286  1  0.62732994  0.49128808  0.23786331  1
  O  O287  1  0.63776696  0.48936130  0.74785358  1
  O  O288  1  0.62927015  0.99682157  0.24689367  1
  O  O289  1  0.62704232  0.99424499  0.74291516  1
  O  O290  1  0.36701597  0.00716499  0.25424398  1
  O  O291  1  0.36953451  0.00588324  0.75547004  1
  O  O292  1  0.36302045  0.50477766  0.25123047  1
  O  O293  1  0.37922492  0.51084605  0.74469785  1
  O  O294  1  0.87061136  0.00607328  0.25603001  1
  O  O295  1  0.86718637  0.00673515  0.75058178  1
  O  O296  1  0.87290611  0.50779179  0.25739659  1
  O  O297  1  0.86473058  0.48748179  0.74687097  1
  O  O298  1  0.11484453  0.36432830  0.38240853  1
  O  O299  1  0.11670399  0.36492804  0.87407337  1
  O  O300  1  0.11809726  0.86766500  0.37467933  1
  O  O301  1  0.11913318  0.86866008  0.86910709  1
  O  O302  1  0.62452959  0.36720178  0.36424332  1
  O  O303  1  0.61774652  0.37176027  0.86701929  1
  O  O304  1  0.61798933  0.86970818  0.37161634  1
  O  O305  1  0.61587293  0.88211717  0.86171932  1
  O  O306  1  0.37992703  0.13355300  0.13109193  1
  O  O307  1  0.38198796  0.12650481  0.63222856  1
  O  O308  1  0.38976244  0.62602266  0.12589461  1
  O  O309  1  0.37764199  0.63030153  0.63322674  1
  O  O310  1  0.88041901  0.13136329  0.13100703  1
  O  O311  1  0.88085759  0.12984165  0.62925870  1
  O  O312  1  0.88274770  0.63002504  0.13284694  1
  O  O313  1  0.89459783  0.62261939  0.61867311  1
  O  O314  1  0.25909181  0.25241842  0.11632436  1
  O  O315  1  0.24698728  0.25695580  0.61463436  1
  O  O316  1  0.24861880  0.75516852  0.11647432  1
  O  O317  1  0.25548637  0.75048462  0.61714537  1
  O  O318  1  0.75516696  0.25951647  0.12339877  1
  O  O319  1  0.75766004  0.25031521  0.61718167  1
  O  O320  1  0.75876680  0.75337636  0.12547847  1
  O  O321  1  0.74753433  0.75628898  0.62065335  1
  O  O322  1  0.24131840  0.25004437  0.38284454  1
  O  O323  1  0.24247273  0.25175909  0.88282734  1
  O  O324  1  0.24471839  0.74100827  0.37919886  1
  O  O325  1  0.24323538  0.74593190  0.88564599  1
  O  O326  1  0.74164937  0.24424579  0.37892455  1
  O  O327  1  0.74407859  0.24433904  0.87590407  1
  O  O328  1  0.74432529  0.74461783  0.38340381  1
  O  O329  1  0.74330866  0.75292118  0.88464477  1
  O  O330  1  -0.00037804  0.11598642  0.00551611  1
  O  O331  1  0.00453120  0.11894512  0.50497353  1
  O  O332  1  0.00718309  0.61610658  0.00770366  1
  O  O333  1  0.01274420  0.62331858  0.50629244  1
  O  O334  1  0.50601247  0.12118126  0.00559660  1
  O  O335  1  0.50483274  0.11903120  0.50477279  1
  O  O336  1  0.49418847  0.61425648  0.00526290  1
  O  O337  1  0.50521506  0.61874244  0.50551089  1
  O  O338  1  0.50187027  0.38634926  0.49874520  1
  O  O339  1  0.49394166  0.38306809  0.99212124  1
  O  O340  1  0.49420429  0.88006900  0.49530297  1
  O  O341  1  0.49622153  0.88483977  0.99446918  1
  O  O342  1  0.99327691  0.37335623  0.48707638  1
  O  O343  1  1.00144227  0.38267863  0.99073218  1
  O  O344  1  0.99487677  0.88001910  0.49509028  1
  O  O345  1  0.99381277  0.88227636  0.99678154  1
  O  O346  1  0.50046889  0.50106150  0.38470689  1
  O  O347  1  0.50949615  0.49100796  0.88309123  1
  O  O348  1  0.49411029  0.99445916  0.38096959  1
  O  O349  1  0.49398480  0.99630347  0.88046823  1
  O  O350  1  0.99592021  0.49059653  0.37612171  1
  O  O351  1  1.00481116  0.49179650  0.88187948  1
  O  O352  1  0.99523624  0.99565269  0.38007960  1
  O  O353  1  0.99877296  0.99358508  0.88533589  1
  O  O354  1  0.00246343  0.00552456  0.11751862  1
  O  O355  1  0.00453709  0.00466236  0.61919189  1
  O  O356  1  0.00652242  0.50293571  0.12006950  1
  O  O357  1  0.01197247  0.50955635  0.62028022  1
  O  O358  1  0.50456399  0.00742696  0.12030910  1
  O  O359  1  0.50417031  0.00599155  0.61902015  1
  O  O360  1  0.50772548  0.50739669  0.11660112  1
  O  O361  1  0.50323359  0.50609988  0.61463378  1
  O  O362  1  0.25230107  0.38814891  0.24955082  1
  O  O363  1  0.24885836  0.36623056  0.73447554  1
  O  O364  1  0.25047124  0.88313478  0.24319038  1
  O  O365  1  0.23840970  0.88243331  0.75011364  1
  O  O366  1  0.74014999  0.37687030  0.23788296  1
  O  O367  1  0.74180683  0.37852184  0.74845040  1
  O  O368  1  0.74228158  0.88251308  0.25213305  1
  O  O369  1  0.73777002  0.88346587  0.74435256  1
  O  O370  1  0.26110583  0.11566460  0.24899179  1
  O  O371  1  0.25644052  0.11941335  0.75189475  1
  O  O372  1  0.24904788  0.61692949  0.25976371  1
  O  O373  1  0.25862797  0.62897002  0.76121878  1
  O  O374  1  0.75583722  0.12003136  0.25539329  1
  O  O375  1  0.75401769  0.12118167  0.75407505  1
  O  O376  1  0.75665555  0.62496401  0.25890210  1
  O  O377  1  0.76161570  0.60705984  0.73718887  1
  O  O378  1  0.37323933  0.11998785  0.36539027  1
  O  O379  1  0.37527576  0.12006905  0.86821616  1
  O  O380  1  0.36060049  0.62293961  0.37657346  1
  O  O381  1  0.36504989  0.62781453  0.86520445  1
  O  O382  1  0.87032350  0.12040238  0.36959313  1
  O  O383  1  0.86868701  0.12436670  0.86739096  1
  O  O384  1  0.87089360  0.62016347  0.37282151  1
  O  O385  1  0.88054677  0.62851091  0.86742717  1
  O  O386  1  0.12720714  0.38794729  0.11849404  1
  O  O387  1  0.13132966  0.38304392  0.62349201  1
  O  O388  1  0.13795449  0.87718852  0.12839620  1
  O  O389  1  0.12442783  0.88009369  0.63356072  1
  O  O390  1  0.63014116  0.38070944  0.12957007  1
  O  O391  1  0.62599825  0.37399037  0.63795702  1
  O  O392  1  0.62468077  0.88510507  0.13489900  1
  O  O393  1  0.62726991  0.88331614  0.63066219  1
  O  O394  1  0.12136782  0.24397676  0.26228853  1
  O  O395  1  0.11995536  0.25027074  0.75983757  1
  O  O396  1  0.11811097  0.74961064  0.25719067  1
  O  O397  1  0.13155419  0.76224601  0.75631661  1
  O  O398  1  0.62902655  0.25839496  0.25884341  1
  O  O399  1  0.62008595  0.25775981  0.75575251  1
  O  O400  1  0.61906634  0.75630083  0.25727566  1
  O  O401  1  0.61415923  0.76915358  0.74063298  1
  O  O402  1  0.36586787  0.24090385  0.23897895  1
  O  O403  1  0.38332744  0.24400445  0.74896289  1
  O  O404  1  0.38295374  0.74525626  0.24820619  1
  O  O405  1  0.37954137  0.74701672  0.74386202  1
  O  O406  1  0.88097654  0.24459908  0.24473182  1
  O  O407  1  0.88209167  0.24400195  0.74300322  1
  O  O408  1  0.88129797  0.74507399  0.24777622  1
  O  O409  1  0.88087183  0.77454886  0.74208148  1
  O  O410  1  0.38775229  0.50070470  0.49693820  1
  O  O411  1  0.38571647  0.48814686  1.00770505  1
  O  O412  1  0.37926371  0.99566333  0.49500101  1
  O  O413  1  0.38099508  1.00136149  0.99401220  1
  O  O414  1  0.87750084  0.49183938  0.49251147  1
  O  O415  1  0.89197523  0.49777031  0.99820880  1
  O  O416  1  0.88012009  0.99559865  0.49331498  1
  O  O417  1  0.88683396  0.99348683  1.00168051  1
  O  O418  1  0.11373030  0.00100356  0.00122109  1
  O  O419  1  0.11947889  0.00431028  0.50458421  1
  O  O420  1  0.11629225  0.50445546  0.00863354  1
  O  O421  1  0.12437300  0.50989116  0.50704945  1
  O  O422  1  0.61871472  0.00674684  0.00626326  1
  O  O423  1  0.61879841  0.00599355  0.50340073  1
  O  O424  1  0.61402911  0.49265563  0.01049712  1
  O  O425  1  0.61773534  0.50636988  0.50089244  1
  O  O426  1  0.37487694  0.36751282  0.11585201  1
  O  O427  1  0.36535252  0.37105704  0.61925509  1
  O  O428  1  0.36180656  0.87255822  0.12317347  1
  O  O429  1  0.37275998  0.86876260  0.61828234  1
  O  O430  1  0.86506900  0.37162235  0.12545762  1
  O  O431  1  0.87853496  0.36588467  0.61505311  1
  O  O432  1  0.87396962  0.87026879  0.11942084  1
  O  O433  1  0.86572412  0.87902477  0.61530201  1
  O  O434  1  0.12593255  0.13559138  0.38170675  1
  O  O435  1  0.12552249  0.13734458  0.87854709  1
  O  O436  1  0.13204348  0.62821490  0.38314741  1
  O  O437  1  0.13370700  0.62991021  0.88071718  1
  O  O438  1  0.62947554  0.13171247  0.37832557  1
  O  O439  1  0.62927974  0.13090818  0.87996619  1
  O  O440  1  0.63098785  0.63069357  0.38090350  1
  O  O441  1  0.64253074  0.64045076  0.83263906  1
