# generated using pymatgen
data_V93Zn93O256
_symmetry_space_group_name_H-M   'P 1'
_cell_length_a   17.04942246
_cell_length_b   17.04746875
_cell_length_c   17.04850862
_cell_angle_alpha   89.96725224
_cell_angle_beta   90.06878788
_cell_angle_gamma   89.97275002
_symmetry_Int_Tables_number   1
_chemical_formula_structural   V93Zn93O256
_chemical_formula_sum   'V93 Zn93 O256'
_cell_volume   4955.13550220
_cell_formula_units_Z   1
loop_
 _symmetry_equiv_pos_site_id
 _symmetry_equiv_pos_as_xyz
  1  'x, y, z'
loop_
 _atom_site_type_symbol
 _atom_site_label
 _atom_site_symmetry_multiplicity
 _atom_site_fract_x
 _atom_site_fract_y
 _atom_site_fract_z
 _atom_site_occupancy
  V  V0  1  0.50023171  0.00042256  0.49953677  1
  V  V1  1  0.62458004  0.87544526  0.25046359  1
  V  V2  1  0.49774210  0.62371231  0.12429975  1
  V  V3  1  0.87753466  0.00093946  0.87413567  1
  V  V4  1  0.00135134  0.12598105  0.12575360  1
  V  V5  1  0.74942451  0.50012917  0.74991465  1
  V  V6  1  0.87419506  0.49965766  0.87543316  1
  V  V7  1  0.62221832  0.62712644  -0.00559719  1
  V  V8  1  0.62345380  0.37441734  0.25050287  1
  V  V9  1  0.00451698  0.86880129  0.87489478  1
  V  V10  1  0.25119797  -0.00099488  0.75003999  1
  V  V11  1  0.74625582  0.62694190  0.87415931  1
  V  V12  1  0.62541644  0.24869406  0.87561952  1
  V  V13  1  0.49807968  0.74922839  0.25003555  1
  V  V14  1  0.37448553  0.87393822  0.50090890  1
  V  V15  1  0.87365423  0.74832833  0.12433436  1
  V  V16  1  0.75768092  0.11810187  0.37187014  1
  V  V17  1  0.37149810  0.62174043  0.74655279  1
  V  V18  1  0.24511361  0.74963662  -0.00687337  1
  V  V19  1  0.50047451  0.12404208  0.12647282  1
  V  V20  1  0.25179525  0.12276240  0.37187390  1
  V  V21  1  -0.00017988  0.50130102  0.50021027  1
  V  V22  1  0.87461102  0.62572740  0.74959576  1
  V  V23  1  0.62363916  0.86813455  0.75666441  1
  V  V24  1  0.24527861  0.62128603  0.86976990  1
  V  V25  1  0.87440038  0.37334670  0.00155330  1
  V  V26  1  0.75144175  0.12451431  0.87629113  1
  V  V27  1  0.13099133  0.50039321  0.62810243  1
  V  V28  1  0.25043881  0.87456385  0.62526243  1
  V  V29  1  0.87617396  0.25007747  0.62588070  1
  V  V30  1  0.75009304  0.37431513  0.12595522  1
  V  V31  1  0.13172892  0.37794700  0.74859594  1
  V  V32  1  0.49956966  0.24987877  0.25100768  1
  V  V33  1  -0.00170254  -0.00191365  0.49633971  1
  V  V34  1  0.25118016  0.12459666  0.87460062  1
  V  V35  1  0.75060533  0.37543959  0.62509121  1
  V  V36  1  0.12912649  0.00030761  0.12664327  1
  V  V37  1  0.12566550  0.86875283  0.75370711  1
  V  V38  1  0.62632168  0.12458916  0.00102772  1
  V  V39  1  0.74930397  0.50030281  0.25153538  1
  V  V40  1  0.62748987  -0.00015198  0.12860366  1
  V  V41  1  -0.00038084  0.62628996  0.12406322  1
  V  V42  1  0.74571784  0.74998324  -0.00460928  1
  V  V43  1  0.12604047  0.12536140  -0.00030969  1
  V  V44  1  0.25511515  0.25776929  0.50106699  1
  V  V45  1  -0.00382831  0.24983176  0.24925129  1
  V  V46  1  0.25045200  0.37499495  0.12428287  1
  V  V47  1  0.87463327  0.37507213  0.50036412  1
  V  V48  1  0.12430429  0.37627469  0.24958236  1
  V  V49  1  0.75228404  0.87485665  0.62501582  1
  V  V50  1  0.25077199  0.25042932  0.00037905  1
  V  V51  1  0.37762665  -0.00243096  0.87498082  1
  V  V52  1  0.74848258  0.62386909  0.37621325  1
  V  V53  1  0.11952073  0.75437073  0.37544550  1
  V  V54  1  -0.00049607  0.37627668  0.37514273  1
  V  V55  1  0.87605884  0.12555628  0.75000115  1
  V  V56  1  0.74969250  0.24962529  0.49913647  1
  V  V57  1  0.12610729  0.25166614  0.37618306  1
  V  V58  1  0.49765735  0.49834622  0.50240424  1
  V  V59  1  0.62392603  0.50005900  0.12552295  1
  V  V60  1  0.62386667  0.74944063  0.37632048  1
  V  V61  1  0.62549640  0.37380218  0.75212177  1
  V  V62  1  0.62346852  0.50063371  0.62512139  1
  V  V63  1  0.12663060  0.88017843  0.25220673  1
  V  V64  1  0.87850417  0.87822532  0.49452966  1
  V  V65  1  0.12567173  0.25073872  0.87354940  1
  V  V66  1  0.62672352  0.12445246  0.49900408  1
  V  V67  1  0.87378020  0.50072375  0.37477236  1
  V  V68  1  0.25051831  0.87720638  0.12759270  1
  V  V69  1  0.74971609  0.75043239  0.49970397  1
  V  V70  1  0.50101319  0.24919799  0.75053592  1
  V  V71  1  0.62575600  0.00082524  0.62608516  1
  V  V72  1  0.12420347  0.62765395  -0.00465163  1
  V  V73  1  0.37580569  0.25641112  0.62273411  1
  V  V74  1  -0.00084648  0.50076502  -0.00025241  1
  V  V75  1  0.50046373  -0.00211812  0.00056208  1
  V  V76  1  0.12558003  0.12440849  0.50377847  1
  V  V77  1  0.37649941  0.12455122  0.74914329  1
  V  V78  1  0.49594817  0.37386193  0.37892766  1
  V  V79  1  -0.00031690  0.62716190  0.62595877  1
  V  V80  1  0.37350652  0.12227013  0.25020247  1
  V  V81  1  0.12521794  0.50141410  0.12383581  1
  V  V82  1  0.37205701  0.49765098  0.87231872  1
  V  V83  1  0.00161956  0.00042727  -0.00247209  1
  V  V84  1  0.24743189  0.62724304  0.37438290  1
  V  V85  1  0.37258645  0.49670664  0.37895425  1
  V  V86  1  0.37270030  -0.00073760  0.37086669  1
  V  V87  1  -0.00062557  0.75223662  0.24942998  1
  V  V88  1  0.00118741  0.25006548  0.74915861  1
  V  V89  1  0.37422512  0.24966371  0.12480059  1
  V  V90  1  0.74912255  0.87386944  0.12460074  1
  V  V91  1  0.24880928  0.50057629  0.24997339  1
  V  V92  1  0.37418969  0.87369374  -0.00113482  1
  Zn  Zn93  1  0.87195617  0.24420325  0.12617594  1
  Zn  Zn94  1  0.12379204  -0.00012902  0.62643882  1
  Zn  Zn95  1  0.25579029  0.38215769  0.62385428  1
  Zn  Zn96  1  0.49981698  0.37525128  0.87804538  1
  Zn  Zn97  1  0.88301656  0.10921279  0.25433727  1
  Zn  Zn98  1  0.37806473  0.74851237  0.62594979  1
  Zn  Zn99  1  0.49929354  0.87405335  0.37527904  1
  Zn  Zn100  1  0.37677433  0.37581077  -0.00087624  1
  Zn  Zn101  1  0.87473772  0.87377591  -0.00399194  1
  Zn  Zn102  1  0.62463832  0.24866248  0.37543686  1
  Zn  Zn103  1  -0.05593690  0.93155920  0.33067563  1
  Zn  Zn104  1  0.75183962  -0.00063727  0.75182352  1
  Zn  Zn105  1  0.50590697  0.86526945  0.88089346  1
  Zn  Zn106  1  0.50034012  0.74364881  0.75539383  1
  Zn  Zn107  1  0.74993341  0.24883966  0.00282682  1
  Zn  Zn108  1  0.00129870  0.74815714  0.75418514  1
  Zn  Zn109  1  0.37234014  0.74825854  0.12417620  1
  Zn  Zn110  1  0.37307537  0.62527018  0.24875149  1
  Zn  Zn111  1  0.50033308  0.12662205  0.62413035  1
  Zn  Zn112  1  0.76252315  -0.00780838  0.25490391  1
  Zn  Zn113  1  0.87505262  0.62512151  0.25034533  1
  Zn  Zn114  1  0.49962151  0.62851833  0.62540649  1
  Zn  Zn115  1  0.49836797  0.49696887  -0.00075506  1
  Zn  Zn116  1  0.12392104  0.62816815  0.50140255  1
  Zn  Zn117  1  0.87727687  0.75157038  0.62613954  1
  Zn  Zn118  1  0.62294711  0.62698652  0.50282682  1
  Zn  Zn119  1  -0.00077741  0.12446534  0.62482982  1
  Zn  Zn120  1  0.24912787  0.75068185  0.49947114  1
  Zn  Zn121  1  0.00124996  0.37586346  0.87416734  1
  Zn  Zn122  1  0.18652835  0.18897934  0.18837939  1
  Zn  Zn123  1  0.19065353  0.19034644  0.68742547  1
  Zn  Zn124  1  0.18583310  0.69063753  0.18553703  1
  Zn  Zn125  1  0.18877170  0.68901066  0.68762377  1
  Zn  Zn126  1  0.68887672  0.18770860  0.19024847  1
  Zn  Zn127  1  0.69029228  0.18700030  0.68885814  1
  Zn  Zn128  1  0.68590409  0.68681783  0.18689927  1
  Zn  Zn129  1  0.68714901  0.68712529  0.68540845  1
  Zn  Zn130  1  0.31288059  0.31147265  0.31168853  1
  Zn  Zn131  1  0.31301021  0.31218826  0.81037693  1
  Zn  Zn132  1  0.31091680  0.81219722  0.31170457  1
  Zn  Zn133  1  0.31512701  0.80804717  0.81313497  1
  Zn  Zn134  1  0.81069506  0.31078961  0.31457164  1
  Zn  Zn135  1  0.81192061  0.31121604  0.81449042  1
  Zn  Zn136  1  0.80883355  0.80668174  0.31105125  1
  Zn  Zn137  1  0.81511242  0.81236491  0.81221986  1
  Zn  Zn138  1  0.18434687  0.44012701  0.43977186  1
  Zn  Zn139  1  0.18838513  0.43808010  0.93668653  1
  Zn  Zn140  1  0.18720063  0.93945792  0.43777544  1
  Zn  Zn141  1  0.18785077  0.93793636  0.93729643  1
  Zn  Zn142  1  0.68352431  0.43743201  0.43808141  1
  Zn  Zn143  1  0.68677835  0.43882457  0.93855384  1
  Zn  Zn144  1  0.68793460  0.93628538  0.43733728  1
  Zn  Zn145  1  0.68987200  0.94038461  0.93910271  1
  Zn  Zn146  1  0.31345125  0.06119981  0.06151771  1
  Zn  Zn147  1  0.31313910  0.06436232  0.56277268  1
  Zn  Zn148  1  0.31257991  0.56196072  0.05817484  1
  Zn  Zn149  1  0.31204411  0.56400266  0.55870582  1
  Zn  Zn150  1  0.81475679  0.06148592  0.06410038  1
  Zn  Zn151  1  0.81420521  0.06194989  0.56055972  1
  Zn  Zn152  1  0.81110020  0.56220519  0.06328508  1
  Zn  Zn153  1  0.81220796  0.56306034  0.56224017  1
  Zn  Zn154  1  0.43533315  0.43777599  0.19023300  1
  Zn  Zn155  1  0.43801621  0.43801269  0.69238749  1
  Zn  Zn156  1  0.43743460  0.93645555  0.18650729  1
  Zn  Zn157  1  0.44039453  0.93751141  0.68701546  1
  Zn  Zn158  1  0.93662330  0.43852176  0.18704828  1
  Zn  Zn159  1  0.94100698  0.43777205  0.68852129  1
  Zn  Zn160  1  0.93904277  0.93545691  0.17150230  1
  Zn  Zn161  1  0.94100240  0.94098990  0.68579477  1
  Zn  Zn162  1  0.06865955  0.06547011  0.31314587  1
  Zn  Zn163  1  0.06380822  0.06030149  0.81090455  1
  Zn  Zn164  1  0.06137900  0.56582472  0.31129057  1
  Zn  Zn165  1  0.06189190  0.56058589  0.81160274  1
  Zn  Zn166  1  0.56413433  0.06188526  0.31462899  1
  Zn  Zn167  1  0.56231573  0.06009425  0.81283459  1
  Zn  Zn168  1  0.56278284  0.56280906  0.31373157  1
  Zn  Zn169  1  0.55696387  0.56114443  0.81226893  1
  Zn  Zn170  1  0.43798763  0.18648609  0.44002014  1
  Zn  Zn171  1  0.43897189  0.18688051  0.93785018  1
  Zn  Zn172  1  0.43585890  0.68496616  0.43722585  1
  Zn  Zn173  1  0.43419420  0.68986307  0.93250545  1
  Zn  Zn174  1  0.93815703  0.18748088  0.43848525  1
  Zn  Zn175  1  0.93937627  0.18891844  0.93638146  1
  Zn  Zn176  1  0.93534189  0.68948321  0.43880316  1
  Zn  Zn177  1  0.93316855  0.68746304  0.93791613  1
  Zn  Zn178  1  0.06216772  0.31295712  0.06221389  1
  Zn  Zn179  1  0.06344966  0.31336908  0.56384002  1
  Zn  Zn180  1  0.06392570  0.81277912  0.06190568  1
  Zn  Zn181  1  0.06375263  0.81399864  0.56291155  1
  Zn  Zn182  1  0.56117967  0.31201914  0.06131352  1
  Zn  Zn183  1  0.56287699  0.31291090  0.56323737  1
  Zn  Zn184  1  0.56279398  0.81127716  0.06388384  1
  Zn  Zn185  1  0.56004433  0.81082698  0.56638628  1
  O  O186  1  0.12204403  0.12034386  0.12018368  1
  O  O187  1  0.12763736  0.12537027  0.61240647  1
  O  O188  1  0.11967267  0.62000047  0.11773690  1
  O  O189  1  0.11753944  0.61825388  0.62580193  1
  O  O190  1  0.61989348  0.11995658  0.12190561  1
  O  O191  1  0.62867744  0.11434190  0.61953007  1
  O  O192  1  0.61656117  0.61972516  0.11748283  1
  O  O193  1  0.62239380  0.61514052  0.62348089  1
  O  O194  1  0.38446713  0.38458274  0.36845832  1
  O  O195  1  0.37315546  0.38501933  0.87406793  1
  O  O196  1  0.37196259  0.88390273  0.38269505  1
  O  O197  1  0.37340322  0.88219489  0.88186429  1
  O  O198  1  0.88001831  0.38038664  0.38109466  1
  O  O199  1  0.87456858  0.38107478  0.88550994  1
  O  O200  1  0.87014643  0.86823184  0.38889248  1
  O  O201  1  0.88508780  0.88275202  0.87527492  1
  O  O202  1  0.26059458  0.01236097  0.38242983  1
  O  O203  1  0.25677998  0.00585470  0.87028508  1
  O  O204  1  0.25378287  0.50602440  0.37152072  1
  O  O205  1  0.25852787  0.51109165  0.88092232  1
  O  O206  1  0.74723440  0.01350549  0.37499153  1
  O  O207  1  0.75946036  0.00680767  0.87481847  1
  O  O208  1  0.75386653  0.50350901  0.37138980  1
  O  O209  1  0.75474431  0.50636200  0.86897316  1
  O  O210  1  0.24459688  0.49614081  0.12989352  1
  O  O211  1  0.23518807  0.49882905  0.61484392  1
  O  O212  1  0.24421311  0.98623991  0.11679760  1
  O  O213  1  0.25105904  0.99020973  0.63072553  1
  O  O214  1  0.74379126  0.49497532  0.13198853  1
  O  O215  1  0.74510950  0.49446845  0.63025578  1
  O  O216  1  0.74543611  0.99251895  0.12922725  1
  O  O217  1  0.74217976  0.99091292  0.62352525  1
  O  O218  1  0.00546895  0.36902077  0.25460859  1
  O  O219  1  0.01010380  0.36812109  0.75159740  1
  O  O220  1  0.00930484  0.87048876  0.24850420  1
  O  O221  1  0.00873498  0.87567291  0.75657864  1
  O  O222  1  0.50381776  0.37030499  0.25843883  1
  O  O223  1  0.50872249  0.36705601  0.75320142  1
  O  O224  1  0.50459961  0.86355656  0.24979038  1
  O  O225  1  0.51730829  0.87704795  0.74895668  1
  O  O226  1  0.49432542  0.12992274  0.24591345  1
  O  O227  1  0.49468389  0.13061490  0.74754740  1
  O  O228  1  0.50118787  0.63289867  0.24153909  1
  O  O229  1  0.48661752  0.62269546  0.74629205  1
  O  O230  1  1.00357463  0.13482481  0.24713900  1
  O  O231  1  0.99528800  0.13164889  0.74802454  1
  O  O232  1  0.99905981  0.63278549  0.24099729  1
  O  O233  1  0.99462249  0.62541475  0.74227287  1
  O  O234  1  0.36807054  0.24878511  0.00732669  1
  O  O235  1  0.36640939  0.24351391  0.51017672  1
  O  O236  1  0.36296051  0.75533277  0.00275627  1
  O  O237  1  0.37281349  0.76335619  0.49815368  1
  O  O238  1  0.87515290  0.26171268  0.00210652  1
  O  O239  1  0.87036930  0.25652620  0.50547331  1
  O  O240  1  0.86224415  0.74933700  0.00648452  1
  O  O241  1  0.86946991  0.76032724  0.50482118  1
  O  O242  1  0.13212527  0.24272719  0.49547071  1
  O  O243  1  0.13056859  0.24502742  0.99459014  1
  O  O244  1  0.12715429  0.75105080  0.48827351  1
  O  O245  1  0.13596626  0.74285873  1.00489057  1
  O  O246  1  0.63211953  0.24346239  0.50040382  1
  O  O247  1  0.62612633  0.24161821  0.99450371  1
  O  O248  1  0.63068974  0.75090506  0.49419799  1
  O  O249  1  0.63517343  0.73856370  1.00748119  1
  O  O250  1  0.49402585  0.24314405  0.13139430  1
  O  O251  1  0.49242703  0.24881608  0.63008009  1
  O  O252  1  0.49962202  0.74026013  0.13386139  1
  O  O253  1  0.49560119  0.74637725  0.63309818  1
  O  O254  1  1.00188353  0.24489603  0.13471320  1
  O  O255  1  0.99347389  0.24829470  0.63007021  1
  O  O256  1  0.99455373  0.74581174  0.12839113  1
  O  O257  1  1.00107806  0.73698872  0.62605531  1
  O  O258  1  0.00591116  0.25590799  0.36862227  1
  O  O259  1  0.00886206  0.25235664  0.86816053  1
  O  O260  1  0.01237161  0.74335586  0.36815761  1
  O  O261  1  -0.00584311  0.76460401  0.87560517  1
  O  O262  1  0.49778589  0.25895921  0.37102144  1
  O  O263  1  0.50738072  0.24946284  0.86820155  1
  O  O264  1  0.50382456  0.74899212  0.36536601  1
  O  O265  1  0.49920953  0.75372120  0.86938256  1
  O  O266  1  0.24378806  0.13315735  0.49146724  1
  O  O267  1  0.24518118  0.13020450  0.99482678  1
  O  O268  1  0.24662448  0.62828877  0.48625499  1
  O  O269  1  0.24421964  0.63198718  0.99301524  1
  O  O270  1  0.74728401  0.12914981  0.49056933  1
  O  O271  1  0.74442091  0.12538160  0.99540239  1
  O  O272  1  0.74880950  0.63215670  0.49465577  1
  O  O273  1  0.74131306  0.63072459  0.99585418  1
  O  O274  1  0.25042057  0.36765500  0.00735285  1
  O  O275  1  0.24424946  0.36102455  0.49996867  1
  O  O276  1  0.25210656  0.86726746  0.00557836  1
  O  O277  1  0.25826166  0.87784090  0.50838671  1
  O  O278  1  0.75923176  0.37581675  0.00681209  1
  O  O279  1  0.75474905  0.37060336  0.50485499  1
  O  O280  1  0.74793380  0.86471300  0.00510521  1
  O  O281  1  0.75760244  0.87187133  0.50754781  1
  O  O282  1  0.12887438  0.49538268  0.24420712  1
  O  O283  1  0.11822087  0.49006958  0.73882713  1
  O  O284  1  0.12066014  0.98838337  0.24460378  1
  O  O285  1  0.13334570  0.99063017  0.74745804  1
  O  O286  1  0.62944921  0.49416643  0.24569859  1
  O  O287  1  0.63052893  0.49408848  0.74560221  1
  O  O288  1  0.62435409  0.99199523  0.24431487  1
  O  O289  1  0.62853478  0.99309503  0.73921268  1
  O  O290  1  0.38096080  0.00501122  0.26285617  1
  O  O291  1  0.37112225  0.00400133  0.75476974  1
  O  O292  1  0.36746175  0.50259867  0.26146683  1
  O  O293  1  0.37518341  0.50895587  0.75922780  1
  O  O294  1  0.88109744  -0.00791194  0.25332713  1
  O  O295  1  0.87520071  0.00745314  0.75573753  1
  O  O296  1  0.86793222  0.50050661  0.25734378  1
  O  O297  1  0.86909179  0.50459461  0.75494297  1
  O  O298  1  0.11924012  0.37130572  0.36946658  1
  O  O299  1  0.12484556  0.37017445  0.86634705  1
  O  O300  1  0.13559825  0.86613733  0.36396625  1
  O  O301  1  0.11624741  0.88180701  0.86576332  1
  O  O302  1  0.61268708  0.37412279  0.36894922  1
  O  O303  1  0.62690268  0.36770166  0.86887489  1
  O  O304  1  0.62242416  0.86801797  0.36921057  1
  O  O305  1  0.62929448  0.88342627  0.85852527  1
  O  O306  1  0.37953723  0.12824117  0.13092326  1
  O  O307  1  0.37642296  0.13433286  0.63156030  1
  O  O308  1  0.38555464  0.62492741  0.12653291  1
  O  O309  1  0.37161876  0.62391700  0.63433441  1
  O  O310  1  0.88541083  0.12495237  0.13200583  1
  O  O311  1  0.87418163  0.13290109  0.63100296  1
  O  O312  1  0.88133231  0.63023948  0.12607819  1
  O  O313  1  0.88447490  0.62355321  0.63092096  1
  O  O314  1  0.25425406  0.25451179  0.12071658  1
  O  O315  1  0.25870562  0.25102910  0.61636573  1
  O  O316  1  0.25048853  0.75933544  0.11545442  1
  O  O317  1  0.25292902  0.76353081  0.62166024  1
  O  O318  1  0.75331812  0.25770692  0.12463970  1
  O  O319  1  0.75623123  0.25649759  0.61992870  1
  O  O320  1  0.75347295  0.75325920  0.11703102  1
  O  O321  1  0.75003737  0.76141485  0.61854562  1
  O  O322  1  0.24759632  0.24329168  0.38258622  1
  O  O323  1  0.24554081  0.24345224  0.87997219  1
  O  O324  1  0.24043392  0.74148833  0.37249811  1
  O  O325  1  0.25365907  0.73880546  0.88606688  1
  O  O326  1  0.74720017  0.24025543  0.38113853  1
  O  O327  1  0.74341886  0.24209397  0.87809630  1
  O  O328  1  0.74298717  0.74323632  0.38073233  1
  O  O329  1  0.75584055  0.74359243  0.88744546  1
  O  O330  1  0.00762519  0.12136756  0.00486429  1
  O  O331  1  0.01052870  0.11989849  0.49974202  1
  O  O332  1  0.00397383  0.62077320  0.00402310  1
  O  O333  1  -0.00032768  0.61989027  0.50982103  1
  O  O334  1  0.50581732  0.11840004  0.00717770  1
  O  O335  1  0.50827302  0.11847652  0.50173844  1
  O  O336  1  0.50682473  0.62681404  0.00955832  1
  O  O337  1  0.49984217  0.61108950  0.50129473  1
  O  O338  1  0.50437089  0.38456725  0.48894815  1
  O  O339  1  0.49544023  0.37789313  0.99679568  1
  O  O340  1  0.48923737  0.88104257  0.49925323  1
  O  O341  1  0.49388918  0.88032872  1.00222014  1
  O  O342  1  0.99474536  0.37995063  0.49410916  1
  O  O343  1  0.99091086  0.38174113  0.99969536  1
  O  O344  1  0.99036103  0.88383925  0.50668776  1
  O  O345  1  1.00196655  0.88175070  0.99141158  1
  O  O346  1  0.49198032  0.49405547  0.38045964  1
  O  O347  1  0.48670026  0.49787050  0.87773998  1
  O  O348  1  0.48960299  0.99829544  0.38136824  1
  O  O349  1  0.49483802  0.99536833  0.88311747  1
  O  O350  1  0.99486883  0.49582866  0.37902874  1
  O  O351  1  0.99186185  0.49879017  0.88226171  1
  O  O352  1  1.00860234  1.00302348  0.38958350  1
  O  O353  1  0.99638667  0.99272140  0.87933625  1
  O  O354  1  0.01010600  0.00636997  0.11656195  1
  O  O355  1  0.00469789  0.00563557  0.61245361  1
  O  O356  1  0.00552785  0.50596886  0.11984522  1
  O  O357  1  0.00697169  0.50939513  0.62039296  1
  O  O358  1  0.50564014  0.00549666  0.12056950  1
  O  O359  1  0.51116087  0.00161548  0.61883596  1
  O  O360  1  0.50456339  0.50966726  0.12770327  1
  O  O361  1  0.50344443  0.49597192  0.61474906  1
  O  O362  1  0.24323593  0.37986655  0.24535934  1
  O  O363  1  0.23522396  0.36865021  0.74487718  1
  O  O364  1  0.24077240  0.86789593  0.23695929  1
  O  O365  1  0.24551981  0.87855210  0.74449084  1
  O  O366  1  0.74384974  0.38007025  0.24687494  1
  O  O367  1  0.74606108  0.38027651  0.74445302  1
  O  O368  1  0.74234642  0.87304570  0.24344221  1
  O  O369  1  0.74258444  0.87704054  0.74134199  1
  O  O370  1  0.25503451  0.13261570  0.26449103  1
  O  O371  1  0.25563348  0.11970910  0.75552513  1
  O  O372  1  0.24806093  0.61998263  0.25821732  1
  O  O373  1  0.25517706  0.62989002  0.76111417  1
  O  O374  1  0.75411820  0.12210278  0.26224770  1
  O  O375  1  0.75812317  0.12303122  0.75796758  1
  O  O376  1  0.74988608  0.61817395  0.25695663  1
  O  O377  1  0.75381090  0.61951215  0.75444967  1
  O  O378  1  0.36929233  0.11837981  0.37160980  1
  O  O379  1  0.37031923  0.11868792  0.86947880  1
  O  O380  1  0.36419477  0.61631921  0.37208952  1
  O  O381  1  0.36538226  0.61647283  0.86770768  1
  O  O382  1  0.86239741  0.12890065  0.37426119  1
  O  O383  1  0.87199291  0.12087692  0.87009966  1
  O  O384  1  0.86779524  0.61854981  0.37398575  1
  O  O385  1  0.86738374  0.61868214  0.86971867  1
  O  O386  1  0.13017500  0.38134214  0.13017372  1
  O  O387  1  0.12456117  0.38390811  0.63155196  1
  O  O388  1  0.13161228  0.87962801  0.13247475  1
  O  O389  1  0.13504491  0.87776600  0.63224382  1
  O  O390  1  0.62930807  0.38024070  0.13086742  1
  O  O391  1  0.63188780  0.38004166  0.63142500  1
  O  O392  1  0.63010155  0.87995674  0.13049185  1
  O  O393  1  0.63411351  0.88349970  0.63083588  1
  O  O394  1  0.11635186  0.25589333  0.25588507  1
  O  O395  1  0.12085235  0.25643111  0.75367638  1
  O  O396  1  0.11908241  0.75994282  0.25480661  1
  O  O397  1  0.12345365  0.76512925  0.74699945  1
  O  O398  1  0.61638731  0.25636994  0.25212337  1
  O  O399  1  0.62113881  0.25377232  0.75482057  1
  O  O400  1  0.61608464  0.75465717  0.25475317  1
  O  O401  1  0.62830161  0.76641611  0.74542008  1
  O  O402  1  0.37994601  0.24260854  0.24461316  1
  O  O403  1  0.38008944  0.24337247  0.74316102  1
  O  O404  1  0.38568696  0.74779120  0.24822835  1
  O  O405  1  0.37401472  0.73534516  0.74779934  1
  O  O406  1  0.89031800  0.25295516  0.25063493  1
  O  O407  1  0.88099143  0.24609277  0.74566230  1
  O  O408  1  0.88159503  0.74900637  0.24288618  1
  O  O409  1  0.87774489  0.74137293  0.74560206  1
  O  O410  1  0.38173676  0.50184774  0.48774472  1
  O  O411  1  0.37673499  0.49821723  0.98863153  1
  O  O412  1  0.37938011  0.99373414  0.49217822  1
  O  O413  1  0.38105562  0.99439633  0.99490775  1
  O  O414  1  0.87974647  0.49382838  0.49461055  1
  O  O415  1  0.87863764  0.49280995  0.99605100  1
  O  O416  1  0.88499664  0.99104858  0.50314990  1
  O  O417  1  0.88433773  0.99852051  0.99330643  1
  O  O418  1  0.12138703  0.00712538  0.00491716  1
  O  O419  1  0.12002951  0.00933666  0.50151482  1
  O  O420  1  0.11903073  0.50559960  0.00553523  1
  O  O421  1  0.11598307  0.50260242  0.50865509  1
  O  O422  1  0.62034971  0.00493027  0.00811549  1
  O  O423  1  0.62097898  0.00256897  0.50824187  1
  O  O424  1  0.62388035  0.51075523  0.00753748  1
  O  O425  1  0.61466032  0.50110152  0.50615977  1
  O  O426  1  0.36728710  0.36776213  0.12687624  1
  O  O427  1  0.37240134  0.36114368  0.63332394  1
  O  O428  1  0.36545461  0.87478371  0.11866061  1
  O  O429  1  0.36737262  0.87733075  0.61683188  1
  O  O430  1  0.86977089  0.37551249  0.11567483  1
  O  O431  1  0.87016521  0.37122615  0.61990328  1
  O  O432  1  0.86738263  0.86591987  0.11740851  1
  O  O433  1  0.86510138  0.87612015  0.61904155  1
  O  O434  1  0.13465503  0.13130039  0.38344809  1
  O  O435  1  0.13167783  0.12987388  0.87972117  1
  O  O436  1  0.13245910  0.63388978  0.37469343  1
  O  O437  1  0.13466877  0.61666691  0.88082764  1
  O  O438  1  0.63529578  0.12721428  0.38104963  1
  O  O439  1  0.63098777  0.12779086  0.88096993  1
  O  O440  1  0.63072699  0.63097803  0.37816118  1
  O  O441  1  0.62978423  0.61704419  0.88702271  1
