# generated using pymatgen
data_V93Zn93O256
_symmetry_space_group_name_H-M   'P 1'
_cell_length_a   17.04910211
_cell_length_b   17.05233590
_cell_length_c   17.05172635
_cell_angle_alpha   90.03074127
_cell_angle_beta   89.97720978
_cell_angle_gamma   90.03698684
_symmetry_Int_Tables_number   1
_chemical_formula_structural   V93Zn93O256
_chemical_formula_sum   'V93 Zn93 O256'
_cell_volume   4957.39538086
_cell_formula_units_Z   1
loop_
 _symmetry_equiv_pos_site_id
 _symmetry_equiv_pos_as_xyz
  1  'x, y, z'
loop_
 _atom_site_type_symbol
 _atom_site_label
 _atom_site_symmetry_multiplicity
 _atom_site_fract_x
 _atom_site_fract_y
 _atom_site_fract_z
 _atom_site_occupancy
  V  V0  1  0.12380260  -0.00183083  0.12607728  1
  V  V1  1  0.25003386  0.87392845  0.62358824  1
  V  V2  1  0.37311220  0.74190288  0.12816144  1
  V  V3  1  0.49923977  -0.00148027  0.49941429  1
  V  V4  1  0.37508877  0.12444799  0.75022555  1
  V  V5  1  0.74984824  0.50203696  0.75131025  1
  V  V6  1  0.87513814  0.25148185  0.62438851  1
  V  V7  1  0.74750627  0.87035739  0.12092384  1
  V  V8  1  0.12360614  0.12431087  -0.00036617  1
  V  V9  1  0.62453591  0.62557141  0.49993157  1
  V  V10  1  0.25009996  0.24851941  -0.00033261  1
  V  V11  1  -0.00176018  0.12441843  0.12528387  1
  V  V12  1  0.24960627  -0.00056367  0.74963118  1
  V  V13  1  0.62650580  0.49994606  0.62583794  1
  V  V14  1  0.49998646  0.49199493  0.49791786  1
  V  V15  1  0.24411715  -0.00279316  0.24961484  1
  V  V16  1  0.00140747  0.62791131  0.12636120  1
  V  V17  1  0.12457997  0.00104946  0.62457328  1
  V  V18  1  0.12528464  0.24952660  0.37509407  1
  V  V19  1  0.24894124  0.12414487  0.87506364  1
  V  V20  1  0.25153901  0.62479966  0.87323430  1
  V  V21  1  0.00006156  0.50119448  0.49876497  1
  V  V22  1  0.49945773  0.12380360  0.12491729  1
  V  V23  1  0.12473779  0.37565249  0.25100059  1
  V  V24  1  0.12722539  0.62793271  0.49262538  1
  V  V25  1  0.50004695  0.25501626  0.25453465  1
  V  V26  1  0.24859636  0.74922434  0.49456713  1
  V  V27  1  0.74893001  0.00356283  0.75414242  1
  V  V28  1  0.49340472  0.74337947  0.25041190  1
  V  V29  1  0.24315479  0.87272604  0.12800264  1
  V  V30  1  0.62827680  0.24741700  0.87509765  1
  V  V31  1  -0.00050787  0.50084308  0.00058586  1
  V  V32  1  0.01117596  0.87104628  0.36734977  1
  V  V33  1  0.37575226  0.62308972  0.75042032  1
  V  V34  1  0.37506437  0.87453498  -0.00025056  1
  V  V35  1  -0.00043887  0.12515706  0.62492183  1
  V  V36  1  0.37588959  0.25037023  0.62372917  1
  V  V37  1  0.12400042  0.25099778  0.87394821  1
  V  V38  1  0.62518536  0.00101632  0.62485212  1
  V  V39  1  0.49997895  0.62517194  0.62501488  1
  V  V40  1  0.12514310  0.62460897  -0.00101806  1
  V  V41  1  0.87396601  0.12591636  0.24892253  1
  V  V42  1  0.50028387  0.49799526  0.00027914  1
  V  V43  1  0.74682564  -0.00082430  0.25024674  1
  V  V44  1  0.63041286  0.63084466  -0.00097827  1
  V  V45  1  -0.00036301  0.75112315  0.74872042  1
  V  V46  1  0.25067768  0.74979925  -0.00089830  1
  V  V47  1  0.62277407  0.87407960  0.25000203  1
  V  V48  1  0.87582551  0.75180177  0.62348002  1
  V  V49  1  0.62488859  0.12496624  0.49980626  1
  V  V50  1  0.49861671  -0.00024960  0.00040504  1
  V  V51  1  0.50135988  0.24935519  0.75065010  1
  V  V52  1  0.87305469  0.00227720  0.87512177  1
  V  V53  1  0.12512138  0.49908073  0.12528796  1
  V  V54  1  0.00163674  0.37502744  0.87500884  1
  V  V55  1  0.62088634  0.25571613  0.37533524  1
  V  V56  1  0.87291733  -0.00205744  0.37637682  1
  V  V57  1  0.24864692  0.37364807  0.12408015  1
  V  V58  1  0.75103151  0.24717067  -0.00166775  1
  V  V59  1  0.62343946  0.87342627  0.75032294  1
  V  V60  1  0.75030968  0.50112834  0.25101648  1
  V  V61  1  0.87052378  0.87298739  -0.00034308  1
  V  V62  1  0.62810152  0.12352273  -0.00103837  1
  V  V63  1  0.12690988  0.49969055  0.62463628  1
  V  V64  1  0.37408359  -0.00248380  0.37440905  1
  V  V65  1  0.75021639  0.75166332  0.49999696  1
  V  V66  1  0.75072789  0.25058339  0.49951448  1
  V  V67  1  0.87797683  0.62809472  0.24989113  1
  V  V68  1  0.87511747  0.50159882  0.87537771  1
  V  V69  1  0.25630924  0.62357147  0.36849514  1
  V  V70  1  0.62328722  0.74959027  0.37439137  1
  V  V71  1  0.00251194  0.62643244  0.62367072  1
  V  V72  1  0.37544738  0.37368294  -0.00067073  1
  V  V73  1  0.74971355  0.37562731  0.12582108  1
  V  V74  1  -0.00160451  0.87547043  0.87508383  1
  V  V75  1  0.87449820  0.37568139  0.00147838  1
  V  V76  1  0.62403396  0.49941127  0.12592176  1
  V  V77  1  -0.00082298  -0.00089124  0.49913635  1
  V  V78  1  0.37967930  0.49508750  0.36837264  1
  V  V79  1  0.37484433  -0.00174614  0.87526117  1
  V  V80  1  0.12541213  0.12640329  0.49958282  1
  V  V81  1  0.87173221  0.12651525  0.75500518  1
  V  V82  1  0.87620110  0.50063094  0.37573650  1
  V  V83  1  0.87623792  0.62620902  0.75052422  1
  V  V84  1  0.12444415  0.74990881  0.87423308  1
  V  V85  1  0.37477121  0.24879637  0.12568667  1
  V  V86  1  0.37567874  0.74902923  0.62454374  1
  V  V87  1  0.12424893  0.87538209  0.74926439  1
  V  V88  1  -0.00155431  -0.00070050  -0.00000255  1
  V  V89  1  0.37455634  0.12350392  0.24947175  1
  V  V90  1  0.87446753  0.75164871  0.12519709  1
  V  V91  1  0.50002784  0.37338775  0.87581626  1
  V  V92  1  0.25054778  0.37566153  0.62357562  1
  Zn  Zn93  1  0.50272732  0.74923404  0.75389084  1
  Zn  Zn94  1  0.62288533  -0.00137361  0.12604746  1
  Zn  Zn95  1  0.50047155  0.87180128  0.87596866  1
  Zn  Zn96  1  0.00054350  0.37494893  0.37587903  1
  Zn  Zn97  1  0.62214434  0.37848872  0.25583187  1
  Zn  Zn98  1  -0.00178789  0.25081465  0.24914086  1
  Zn  Zn99  1  0.37509877  0.87328577  0.49989036  1
  Zn  Zn100  1  0.74856635  0.12592235  0.37300810  1
  Zn  Zn101  1  0.87464909  0.25077007  0.12653214  1
  Zn  Zn102  1  0.00064249  0.25210622  0.74973247  1
  Zn  Zn103  1  0.49433356  0.62128710  0.12629603  1
  Zn  Zn104  1  0.87685373  0.37627122  0.50007801  1
  Zn  Zn105  1  0.37960672  0.37040638  0.49553245  1
  Zn  Zn106  1  0.37495900  0.49921852  0.87514016  1
  Zn  Zn107  1  0.63022731  0.75549051  0.87999642  1
  Zn  Zn108  1  0.75253935  0.87717626  0.62472494  1
  Zn  Zn109  1  0.75020211  0.62617114  0.37379313  1
  Zn  Zn110  1  0.49944007  0.12493537  0.62570174  1
  Zn  Zn111  1  0.24841186  0.12418864  0.37519805  1
  Zn  Zn112  1  0.25270770  0.24826373  0.49809435  1
  Zn  Zn113  1  0.49761841  0.87262696  0.37350157  1
  Zn  Zn114  1  0.87602028  0.87432732  0.49965969  1
  Zn  Zn115  1  0.02664321  0.75435804  0.25175559  1
  Zn  Zn116  1  0.24914125  0.49864980  0.75135047  1
  Zn  Zn117  1  0.62649675  0.37509001  0.75038627  1
  Zn  Zn118  1  0.12435446  0.37517549  0.74934834  1
  Zn  Zn119  1  0.25678716  0.50282206  0.24646386  1
  Zn  Zn120  1  0.75092721  0.37654673  0.62632041  1
  Zn  Zn121  1  0.75590513  0.63465358  0.88253347  1
  Zn  Zn122  1  0.18650214  0.18539684  0.18842173  1
  Zn  Zn123  1  0.18774384  0.18932443  0.68812190  1
  Zn  Zn124  1  0.18612243  0.68650890  0.18974449  1
  Zn  Zn125  1  0.18895480  0.68709553  0.68494646  1
  Zn  Zn126  1  0.68638032  0.18773979  0.18629394  1
  Zn  Zn127  1  0.68815921  0.18550913  0.68613053  1
  Zn  Zn128  1  0.68716146  0.68701574  0.18816354  1
  Zn  Zn129  1  0.68946307  0.68758761  0.68698531  1
  Zn  Zn130  1  0.31088548  0.31381128  0.31239320  1
  Zn  Zn131  1  0.31231860  0.31252796  0.81056111  1
  Zn  Zn132  1  0.30673401  0.81160858  0.31040863  1
  Zn  Zn133  1  0.31355139  0.81112616  0.81128853  1
  Zn  Zn134  1  0.80970507  0.31453207  0.31345884  1
  Zn  Zn135  1  0.81301415  0.31514930  0.81388564  1
  Zn  Zn136  1  0.81272822  0.81290717  0.31043149  1
  Zn  Zn137  1  0.80768142  0.81322454  0.81334214  1
  Zn  Zn138  1  0.19156852  0.43809204  0.43863441  1
  Zn  Zn139  1  0.18853245  0.43798033  0.93626996  1
  Zn  Zn140  1  0.18752244  0.93763048  0.43805838  1
  Zn  Zn141  1  0.18711677  0.93647911  0.93873263  1
  Zn  Zn142  1  0.68977702  0.43675831  0.43926790  1
  Zn  Zn143  1  0.68789853  0.43812247  0.93726493  1
  Zn  Zn144  1  0.68610277  0.93521570  0.43576670  1
  Zn  Zn145  1  0.68763767  0.93864336  0.93588956  1
  Zn  Zn146  1  0.31187765  0.06118696  0.06296827  1
  Zn  Zn147  1  0.31136485  0.06431586  0.56140722  1
  Zn  Zn148  1  0.31054985  0.56016918  0.05961165  1
  Zn  Zn149  1  0.31494376  0.56047430  0.55941087  1
  Zn  Zn150  1  0.81015212  0.05917887  0.06462214  1
  Zn  Zn151  1  0.81117161  0.06446600  0.56444488  1
  Zn  Zn152  1  0.81272826  0.56294159  0.06547923  1
  Zn  Zn153  1  0.81260552  0.56628709  0.56343611  1
  Zn  Zn154  1  0.43775888  0.43477981  0.18617486  1
  Zn  Zn155  1  0.43957495  0.43661581  0.68759485  1
  Zn  Zn156  1  0.43484368  0.93285839  0.18656397  1
  Zn  Zn157  1  0.43803863  0.93632846  0.68631605  1
  Zn  Zn158  1  0.93815356  0.43845012  0.18836505  1
  Zn  Zn159  1  0.93910550  0.43788401  0.68792397  1
  Zn  Zn160  1  0.93560182  0.93791182  0.18886898  1
  Zn  Zn161  1  0.93589760  0.93781934  0.68672927  1
  Zn  Zn162  1  0.06012022  0.06147847  0.31315106  1
  Zn  Zn163  1  0.05960410  0.06414629  0.81145121  1
  Zn  Zn164  1  0.06370481  0.56416851  0.31096507  1
  Zn  Zn165  1  0.06316027  0.56144411  0.81079003  1
  Zn  Zn166  1  0.56191856  0.06553580  0.31394723  1
  Zn  Zn167  1  0.56129330  0.06240491  0.81434452  1
  Zn  Zn168  1  0.56119109  0.56483593  0.31360503  1
  Zn  Zn169  1  0.56189968  0.56210763  0.81503823  1
  Zn  Zn170  1  0.43768138  0.18342779  0.43640485  1
  Zn  Zn171  1  0.43868176  0.18603735  0.93706936  1
  Zn  Zn172  1  0.43602754  0.68288399  0.43717210  1
  Zn  Zn173  1  0.44384534  0.68814044  0.93752516  1
  Zn  Zn174  1  0.93976509  0.18665993  0.43596102  1
  Zn  Zn175  1  0.93781163  0.18862036  0.93762674  1
  Zn  Zn176  1  0.93861036  0.68913178  0.43558437  1
  Zn  Zn177  1  0.93638613  0.68940247  0.93946985  1
  Zn  Zn178  1  0.06049959  0.31039275  0.06293196  1
  Zn  Zn179  1  0.06210809  0.31451289  0.56054764  1
  Zn  Zn180  1  0.06011373  0.81112101  0.06255114  1
  Zn  Zn181  1  0.06254494  0.81416121  0.55742217  1
  Zn  Zn182  1  0.56244090  0.31161781  0.06456660  1
  Zn  Zn183  1  0.56583478  0.31348968  0.56601074  1
  Zn  Zn184  1  0.55817493  0.81242366  0.06614747  1
  Zn  Zn185  1  0.56262775  0.81392605  0.56500902  1
  O  O186  1  0.11906693  0.11877773  0.11838160  1
  O  O187  1  0.11952948  0.12048262  0.62087806  1
  O  O188  1  0.12163605  0.61846032  0.11790190  1
  O  O189  1  0.12185473  0.62011729  0.61473527  1
  O  O190  1  0.61839035  0.12390451  0.11455894  1
  O  O191  1  0.62183714  0.11913633  0.61785488  1
  O  O192  1  0.62471899  0.61290691  0.11771038  1
  O  O193  1  0.61977208  0.61941690  0.61963390  1
  O  O194  1  0.36774329  0.38979005  0.37936761  1
  O  O195  1  0.38128139  0.37349004  0.88205632  1
  O  O196  1  0.37398923  0.88780307  0.37610384  1
  O  O197  1  0.37405373  0.88088357  0.88142827  1
  O  O198  1  0.87741890  0.38859386  0.37467973  1
  O  O199  1  0.88103751  0.38176347  0.88235498  1
  O  O200  1  0.87819925  0.88834983  0.37574420  1
  O  O201  1  0.87989868  0.88126448  0.87935043  1
  O  O202  1  0.25609847  -0.00047731  0.36612794  1
  O  O203  1  0.25385084  0.00452031  0.86955680  1
  O  O204  1  0.26300195  0.50634535  0.37605742  1
  O  O205  1  0.25400758  0.50829852  0.87291663  1
  O  O206  1  0.75729113  0.00216208  0.37034658  1
  O  O207  1  0.75705761  -0.00265918  0.86248283  1
  O  O208  1  0.75927627  0.50203755  0.37056806  1
  O  O209  1  0.75654430  0.50367800  0.86711036  1
  O  O210  1  0.24371959  0.49240200  0.12556215  1
  O  O211  1  0.24609163  0.49133740  0.62376383  1
  O  O212  1  0.24523699  0.99198349  0.13035185  1
  O  O213  1  0.24451704  0.99468882  0.63010267  1
  O  O214  1  0.74247092  0.49509019  0.13108897  1
  O  O215  1  0.74632556  0.50099822  0.63369996  1
  O  O216  1  0.74764908  0.98825884  0.13278259  1
  O  O217  1  0.74430111  0.99995154  0.63472359  1
  O  O218  1  0.01281984  0.37332023  0.25089936  1
  O  O219  1  0.00151687  0.37290273  0.75919839  1
  O  O220  1  -0.00475663  0.87780969  0.26411784  1
  O  O221  1  0.00509377  0.87109826  0.75524193  1
  O  O222  1  0.50242677  0.35840555  0.24431638  1
  O  O223  1  0.50275081  0.36730434  0.75728127  1
  O  O224  1  0.50479238  0.86378192  0.24972050  1
  O  O225  1  0.51117139  0.87598642  0.75108818  1
  O  O226  1  0.49398753  0.13285331  0.24427335  1
  O  O227  1  0.49275798  0.13093049  0.74911236  1
  O  O228  1  0.50380770  0.63934983  0.24535954  1
  O  O229  1  0.49229319  0.62487341  0.74395329  1
  O  O230  1  0.98886467  0.12311664  0.24386160  1
  O  O231  1  0.98868407  0.12646967  0.74297335  1
  O  O232  1  0.99630066  0.62962903  0.24350958  1
  O  O233  1  0.99631050  0.63204815  0.74387049  1
  O  O234  1  0.36976994  0.25303592  0.00575652  1
  O  O235  1  0.37651603  0.24991980  0.50977905  1
  O  O236  1  0.37007767  0.75471381  0.00708616  1
  O  O237  1  0.36637516  0.74973812  0.50652970  1
  O  O238  1  0.86507719  0.25467472  0.00018177  1
  O  O239  1  0.86780028  0.24727724  0.50718483  1
  O  O240  1  0.88020805  0.75681342  0.01531130  1
  O  O241  1  0.86572685  0.74911311  0.50440645  1
  O  O242  1  0.12509952  0.24496796  0.49061641  1
  O  O243  1  0.13068582  0.24336070  0.99508524  1
  O  O244  1  0.13682163  0.73932710  0.50528430  1
  O  O245  1  0.12946840  0.74437536  0.99373292  1
  O  O246  1  0.63079924  0.24590502  0.49504509  1
  O  O247  1  0.63102272  0.24339306  0.99475272  1
  O  O248  1  0.63111550  0.74624537  0.49595157  1
  O  O249  1  0.61954850  0.73216046  1.00818371  1
  O  O250  1  0.49432946  0.24350931  0.13253255  1
  O  O251  1  0.49162223  0.24909014  0.63086563  1
  O  O252  1  0.48801441  0.74878790  0.13274400  1
  O  O253  1  0.49319351  0.74256146  0.62513280  1
  O  O254  1  0.99528274  0.24053378  0.12723793  1
  O  O255  1  0.98990625  0.24445471  0.62425999  1
  O  O256  1  0.99203310  0.74646364  0.12923257  1
  O  O257  1  0.99702240  0.74590696  0.62879051  1
  O  O258  1  0.01183163  0.25282791  0.37176371  1
  O  O259  1  0.00629173  0.25713364  0.87580440  1
  O  O260  1  -0.00610580  0.76749217  0.37289525  1
  O  O261  1  0.00466217  0.75612801  0.86938725  1
  O  O262  1  0.50768839  0.24287874  0.36569398  1
  O  O263  1  0.50870721  0.25368074  0.87127560  1
  O  O264  1  0.50205195  0.75029290  0.36771202  1
  O  O265  1  0.51063280  0.75402692  0.87203853  1
  O  O266  1  0.24077499  0.12723954  0.49664287  1
  O  O267  1  0.24404805  0.12890760  0.99496660  1
  O  O268  1  0.24464637  0.63113323  0.49420782  1
  O  O269  1  0.24411879  0.63054872  0.99334504  1
  O  O270  1  0.74432740  0.13611858  0.49931076  1
  O  O271  1  0.73992376  0.13412613  1.00751826  1
  O  O272  1  0.74353122  0.63653892  0.49919288  1
  O  O273  1  0.73428275  0.61725092  1.00211615  1
  O  O274  1  0.25472184  0.36768802  0.00487815  1
  O  O275  1  0.25336973  0.37085725  0.51300711  1
  O  O276  1  0.25464704  0.86927369  0.00735362  1
  O  O277  1  0.24926101  0.86528971  0.50462254  1
  O  O278  1  0.75497100  0.36806074  0.00547271  1
  O  O279  1  0.75412063  0.36190505  0.50295979  1
  O  O280  1  0.75492424  0.88351089  0.01227350  1
  O  O281  1  0.75063024  0.86292957  0.50177197  1
  O  O282  1  0.12664510  0.49027839  0.24397764  1
  O  O283  1  0.12789995  0.49874269  0.73976199  1
  O  O284  1  0.13644479  1.00748778  0.24283042  1
  O  O285  1  0.12933325  0.99534810  0.74477022  1
  O  O286  1  0.62838365  0.49999439  0.24269950  1
  O  O287  1  0.63468106  0.50197463  0.74584341  1
  O  O288  1  0.62874857  0.99430264  0.25008449  1
  O  O289  1  0.63176504  0.99762593  0.74651806  1
  O  O290  1  0.36778003  0.00360925  0.25608359  1
  O  O291  1  0.36852488  0.00434096  0.75434351  1
  O  O292  1  0.37768209  0.49508709  0.26384860  1
  O  O293  1  0.37438796  0.51247946  0.75053208  1
  O  O294  1  0.86787504  0.00766720  0.25748085  1
  O  O295  1  0.86834233  0.00732597  0.75339348  1
  O  O296  1  0.87168222  0.50692633  0.25695292  1
  O  O297  1  0.86961307  0.50660067  0.75451028  1
  O  O298  1  0.12716374  0.36864657  0.36695578  1
  O  O299  1  0.11971902  0.36884147  0.87522806  1
  O  O300  1  0.10951273  0.88274647  0.37645033  1
  O  O301  1  0.11913741  0.86986120  0.86964230  1
  O  O302  1  0.62901781  0.36021431  0.37505702  1
  O  O303  1  0.61939688  0.36296823  0.87607419  1
  O  O304  1  0.62169448  0.86698916  0.36753043  1
  O  O305  1  0.62330600  0.87802283  0.86301373  1
  O  O306  1  0.37903090  0.13019991  0.12945377  1
  O  O307  1  0.37457956  0.13470206  0.63114636  1
  O  O308  1  0.37210726  0.63813894  0.11968505  1
  O  O309  1  0.37918193  0.62876209  0.63208322  1
  O  O310  1  0.87881473  0.12315256  0.13479432  1
  O  O311  1  0.87957348  0.13334946  0.63305596  1
  O  O312  1  0.88095279  0.63284186  0.12867174  1
  O  O313  1  0.88359000  0.63178600  0.63044215  1
  O  O314  1  0.25468461  0.25320450  0.11921560  1
  O  O315  1  0.26013830  0.25689672  0.62508047  1
  O  O316  1  0.25583402  0.75584212  0.11841945  1
  O  O317  1  0.25532909  0.75403395  0.61536047  1
  O  O318  1  0.74935858  0.25676196  0.11431692  1
  O  O319  1  0.75863775  0.24952103  0.61698358  1
  O  O320  1  0.75840842  0.76194201  0.13090871  1
  O  O321  1  0.75677996  0.75063372  0.61514357  1
  O  O322  1  0.23852288  0.24697470  0.37568912  1
  O  O323  1  0.24537296  0.24351491  0.88037646  1
  O  O324  1  0.26092842  0.73963409  0.38713604  1
  O  O325  1  0.24360292  0.74550383  0.87964467  1
  O  O326  1  0.74297806  0.24746001  0.38406931  1
  O  O327  1  0.74096266  0.25663124  0.88749970  1
  O  O328  1  0.74463154  0.74922819  0.38340083  1
  O  O329  1  0.74311767  0.74595612  0.87283359  1
  O  O330  1  0.00362364  0.11815867  0.00472069  1
  O  O331  1  0.00542221  0.11873859  0.50542991  1
  O  O332  1  0.00600560  0.62051850  0.00592279  1
  O  O333  1  0.00969938  0.62305836  0.50308489  1
  O  O334  1  0.50748614  0.12075119  0.00566233  1
  O  O335  1  0.50536886  0.11265566  0.50072722  1
  O  O336  1  0.51011686  0.61564991  0.00483624  1
  O  O337  1  0.50575371  0.61516730  0.50589935  1
  O  O338  1  0.50225813  0.38856029  0.50423838  1
  O  O339  1  0.49462041  0.37708784  0.99616626  1
  O  O340  1  0.49808104  0.88719145  0.49737940  1
  O  O341  1  0.49304929  0.88229542  1.00088726  1
  O  O342  1  0.99712488  0.38554277  0.49673994  1
  O  O343  1  0.99441758  0.38140941  0.99630897  1
  O  O344  1  0.99719140  0.88147891  0.48847105  1
  O  O345  1  0.99256826  0.88060052  0.99433962  1
  O  O346  1  0.48785842  0.50637640  0.38276885  1
  O  O347  1  0.49871188  0.49078719  0.88231179  1
  O  O348  1  0.49092288  0.99894348  0.38161925  1
  O  O349  1  0.49128758  0.99922385  0.88283117  1
  O  O350  1  0.99142159  0.50161035  0.37997069  1
  O  O351  1  0.99544560  0.49600343  0.88161767  1
  O  O352  1  0.99114152  0.99270162  0.37910428  1
  O  O353  1  0.99421217  0.99428134  0.88014380  1
  O  O354  1  0.00364960  0.00355242  0.11925191  1
  O  O355  1  0.00505637  0.00504667  0.61982641  1
  O  O356  1  0.00509834  0.50708730  0.11951672  1
  O  O357  1  0.00495171  0.50754655  0.61874405  1
  O  O358  1  0.49913101  0.00568601  0.11904532  1
  O  O359  1  0.50430617  0.00191521  0.61471293  1
  O  O360  1  0.50814819  0.49947580  0.12121213  1
  O  O361  1  0.50605834  0.50522166  0.61773291  1
  O  O362  1  0.23987727  0.37642923  0.24236125  1
  O  O363  1  0.24930300  0.37698870  0.73703936  1
  O  O364  1  0.25612331  0.88703036  0.23845210  1
  O  O365  1  0.24336221  0.87961090  0.74436582  1
  O  O366  1  0.74648611  0.38241638  0.24358314  1
  O  O367  1  0.75027271  0.38981412  0.74999277  1
  O  O368  1  0.74325013  0.87964646  0.24196498  1
  O  O369  1  0.74185728  0.88730825  0.74656322  1
  O  O370  1  0.25674644  0.11338947  0.24870637  1
  O  O371  1  0.25461964  0.11864651  0.75559247  1
  O  O372  1  0.24587353  0.61967304  0.26425496  1
  O  O373  1  0.25957234  0.62543608  0.75428797  1
  O  O374  1  0.75802980  0.11926533  0.24927649  1
  O  O375  1  0.76093952  0.11554948  0.74477729  1
  O  O376  1  0.75836894  0.61854876  0.25079133  1
  O  O377  1  0.75760733  0.61480938  0.74953050  1
  O  O378  1  0.37215758  0.11261902  0.36891375  1
  O  O379  1  0.36808057  0.11936314  0.87048875  1
  O  O380  1  0.36590130  0.60957481  0.38146583  1
  O  O381  1  0.37101045  0.62596224  0.86612008  1
  O  O382  1  0.87565392  0.11463984  0.36622009  1
  O  O383  1  0.88175261  0.11951543  0.86261359  1
  O  O384  1  0.87522036  0.61599683  0.36893039  1
  O  O385  1  0.87708711  0.61926167  0.86926888  1
  O  O386  1  0.12897752  0.37833476  0.13122490  1
  O  O387  1  0.13396870  0.38011267  0.62480560  1
  O  O388  1  0.13676620  0.88180037  0.11444435  1
  O  O389  1  0.12944760  0.88080444  0.62972041  1
  O  O390  1  0.63007625  0.38597727  0.12541059  1
  O  O391  1  0.63032894  0.38349179  0.63052524  1
  O  O392  1  0.63261518  0.87505147  0.13024992  1
  O  O393  1  0.62692031  0.88385564  0.63360239  1
  O  O394  1  0.12482070  0.25756831  0.25709853  1
  O  O395  1  0.12187687  0.25155087  0.75848598  1
  O  O396  1  0.13630897  0.76199106  0.24826668  1
  O  O397  1  0.11981656  0.75550264  0.75388342  1
  O  O398  1  0.61741877  0.24886171  0.25830225  1
  O  O399  1  0.62281904  0.24796427  0.76017203  1
  O  O400  1  0.61625434  0.75416571  0.25425216  1
  O  O401  1  0.62521340  0.76404486  0.74493937  1
  O  O402  1  0.38060563  0.24460691  0.24647787  1
  O  O403  1  0.38047109  0.24411209  0.74268700  1
  O  O404  1  0.38129241  0.75664299  0.23980435  1
  O  O405  1  0.37621915  0.73936468  0.74347441  1
  O  O406  1  0.87420434  0.23798794  0.25099542  1
  O  O407  1  0.87215923  0.24237482  0.74238640  1
  O  O408  1  0.87502863  0.74562983  0.23790498  1
  O  O409  1  0.88137179  0.74633076  0.74409590  1
  O  O410  1  0.38565441  0.49660805  0.49328799  1
  O  O411  1  0.38209657  0.49142942  1.00030320  1
  O  O412  1  0.38147251  1.00024538  0.49202468  1
  O  O413  1  0.37818606  0.99507281  0.99497582  1
  O  O414  1  0.87982154  0.50303904  0.49145144  1
  O  O415  1  0.88020781  0.49609695  0.99606202  1
  O  O416  1  0.87901505  1.00251847  0.49129266  1
  O  O417  1  0.87925880  0.99533507  0.99468494  1
  O  O418  1  0.11846798  0.00552101  0.00450806  1
  O  O419  1  0.11972263  0.00617584  0.50615800  1
  O  O420  1  0.11935692  0.50492418  0.00522056  1
  O  O421  1  0.12105587  0.50858190  0.50525881  1
  O  O422  1  0.61980023  0.01009227  -0.00002483  1
  O  O423  1  0.61824430  0.00403037  0.50284647  1
  O  O424  1  0.61990675  0.50410393  0.00933723  1
  O  O425  1  0.62013497  0.50515132  0.50389790  1
  O  O426  1  0.36865430  0.36765724  0.11969655  1
  O  O427  1  0.36943860  0.36514144  0.62489417  1
  O  O428  1  0.36266852  0.86691882  0.11863258  1
  O  O429  1  0.36693441  0.86864548  0.62393136  1
  O  O430  1  0.86856490  0.37475954  0.11918047  1
  O  O431  1  0.87417303  0.36266279  0.62407011  1
  O  O432  1  0.86759104  0.86974761  0.12135976  1
  O  O433  1  0.87388649  0.86765267  0.62079138  1
  O  O434  1  0.12397861  0.13337507  0.37942557  1
  O  O435  1  0.12933766  0.12886532  0.88052613  1
  O  O436  1  0.13631702  0.61613672  0.38751199  1
  O  O437  1  0.12949191  0.63101088  0.87933447  1
  O  O438  1  0.62714512  0.13600446  0.38175212  1
  O  O439  1  0.61942893  0.13618631  0.88736493  1
  O  O440  1  0.62680189  0.63192091  0.38234239  1
  O  O441  1  0.62495512  0.62189774  0.89267730  1
