# generated using pymatgen
data_V93Zn93O256
_symmetry_space_group_name_H-M   'P 1'
_cell_length_a   17.06141635
_cell_length_b   17.06201374
_cell_length_c   17.06590244
_cell_angle_alpha   89.97796955
_cell_angle_beta   89.99952238
_cell_angle_gamma   90.01717126
_symmetry_Int_Tables_number   1
_chemical_formula_structural   V93Zn93O256
_chemical_formula_sum   'V93 Zn93 O256'
_cell_volume   4967.91979277
_cell_formula_units_Z   1
loop_
 _symmetry_equiv_pos_site_id
 _symmetry_equiv_pos_as_xyz
  1  'x, y, z'
loop_
 _atom_site_type_symbol
 _atom_site_label
 _atom_site_symmetry_multiplicity
 _atom_site_fract_x
 _atom_site_fract_y
 _atom_site_fract_z
 _atom_site_occupancy
  V  V0  1  0.50275257  0.12115895  0.12558679  1
  V  V1  1  0.12478297  0.62639735  -0.00102177  1
  V  V2  1  0.74931422  0.12444417  0.37571710  1
  V  V3  1  0.12463753  -0.00332091  0.63337352  1
  V  V4  1  0.37632335  0.62521930  0.74945036  1
  V  V5  1  -0.00157436  0.50242470  -0.00401539  1
  V  V6  1  0.12389292  0.87335345  0.25148174  1
  V  V7  1  0.00083838  0.37321520  0.37519565  1
  V  V8  1  -0.00080368  -0.00141566  0.50071910  1
  V  V9  1  0.50075780  0.87412044  0.87553510  1
  V  V10  1  0.12576557  0.50315882  0.62287295  1
  V  V11  1  0.87483766  0.24943719  0.12379299  1
  V  V12  1  0.00357282  0.87626890  0.86907879  1
  V  V13  1  0.87638121  0.00015760  0.87565676  1
  V  V14  1  0.74967522  -0.00008833  0.74968465  1
  V  V15  1  0.50420130  0.50214621  0.49813830  1
  V  V16  1  0.62667033  0.87543406  0.74858303  1
  V  V17  1  0.12439459  0.75016464  0.37477249  1
  V  V18  1  0.24949488  0.75291933  -0.00070126  1
  V  V19  1  0.74365511  0.62491494  0.37803242  1
  V  V20  1  0.87589252  0.62758944  0.74881755  1
  V  V21  1  0.62558388  0.11965102  0.00545350  1
  V  V22  1  0.50311944  0.00187995  0.50137996  1
  V  V23  1  0.25725971  0.00396837  0.74863529  1
  V  V24  1  0.36072616  0.24992354  0.12256662  1
  V  V25  1  0.50089796  0.87414514  0.37431418  1
  V  V26  1  0.24591205  0.87432794  0.62963089  1
  V  V27  1  0.25024035  0.74981218  0.49973376  1
  V  V28  1  0.50472199  0.62591678  0.62037032  1
  V  V29  1  0.24941707  -0.00163138  0.25268479  1
  V  V30  1  0.37667557  0.87530166  -0.00089433  1
  V  V31  1  0.37801266  0.24784140  0.63121334  1
  V  V32  1  0.37685897  0.37641848  0.49824196  1
  V  V33  1  0.25029552  0.62408265  0.37389693  1
  V  V34  1  0.75147486  0.37493333  0.12455269  1
  V  V35  1  0.37804137  0.00653061  0.87033033  1
  V  V36  1  -0.00034028  0.87462252  0.37531002  1
  V  V37  1  0.37468796  0.00079089  0.37658339  1
  V  V38  1  0.74338463  0.87845928  0.12509480  1
  V  V39  1  0.74374302  0.74679685  0.49881643  1
  V  V40  1  0.00030678  0.62668239  0.62440561  1
  V  V41  1  0.37509074  0.87519349  0.50088370  1
  V  V42  1  0.87307537  0.75014733  0.12495323  1
  V  V43  1  0.00081269  0.12729199  0.62763613  1
  V  V44  1  0.87573911  0.62394173  0.24952920  1
  V  V45  1  0.12215886  -0.00142844  0.12785843  1
  V  V46  1  0.24994465  0.12436989  0.37762542  1
  V  V47  1  0.62469424  0.37409652  0.24865538  1
  V  V48  1  0.87553804  0.12566760  0.74986326  1
  V  V49  1  0.87492579  0.37544343  -0.00114594  1
  V  V50  1  0.87395416  0.37564837  0.50057851  1
  V  V51  1  0.25057144  0.62781584  0.87519177  1
  V  V52  1  0.62226830  0.25094953  0.37459403  1
  V  V53  1  0.87515939  0.50021374  0.87382477  1
  V  V54  1  0.49745397  0.12442621  0.63288154  1
  V  V55  1  0.37500015  0.74962739  0.12442981  1
  V  V56  1  -0.00212193  0.12300996  0.12523377  1
  V  V57  1  0.62525021  0.49889822  0.12432847  1
  V  V58  1  0.87442923  0.87428373  0.49916405  1
  V  V59  1  0.25003652  0.37713819  0.62388922  1
  V  V60  1  0.00094439  0.62663845  0.12364986  1
  V  V61  1  0.75003246  0.75026326  0.00067950  1
  V  V62  1  0.75254557  0.49973355  0.24957967  1
  V  V63  1  0.12439280  0.24984413  0.37727033  1
  V  V64  1  0.12525099  0.12388451  0.50309568  1
  V  V65  1  0.12023747  0.37525204  0.74992869  1
  V  V66  1  0.00003956  0.00060164  0.00104098  1
  V  V67  1  0.62439767  0.62300389  -0.00049023  1
  V  V68  1  0.24691252  0.49344112  0.24384090  1
  V  V69  1  0.74090132  -0.00016075  0.24646589  1
  V  V70  1  0.37819872  0.49923120  0.87753833  1
  V  V71  1  0.25061520  0.24939455  0.50322827  1
  V  V72  1  0.25030106  0.50145837  0.74898731  1
  V  V73  1  0.50053813  0.75001043  0.25101254  1
  V  V74  1  0.62563229  0.74980754  0.87432099  1
  V  V75  1  0.36261509  0.36887552  0.00548083  1
  V  V76  1  0.87401844  0.12423429  0.25090576  1
  V  V77  1  0.37400541  0.62391690  0.24926121  1
  V  V78  1  0.37498429  0.12626083  0.25021417  1
  V  V79  1  0.75017168  0.62590844  0.87413472  1
  V  V80  1  0.62536417  0.50226281  0.62243740  1
  V  V81  1  0.12503322  0.62526396  0.49985964  1
  V  V82  1  0.62116911  0.37249765  0.75234445  1
  V  V83  1  0.24992020  0.87439094  0.12641819  1
  V  V84  1  0.75021846  0.37518901  0.62455610  1
  V  V85  1  0.87572875  0.49934129  0.37382989  1
  V  V86  1  0.74907417  0.12811413  0.87668761  1
  V  V87  1  0.50108240  0.62392405  0.12448913  1
  V  V88  1  0.37525275  0.74944492  0.62534949  1
  V  V89  1  0.74993282  0.25037292  0.50025871  1
  V  V90  1  0.74982733  0.50093908  0.74864734  1
  V  V91  1  0.87472207  0.75071699  0.62461105  1
  V  V92  1  0.12563756  0.76029022  0.86917214  1
  Zn  Zn93  1  0.74743270  0.25098317  0.00093509  1
  Zn  Zn94  1  0.50053952  0.49417470  0.00219308  1
  Zn  Zn95  1  0.87374678  0.87393934  -0.00011529  1
  Zn  Zn96  1  0.50388595  -0.00345268  0.00464878  1
  Zn  Zn97  1  0.00252817  0.24682472  0.25077976  1
  Zn  Zn98  1  0.50007674  0.37641806  0.37225417  1
  Zn  Zn99  1  0.49780165  0.24461993  0.75391863  1
  Zn  Zn100  1  -0.00087896  0.75015157  0.25021520  1
  Zn  Zn101  1  0.62242804  0.87524428  0.24861010  1
  Zn  Zn102  1  0.25249601  0.13171159  0.88325921  1
  Zn  Zn103  1  0.62297227  0.74856168  0.37595559  1
  Zn  Zn104  1  0.74943406  0.87683677  0.62155057  1
  Zn  Zn105  1  -0.00002315  0.37213264  0.87519125  1
  Zn  Zn106  1  0.00426924  0.75538928  0.74716599  1
  Zn  Zn107  1  0.13617390  0.13787343  0.00505943  1
  Zn  Zn108  1  0.62628869  0.12626860  0.50232283  1
  Zn  Zn109  1  0.13115864  0.49099370  0.11726765  1
  Zn  Zn110  1  0.12719098  0.24939845  0.88467918  1
  Zn  Zn111  1  0.87433177  0.25066994  0.62586682  1
  Zn  Zn112  1  0.62699366  0.00266628  0.62509524  1
  Zn  Zn113  1  0.49934556  0.36856389  0.87929807  1
  Zn  Zn114  1  0.49718405  0.25261817  0.24725745  1
  Zn  Zn115  1  0.13115085  0.36734700  0.24361127  1
  Zn  Zn116  1  0.00023606  0.50107653  0.49874920  1
  Zn  Zn117  1  0.50104161  0.74920425  0.74891340  1
  Zn  Zn118  1  0.87309264  -0.00149917  0.37578133  1
  Zn  Zn119  1  -0.00267672  0.25125654  0.75402959  1
  Zn  Zn120  1  0.37565113  0.49941998  0.37263834  1
  Zn  Zn121  1  0.62000718  0.24930443  0.87758180  1
  Zn  Zn122  1  0.18371369  0.18320898  0.19006216  1
  Zn  Zn123  1  0.21067417  0.20678168  0.72206153  1
  Zn  Zn124  1  0.18667467  0.68533514  0.18768771  1
  Zn  Zn125  1  0.18790367  0.68797809  0.68877376  1
  Zn  Zn126  1  0.68723627  0.18858783  0.18725959  1
  Zn  Zn127  1  0.68514839  0.18729879  0.68634671  1
  Zn  Zn128  1  0.68666681  0.68818462  0.18904795  1
  Zn  Zn129  1  0.68849310  0.68913865  0.68578826  1
  Zn  Zn130  1  0.31248271  0.31020151  0.31277475  1
  Zn  Zn131  1  0.31162563  0.31727727  0.81658847  1
  Zn  Zn132  1  0.31392724  0.81156206  0.31322001  1
  Zn  Zn133  1  0.31434914  0.81545146  0.81191702  1
  Zn  Zn134  1  0.81244614  0.31185885  0.31269016  1
  Zn  Zn135  1  0.81294041  0.31205341  0.81066594  1
  Zn  Zn136  1  0.81270339  0.81198684  0.31170986  1
  Zn  Zn137  1  0.81461194  0.81393263  0.81276664  1
  Zn  Zn138  1  0.18774356  0.43861340  0.43417744  1
  Zn  Zn139  1  0.18630891  0.43880071  0.93477489  1
  Zn  Zn140  1  0.18556426  0.93696518  0.44133764  1
  Zn  Zn141  1  0.20255125  0.96695293  0.95175420  1
  Zn  Zn142  1  0.68758124  0.43670992  0.43649852  1
  Zn  Zn143  1  0.68887901  0.43760257  0.93698830  1
  Zn  Zn144  1  0.68768027  0.93495991  0.43355374  1
  Zn  Zn145  1  0.68786895  0.93858338  0.93796708  1
  Zn  Zn146  1  0.31764289  0.06120884  0.06330928  1
  Zn  Zn147  1  0.31415260  0.06311644  0.56568127  1
  Zn  Zn148  1  0.31303271  0.56209542  0.06122269  1
  Zn  Zn149  1  0.31498091  0.56296865  0.56127461  1
  Zn  Zn150  1  0.81254329  0.06080137  0.06245152  1
  Zn  Zn151  1  0.81260436  0.06172903  0.56282599  1
  Zn  Zn152  1  0.81298639  0.56273334  0.06205764  1
  Zn  Zn153  1  0.81388874  0.56291065  0.56078848  1
  Zn  Zn154  1  0.43658529  0.43586245  0.18584360  1
  Zn  Zn155  1  0.43837448  0.43797874  0.68646838  1
  Zn  Zn156  1  0.43668627  0.93792085  0.18868039  1
  Zn  Zn157  1  0.43907629  0.93586923  0.68789455  1
  Zn  Zn158  1  0.95521512  0.42896272  0.17839842  1
  Zn  Zn159  1  0.93783326  0.44137756  0.68524350  1
  Zn  Zn160  1  0.93227554  0.93600232  0.18911561  1
  Zn  Zn161  1  0.93508295  0.93816915  0.68720778  1
  Zn  Zn162  1  0.06149885  0.06139446  0.31477406  1
  Zn  Zn163  1  0.06693525  0.06523212  0.81496838  1
  Zn  Zn164  1  0.06284492  0.56182329  0.31218410  1
  Zn  Zn165  1  0.06257928  0.56588714  0.81154817  1
  Zn  Zn166  1  0.56134208  0.06523662  0.31299968  1
  Zn  Zn167  1  0.56413178  0.06046641  0.81603046  1
  Zn  Zn168  1  0.56226499  0.56088706  0.31050343  1
  Zn  Zn169  1  0.56229029  0.56205880  0.80931789  1
  Zn  Zn170  1  0.43823327  0.18738219  0.44096968  1
  Zn  Zn171  1  0.44027065  0.18843567  0.94054304  1
  Zn  Zn172  1  0.43589746  0.68683525  0.43651570  1
  Zn  Zn173  1  0.43978156  0.68781559  0.93797177  1
  Zn  Zn174  1  0.93616370  0.18754803  0.43990818  1
  Zn  Zn175  1  0.94213281  0.19053453  0.93766017  1
  Zn  Zn176  1  0.93550469  0.68800424  0.43780203  1
  Zn  Zn177  1  0.93752368  0.69046189  0.93620667  1
  Zn  Zn178  1  0.06439464  0.31284094  0.06321185  1
  Zn  Zn179  1  0.06308766  0.31291577  0.56329657  1
  Zn  Zn180  1  0.06215616  0.81467294  0.05807459  1
  Zn  Zn181  1  0.06205843  0.81213462  0.56165296  1
  Zn  Zn182  1  0.55625422  0.30762418  0.05974848  1
  Zn  Zn183  1  0.56308912  0.31331186  0.56353744  1
  Zn  Zn184  1  0.56310668  0.81036912  0.06230684  1
  Zn  Zn185  1  0.56316800  0.81371767  0.56248823  1
  O  O186  1  0.11571071  0.11472255  0.12674538  1
  O  O187  1  0.11437006  0.11313190  0.61971317  1
  O  O188  1  0.11536834  0.62487401  0.11767272  1
  O  O189  1  0.12127729  0.62240912  0.61955074  1
  O  O190  1  0.61528071  0.13159750  0.11787275  1
  O  O191  1  0.61422531  0.12255852  0.62036215  1
  O  O192  1  0.62127503  0.61896498  0.11961005  1
  O  O193  1  0.61250282  0.61940663  0.63099081  1
  O  O194  1  0.37669828  0.37379964  0.38827062  1
  O  O195  1  0.37437401  0.38377372  0.88487852  1
  O  O196  1  0.37995226  0.88087978  0.38153378  1
  O  O197  1  0.38310269  0.87861435  0.88027002  1
  O  O198  1  0.87988818  0.37910331  0.38158933  1
  O  O199  1  0.87309673  0.38365896  0.87982564  1
  O  O200  1  0.88213736  0.87536142  0.38089160  1
  O  O201  1  0.88341633  0.88192559  0.87764623  1
  O  O202  1  0.25474173  0.00430766  0.37320557  1
  O  O203  1  0.26361438  -0.01109083  0.85916994  1
  O  O204  1  0.25305356  0.50677262  0.36499369  1
  O  O205  1  0.26007881  0.50781607  0.86968642  1
  O  O206  1  0.75197266  0.00606112  0.36588961  1
  O  O207  1  0.75604442  0.00919780  0.87049011  1
  O  O208  1  0.75528530  0.50638592  0.37028700  1
  O  O209  1  0.75530471  0.50756441  0.86825408  1
  O  O210  1  0.24821418  0.50535963  0.13896307  1
  O  O211  1  0.24643915  0.49700169  0.62926384  1
  O  O212  1  0.24448172  0.99223164  0.13494698  1
  O  O213  1  0.24530654  0.99175309  0.62776616  1
  O  O214  1  0.74545866  0.49513500  0.13052926  1
  O  O215  1  0.74479269  0.49637445  0.62883201  1
  O  O216  1  0.75640726  0.98963787  0.13416361  1
  O  O217  1  0.74720466  0.99791452  0.63355222  1
  O  O218  1  -0.00809595  0.36851850  0.26984280  1
  O  O219  1  0.00855846  0.37955077  0.75038314  1
  O  O220  1  0.00584276  0.87387726  0.25630157  1
  O  O221  1  -0.00365925  0.87646070  0.76453411  1
  O  O222  1  0.50754831  0.37291087  0.25228027  1
  O  O223  1  0.51224393  0.37691854  0.75031765  1
  O  O224  1  0.49874898  0.86893321  0.25584562  1
  O  O225  1  0.51124434  0.87224427  0.75509328  1
  O  O226  1  0.49255045  0.12706639  0.24360257  1
  O  O227  1  0.50546411  0.12296947  0.73638018  1
  O  O228  1  0.49382422  0.62914358  0.24434202  1
  O  O229  1  0.49388365  0.62555489  0.73813428  1
  O  O230  1  0.98878912  0.12199448  0.24594214  1
  O  O231  1  0.99497404  0.12209102  0.74044680  1
  O  O232  1  0.99542998  0.62570830  0.23988242  1
  O  O233  1  0.99310581  0.62839954  0.74229801  1
  O  O234  1  0.37304431  0.26169984  0.00473401  1
  O  O235  1  0.37084294  0.25860321  0.50817803  1
  O  O236  1  0.36891199  0.75502887  0.00472038  1
  O  O237  1  0.36882104  0.75509010  0.50565106  1
  O  O238  1  0.87321727  0.25684894  0.00678187  1
  O  O239  1  0.86694918  0.25725251  0.50200074  1
  O  O240  1  0.86645484  0.74992011  0.00645038  1
  O  O241  1  0.86674378  0.75539635  0.50518975  1
  O  O242  1  0.13236138  0.24398435  0.49780530  1
  O  O243  1  0.12817942  0.25057861  1.00026909  1
  O  O244  1  0.13190340  0.74489416  0.49460302  1
  O  O245  1  0.13151831  0.74598040  0.99152931  1
  O  O246  1  0.63124311  0.25216236  0.49004785  1
  O  O247  1  0.62817992  0.23721460  0.99716687  1
  O  O248  1  0.63958295  0.75469252  0.49865737  1
  O  O249  1  0.63096717  0.74277631  0.99369468  1
  O  O250  1  0.48737698  0.23755951  0.12626840  1
  O  O251  1  0.49395988  0.24141170  0.62384711  1
  O  O252  1  0.49394645  0.74391945  0.13022495  1
  O  O253  1  0.49462011  0.74116718  0.62307300  1
  O  O254  1  0.99053072  0.23974016  0.12972912  1
  O  O255  1  0.99848617  0.23615980  0.62378702  1
  O  O256  1  0.99426037  0.73993672  0.12254045  1
  O  O257  1  0.99437286  0.74535913  0.62670282  1
  O  O258  1  0.00664232  0.25585610  0.37768818  1
  O  O259  1  0.00613284  0.25492318  0.86974368  1
  O  O260  1  0.00709129  0.75619586  0.37454293  1
  O  O261  1  0.00779064  0.75913950  0.87443447  1
  O  O262  1  0.51141388  0.25112777  0.37537815  1
  O  O263  1  0.50164433  0.25096848  0.86850227  1
  O  O264  1  0.49940750  0.75548374  0.37015061  1
  O  O265  1  0.50798918  0.75511900  0.87227728  1
  O  O266  1  0.24582112  0.12956799  0.49687703  1
  O  O267  1  0.23770304  0.08352784  0.98945546  1
  O  O268  1  0.24600634  0.63084855  0.49503275  1
  O  O269  1  0.24585038  0.63255607  0.99453516  1
  O  O270  1  0.74903357  0.13072378  0.49366613  1
  O  O271  1  0.74425658  0.12418173  0.99288734  1
  O  O272  1  0.75789177  0.63445427  0.48884478  1
  O  O273  1  0.74389985  0.62985545  0.99395296  1
  O  O274  1  0.26411002  0.38158993  -0.00253707  1
  O  O275  1  0.25759810  0.37058753  0.50440911  1
  O  O276  1  0.25592868  0.87258190  0.00769153  1
  O  O277  1  0.25579393  0.86997306  0.50850425  1
  O  O278  1  0.75692907  0.37471753  0.00704391  1
  O  O279  1  0.75478026  0.37087584  0.50528018  1
  O  O280  1  0.75081963  0.86985239  0.00768668  1
  O  O281  1  0.75653113  0.86608581  0.49881514  1
  O  O282  1  0.14071855  0.50179932  0.25054401  1
  O  O283  1  0.13106837  0.49683032  0.74306439  1
  O  O284  1  0.13006853  0.99339104  0.24747485  1
  O  O285  1  0.13394082  1.00071064  0.73695757  1
  O  O286  1  0.63254527  0.49421873  0.24402858  1
  O  O287  1  0.63105730  0.49327063  0.74355409  1
  O  O288  1  0.63755991  1.00051297  0.25321855  1
  O  O289  1  0.63114499  0.98925718  0.75154731  1
  O  O290  1  0.36827910  0.00540879  0.25776007  1
  O  O291  1  0.37080484  -0.00759023  0.75896894  1
  O  O292  1  0.36435581  0.50453590  0.24981018  1
  O  O293  1  0.36981130  0.50381103  0.75718038  1
  O  O294  1  0.86519613  0.01093426  0.25207834  1
  O  O295  1  0.86900018  0.00617565  0.75634608  1
  O  O296  1  0.87018250  0.50473873  0.25483492  1
  O  O297  1  0.86832672  0.50748364  0.75357001  1
  O  O298  1  0.11631321  0.36865051  0.37442600  1
  O  O299  1  0.12503848  0.37753336  0.85984424  1
  O  O300  1  0.12045229  0.86969752  0.37137730  1
  O  O301  1  0.11563389  0.86586798  0.88339191  1
  O  O302  1  0.62575041  0.36597347  0.36782802  1
  O  O303  1  0.62487839  0.37513826  0.86441866  1
  O  O304  1  0.61476741  0.87162615  0.37088793  1
  O  O305  1  0.62133496  0.87007623  0.86804059  1
  O  O306  1  0.38006503  0.13134347  0.12973352  1
  O  O307  1  0.38456168  0.13705289  0.61813084  1
  O  O308  1  0.38044821  0.63093466  0.12878961  1
  O  O309  1  0.38292183  0.62975715  0.62969438  1
  O  O310  1  0.87735664  0.12843080  0.13343637  1
  O  O311  1  0.88599583  0.12277435  0.63067540  1
  O  O312  1  0.88062377  0.63128984  0.12934791  1
  O  O313  1  0.88049836  0.63057419  0.62918364  1
  O  O314  1  0.26162547  0.24107710  0.12875358  1
  O  O315  1  0.25933031  0.25664353  0.62252535  1
  O  O316  1  0.25482003  0.75481919  0.11955521  1
  O  O317  1  0.25373860  0.75654317  0.61983923  1
  O  O318  1  0.75751599  0.25745089  0.12484895  1
  O  O319  1  0.75009677  0.25698513  0.61787456  1
  O  O320  1  0.75428766  0.75612713  0.12032633  1
  O  O321  1  0.75629053  0.75030055  0.61490091  1
  O  O322  1  0.24518871  0.24376419  0.38324264  1
  O  O323  1  0.23871518  0.23656155  0.83737013  1
  O  O324  1  0.24484409  0.74518966  0.38067153  1
  O  O325  1  0.24460034  0.74856162  0.87965503  1
  O  O326  1  0.74131679  0.24531359  0.37977872  1
  O  O327  1  0.75036656  0.23607249  0.87601986  1
  O  O328  1  0.75037932  0.74122040  0.38152095  1
  O  O329  1  0.74540953  0.74497261  0.88040529  1
  O  O330  1  -0.00294460  0.11226674  0.00804338  1
  O  O331  1  0.00383865  0.11855826  0.50826075  1
  O  O332  1  0.00456519  0.62292359  0.00478313  1
  O  O333  1  0.00734220  0.62534833  0.50587350  1
  O  O334  1  0.50853958  0.12307469  0.00883446  1
  O  O335  1  0.50089729  0.11455448  0.50741308  1
  O  O336  1  0.50698041  0.62274293  0.00686484  1
  O  O337  1  0.49159790  0.61450836  0.51008310  1
  O  O338  1  0.49156022  0.38396693  0.50110656  1
  O  O339  1  0.48741128  0.37755503  0.99688056  1
  O  O340  1  0.49419858  0.88281839  0.49631914  1
  O  O341  1  0.49592799  0.87461990  0.99441266  1
  O  O342  1  0.99443336  0.37550207  0.49029210  1
  O  O343  1  0.99070788  0.38613908  0.99684711  1
  O  O344  1  0.99480787  0.87939207  0.49482184  1
  O  O345  1  0.99473415  0.88323382  0.99149450  1
  O  O346  1  0.49759771  0.49916468  0.38487042  1
  O  O347  1  0.48576416  0.50118340  0.87472130  1
  O  O348  1  0.49393392  0.99653170  0.38299635  1
  O  O349  1  0.49270428  0.99191932  0.87570489  1
  O  O350  1  0.99505244  0.49116928  0.37634435  1
  O  O351  1  0.99210270  0.50248918  0.87991505  1
  O  O352  1  0.99891429  0.99293188  0.38358485  1
  O  O353  1  0.99711586  0.99448521  0.88247911  1
  O  O354  1  0.00082047  0.00191904  0.11973066  1
  O  O355  1  0.00725630  0.00419591  0.62142913  1
  O  O356  1  -0.00691754  0.51869295  0.11480567  1
  O  O357  1  0.00738715  0.50911279  0.62066489  1
  O  O358  1  0.49128399  0.01564571  0.12433929  1
  O  O359  1  0.49806576  0.00666436  0.61604577  1
  O  O360  1  0.50739176  0.50712458  0.12552756  1
  O  O361  1  0.50393894  0.50778144  0.61724995  1
  O  O362  1  0.25007430  0.38954651  0.25507731  1
  O  O363  1  0.24154527  0.38386393  0.74177391  1
  O  O364  1  0.24492384  0.87902184  0.24664424  1
  O  O365  1  0.25534472  0.88085759  0.73386182  1
  O  O366  1  0.74588259  0.38090913  0.24431955  1
  O  O367  1  0.74273369  0.38171377  0.74436549  1
  O  O368  1  0.74950713  0.88329228  0.24341908  1
  O  O369  1  0.74129634  0.88095497  0.75101924  1
  O  O370  1  0.25468389  0.11718479  0.25872715  1
  O  O371  1  0.25423986  0.10416716  0.74198692  1
  O  O372  1  0.25512218  0.61765564  0.25452924  1
  O  O373  1  0.25688685  0.62041584  0.75515510  1
  O  O374  1  0.75580206  0.11816768  0.25343302  1
  O  O375  1  0.75348356  0.11979341  0.75783543  1
  O  O376  1  0.75647006  0.61950780  0.25699473  1
  O  O377  1  0.75507621  0.62039036  0.75430164  1
  O  O378  1  0.36935840  0.12098663  0.37179733  1
  O  O379  1  0.37412462  0.10914106  0.88325419  1
  O  O380  1  0.36781042  0.62393706  0.36725765  1
  O  O381  1  0.37035246  0.61893074  0.87114875  1
  O  O382  1  0.86852569  0.12499580  0.36618517  1
  O  O383  1  0.86802669  0.11961256  0.87069054  1
  O  O384  1  0.86834944  0.61924120  0.36881835  1
  O  O385  1  0.86894673  0.62147406  0.86903526  1
  O  O386  1  0.08337696  0.39065417  0.14268634  1
  O  O387  1  0.13032344  0.38478270  0.62766302  1
  O  O388  1  0.12961657  0.87823139  0.13204102  1
  O  O389  1  0.13534205  0.88430928  0.61631877  1
  O  O390  1  0.63060783  0.37872394  0.12905387  1
  O  O391  1  0.63054254  0.38176609  0.63272242  1
  O  O392  1  0.63903097  0.86926186  0.12715514  1
  O  O393  1  0.62626404  0.87708315  0.63730059  1
  O  O394  1  0.12291492  0.25000943  0.26063933  1
  O  O395  1  0.11678377  0.27002284  0.73583136  1
  O  O396  1  0.12400737  0.75583059  0.25684996  1
  O  O397  1  0.12458799  0.74619352  0.76443498  1
  O  O398  1  0.62495265  0.25556329  0.25989668  1
  O  O399  1  0.62425970  0.26250021  0.75095518  1
  O  O400  1  0.61495803  0.75110952  0.25297510  1
  O  O401  1  0.62635779  0.75945913  0.75587306  1
  O  O402  1  0.37488032  0.24414131  0.24222313  1
  O  O403  1  0.37869743  0.26381723  0.73296205  1
  O  O404  1  0.37960872  0.74426016  0.24351434  1
  O  O405  1  0.37682395  0.74354479  0.74296958  1
  O  O406  1  0.87319828  0.23687276  0.24526320  1
  O  O407  1  0.87693826  0.24155114  0.74525757  1
  O  O408  1  0.87711267  0.74224536  0.24280224  1
  O  O409  1  0.87549792  0.74421990  0.74284772  1
  O  O410  1  0.38367840  0.49101378  0.49987039  1
  O  O411  1  0.37559900  0.49139218  0.99317451  1
  O  O412  1  0.38321245  0.99544829  0.49587812  1
  O  O413  1  0.37952135  0.98935431  0.99006147  1
  O  O414  1  0.87659484  0.49323418  0.49202757  1
  O  O415  1  0.87820724  0.49674939  0.99262419  1
  O  O416  1  0.88143717  0.99264970  0.49882958  1
  O  O417  1  0.88473216  0.99832808  0.99461150  1
  O  O418  1  0.10782642  -0.00785978  0.01152468  1
  O  O419  1  0.11996258  0.00500482  0.50973269  1
  O  O420  1  0.11870745  0.50812612  -0.00085597  1
  O  O421  1  0.12604850  0.50811925  0.50521260  1
  O  O422  1  0.62309020  0.01412467  -0.00405965  1
  O  O423  1  0.61220899  -0.00137866  0.50023648  1
  O  O424  1  0.62437338  0.50590332  0.00617490  1
  O  O425  1  0.61228385  0.49196984  0.50628773  1
  O  O426  1  0.37709170  0.36664701  0.11245264  1
  O  O427  1  0.37126504  0.37076870  0.61454221  1
  O  O428  1  0.36976582  0.86885663  0.12048758  1
  O  O429  1  0.36795504  0.86913665  0.61898043  1
  O  O430  1  0.87164376  0.37012288  0.11960217  1
  O  O431  1  0.86806097  0.37582640  0.61881687  1
  O  O432  1  0.86389160  0.86715609  0.12422971  1
  O  O433  1  0.87334322  0.86843360  0.61803731  1
  O  O434  1  0.13018925  0.12858432  0.38318788  1
  O  O435  1  0.13083112  0.12658656  0.88130732  1
  O  O436  1  0.13009715  0.63085291  0.38024621  1
  O  O437  1  0.13158924  0.63403887  0.88041799  1
  O  O438  1  0.63049322  0.13538355  0.37698063  1
  O  O439  1  0.63526363  0.12506569  0.88215013  1
  O  O440  1  0.64043636  0.62435042  0.36988333  1
  O  O441  1  0.63055476  0.62909373  0.87808402  1
