# generated using pymatgen
data_V93Zn93O256
_symmetry_space_group_name_H-M   'P 1'
_cell_length_a   17.05395097
_cell_length_b   17.05108605
_cell_length_c   17.05064623
_cell_angle_alpha   89.97617077
_cell_angle_beta   89.96236595
_cell_angle_gamma   89.96010313
_symmetry_Int_Tables_number   1
_chemical_formula_structural   V93Zn93O256
_chemical_formula_sum   'V93 Zn93 O256'
_cell_volume   4958.12718679
_cell_formula_units_Z   1
loop_
 _symmetry_equiv_pos_site_id
 _symmetry_equiv_pos_as_xyz
  1  'x, y, z'
loop_
 _atom_site_type_symbol
 _atom_site_label
 _atom_site_symmetry_multiplicity
 _atom_site_fract_x
 _atom_site_fract_y
 _atom_site_fract_z
 _atom_site_occupancy
  V  V0  1  0.87783849  0.61948178  0.25681928  1
  V  V1  1  0.25052540  0.00042435  0.25083117  1
  V  V2  1  0.49920402  0.62443907  0.62537891  1
  V  V3  1  0.00067404  -0.00009883  -0.00097493  1
  V  V4  1  0.62434841  0.12517208  -0.00070661  1
  V  V5  1  0.00189170  0.62464506  0.12735681  1
  V  V6  1  0.49401352  0.37997154  0.37528462  1
  V  V7  1  0.24955004  0.00022934  0.74994471  1
  V  V8  1  0.62432251  0.87277012  0.25112020  1
  V  V9  1  0.62425624  0.25034835  0.87331635  1
  V  V10  1  0.25558008  0.61962377  0.37692010  1
  V  V11  1  0.25531078  0.49788022  0.25520931  1
  V  V12  1  -0.00218827  0.37825365  0.37476542  1
  V  V13  1  0.37467672  0.12408542  0.25004237  1
  V  V14  1  0.75045258  0.62145533  0.87690212  1
  V  V15  1  0.49816446  0.24897196  0.24952642  1
  V  V16  1  0.37418925  0.12469413  0.75040511  1
  V  V17  1  0.37471414  0.74957685  0.62652064  1
  V  V18  1  0.37319495  0.24944583  0.62560364  1
  V  V19  1  0.37267947  0.38022387  0.49653129  1
  V  V20  1  0.50007385  0.00088548  0.49984971  1
  V  V21  1  0.12358885  0.24345378  0.37895476  1
  V  V22  1  0.62471398  0.24847427  0.37482966  1
  V  V23  1  0.37415036  -0.00042157  0.87523339  1
  V  V24  1  0.74986911  0.25059076  0.49889039  1
  V  V25  1  0.87649029  -0.00053842  0.37467476  1
  V  V26  1  0.74987527  0.12491557  0.37508841  1
  V  V27  1  0.50054291  0.12504850  0.12498538  1
  V  V28  1  0.12076478  0.26481641  0.87098922  1
  V  V29  1  0.38045171  0.62357242  0.24971783  1
  V  V30  1  0.49862597  0.12503402  0.62436473  1
  V  V31  1  0.75017138  0.00049285  0.74811473  1
  V  V32  1  0.12542574  0.62596259  0.00229584  1
  V  V33  1  0.62613404  0.00102329  0.12353642  1
  V  V34  1  0.37498801  0.49971483  0.87494047  1
  V  V35  1  -0.00133546  0.49906261  0.49687092  1
  V  V36  1  0.12528397  0.75000207  0.37515968  1
  V  V37  1  0.00092097  0.74902411  0.75031159  1
  V  V38  1  0.49949816  0.37469497  0.87350717  1
  V  V39  1  0.87597419  0.87509582  0.00017658  1
  V  V40  1  0.00270490  0.00423170  0.49833548  1
  V  V41  1  0.00162457  0.26324096  0.75143799  1
  V  V42  1  0.62158013  0.50048274  0.62050236  1
  V  V43  1  0.25120592  0.87388743  0.12603284  1
  V  V44  1  0.00024536  0.12692221  0.12365892  1
  V  V45  1  0.37438602  0.00017655  0.37447169  1
  V  V46  1  0.87389543  0.25362507  0.12285284  1
  V  V47  1  0.12563522  0.75078859  0.87549543  1
  V  V48  1  0.50058977  0.87455529  0.87534997  1
  V  V49  1  0.24390551  0.37418282  0.62890170  1
  V  V50  1  -0.00020237  0.25165448  0.24902263  1
  V  V51  1  0.37416087  0.37386439  0.00007675  1
  V  V52  1  0.00054193  0.62550374  0.62534785  1
  V  V53  1  0.87681790  0.12648701  0.74967380  1
  V  V54  1  0.75208197  0.00056780  0.25012461  1
  V  V55  1  0.12529696  0.62401829  0.50044733  1
  V  V56  1  0.24462075  0.24397704  0.50013205  1
  V  V57  1  0.00066119  0.87355899  0.87489203  1
  V  V58  1  0.50432542  0.50522022  0.00763949  1
  V  V59  1  0.75188806  0.87593687  0.12449573  1
  V  V60  1  0.37632403  0.87442364  0.00030402  1
  V  V61  1  0.12662383  0.12514858  -0.00545475  1
  V  V62  1  0.50027620  0.87372975  0.37298889  1
  V  V63  1  0.87655728  0.74969236  0.12636532  1
  V  V64  1  0.12553150  0.00010391  0.12497139  1
  V  V65  1  0.12555839  0.00289176  0.62111550  1
  V  V66  1  0.74988848  0.12594821  0.87372959  1
  V  V67  1  0.37507940  0.87493934  0.50019043  1
  V  V68  1  0.74786298  0.37484615  0.62207754  1
  V  V69  1  0.62475077  0.37517358  0.24659004  1
  V  V70  1  -0.00355970  0.49518582  -0.00500416  1
  V  V71  1  0.25080195  0.37313535  0.12502785  1
  V  V72  1  0.24960480  0.87488930  0.62517716  1
  V  V73  1  0.62623368  0.75058202  0.87475134  1
  V  V74  1  0.75139050  0.62527008  0.37799536  1
  V  V75  1  0.25174171  0.74854757  0.00130920  1
  V  V76  1  0.12368713  0.49800847  0.62752687  1
  V  V77  1  0.12542865  0.87423401  0.25119223  1
  V  V78  1  0.24518504  0.49665228  0.75151547  1
  V  V79  1  0.75140352  0.74946258  -0.00068188  1
  V  V80  1  0.75378483  0.49839920  0.25356550  1
  V  V81  1  0.25120267  0.62427504  0.87604430  1
  V  V82  1  0.74842530  0.50064982  0.74993945  1
  V  V83  1  0.62493267  0.00039773  0.62466400  1
  V  V84  1  0.62280722  0.37425976  0.74840823  1
  V  V85  1  0.62550822  0.87567470  0.74974026  1
  V  V86  1  0.87352436  0.75148416  0.62318915  1
  V  V87  1  0.87364212  0.37950433  0.49395687  1
  V  V88  1  0.38312935  0.74528650  0.12734919  1
  V  V89  1  0.87587654  0.00045920  0.87406182  1
  V  V90  1  0.00316860  0.12668892  0.62349366  1
  V  V91  1  0.74992113  0.25223411  -0.00036220  1
  V  V92  1  0.12586739  0.37498389  0.25095912  1
  Zn  Zn93  1  0.37491724  0.62458156  0.75087349  1
  Zn  Zn94  1  0.24925121  0.74897594  0.50144393  1
  Zn  Zn95  1  0.49936294  0.00075201  -0.00020109  1
  Zn  Zn96  1  0.50104693  0.74884058  0.75144010  1
  Zn  Zn97  1  0.87437269  0.37429027  -0.00821079  1
  Zn  Zn98  1  0.49813169  0.24991440  0.74918139  1
  Zn  Zn99  1  0.49362569  0.50285267  0.49592929  1
  Zn  Zn100  1  0.87517901  0.12649277  0.24869635  1
  Zn  Zn101  1  0.74833963  0.75405328  0.49931196  1
  Zn  Zn102  1  0.62381396  0.62794225  0.49805611  1
  Zn  Zn103  1  0.24663998  0.12258292  0.37797252  1
  Zn  Zn104  1  0.62085854  0.63226486  0.00970034  1
  Zn  Zn105  1  0.00063890  0.87497350  0.37554735  1
  Zn  Zn106  1  0.37352022  0.24665592  0.12219104  1
  Zn  Zn107  1  0.87554194  0.25112960  0.62553366  1
  Zn  Zn108  1  0.74988975  0.87533327  0.62202141  1
  Zn  Zn109  1  0.62173976  0.51445493  0.13210274  1
  Zn  Zn110  1  0.50643932  0.74019303  0.24881900  1
  Zn  Zn111  1  0.12484374  0.87544400  0.74981237  1
  Zn  Zn112  1  0.74915760  0.37959037  0.12269711  1
  Zn  Zn113  1  0.88185912  0.49294714  0.86545121  1
  Zn  Zn114  1  0.87393026  0.87558778  0.49991009  1
  Zn  Zn115  1  0.62479734  0.75014082  0.37959108  1
  Zn  Zn116  1  0.24967662  0.25071575  -0.00326817  1
  Zn  Zn117  1  0.12612390  0.49991350  0.12551666  1
  Zn  Zn118  1  0.62454439  0.12520311  0.50024453  1
  Zn  Zn119  1  0.25014025  0.12685753  0.87406761  1
  Zn  Zn120  1  -0.00011548  0.75094207  0.25210955  1
  Zn  Zn121  1  0.87472140  0.62431703  0.75001984  1
  Zn  Zn122  1  0.18692946  0.18735101  0.18841982  1
  Zn  Zn123  1  0.18545720  0.18753346  0.69029162  1
  Zn  Zn124  1  0.19123304  0.68726149  0.18955274  1
  Zn  Zn125  1  0.18773563  0.68572964  0.68976803  1
  Zn  Zn126  1  0.68830760  0.18749778  0.18775603  1
  Zn  Zn127  1  0.68640699  0.18773711  0.68595694  1
  Zn  Zn128  1  0.69084911  0.68641095  0.18706758  1
  Zn  Zn129  1  0.68750212  0.68739355  0.68885851  1
  Zn  Zn130  1  0.31205992  0.30858187  0.31359166  1
  Zn  Zn131  1  0.30990759  0.31131699  0.81361506  1
  Zn  Zn132  1  0.31262392  0.80961730  0.31279913  1
  Zn  Zn133  1  0.31238146  0.81373297  0.81140171  1
  Zn  Zn134  1  0.81256485  0.31181206  0.31205803  1
  Zn  Zn135  1  0.81446510  0.31505163  0.81150233  1
  Zn  Zn136  1  0.81300289  0.81019378  0.31215959  1
  Zn  Zn137  1  0.81279918  0.81173355  0.80972041  1
  Zn  Zn138  1  0.18437433  0.43435355  0.43904542  1
  Zn  Zn139  1  0.18538147  0.44077908  0.94101176  1
  Zn  Zn140  1  0.18839967  0.93671108  0.43931963  1
  Zn  Zn141  1  0.18957950  0.93625540  0.93733931  1
  Zn  Zn142  1  0.68534528  0.43797449  0.43384472  1
  Zn  Zn143  1  0.68709881  0.43547153  0.93712578  1
  Zn  Zn144  1  0.68880516  0.93680169  0.43981753  1
  Zn  Zn145  1  0.68802581  0.93822870  0.93626802  1
  Zn  Zn146  1  0.31246773  0.06205594  0.06246091  1
  Zn  Zn147  1  0.31348436  0.06196732  0.56322175  1
  Zn  Zn148  1  0.31536346  0.56027710  0.06533207  1
  Zn  Zn149  1  0.31111679  0.56216240  0.56429993  1
  Zn  Zn150  1  0.81300137  0.06529252  0.06136816  1
  Zn  Zn151  1  0.81411358  0.06431670  0.56181431  1
  Zn  Zn152  1  0.81168079  0.56327792  0.06706767  1
  Zn  Zn153  1  0.81403650  0.56267113  0.56309822  1
  Zn  Zn154  1  0.43489564  0.43579268  0.18800237  1
  Zn  Zn155  1  0.43319383  0.43653701  0.68723075  1
  Zn  Zn156  1  0.43887997  0.93764476  0.18620497  1
  Zn  Zn157  1  0.43882899  0.93723224  0.68901944  1
  Zn  Zn158  1  0.93815122  0.43769541  0.18465489  1
  Zn  Zn159  1  0.93180900  0.43977606  0.68109229  1
  Zn  Zn160  1  0.94038323  0.93731460  0.18910453  1
  Zn  Zn161  1  0.93843663  0.93589837  0.68804503  1
  Zn  Zn162  1  0.06154119  0.06442881  0.30937559  1
  Zn  Zn163  1  0.06265774  0.06437162  0.80915801  1
  Zn  Zn164  1  0.06720557  0.56020577  0.31350610  1
  Zn  Zn165  1  0.06514651  0.56468969  0.81274313  1
  Zn  Zn166  1  0.56296522  0.06102020  0.31225152  1
  Zn  Zn167  1  0.56036173  0.06188707  0.81154419  1
  Zn  Zn168  1  0.56684383  0.56072868  0.31471974  1
  Zn  Zn169  1  0.56347688  0.56317197  0.81429944  1
  Zn  Zn170  1  0.43483834  0.18959976  0.43748340  1
  Zn  Zn171  1  0.43710927  0.18794520  0.93736483  1
  Zn  Zn172  1  0.43941384  0.69002287  0.43784887  1
  Zn  Zn173  1  0.43767696  0.68733541  0.93713022  1
  Zn  Zn174  1  0.93554364  0.18871336  0.43811095  1
  Zn  Zn175  1  0.93901495  0.19031743  0.93537748  1
  Zn  Zn176  1  0.93819449  0.68681831  0.43948552  1
  Zn  Zn177  1  0.93625534  0.68375011  0.93736940  1
  Zn  Zn178  1  0.06509702  0.31258700  0.06191516  1
  Zn  Zn179  1  0.06099790  0.31220714  0.56215674  1
  Zn  Zn180  1  0.06336496  0.81185238  0.06337110  1
  Zn  Zn181  1  0.06077332  0.81553304  0.56079401  1
  Zn  Zn182  1  0.56029011  0.31271954  0.06110641  1
  Zn  Zn183  1  0.55985637  0.31076549  0.56015844  1
  Zn  Zn184  1  0.56371162  0.81322993  0.06227252  1
  Zn  Zn185  1  0.56397072  0.81209726  0.56140427  1
  O  O186  1  0.11997613  0.12130914  0.11536159  1
  O  O187  1  0.11475412  0.11446927  0.63053037  1
  O  O188  1  0.11766818  0.62603749  0.12201119  1
  O  O189  1  0.12072103  0.61893092  0.61965211  1
  O  O190  1  0.62098725  0.12044265  0.11968436  1
  O  O191  1  0.61695524  0.11855859  0.62342982  1
  O  O192  1  0.62363918  0.62686893  0.12280025  1
  O  O193  1  0.61621043  0.61649564  0.62516981  1
  O  O194  1  0.38288085  0.36742852  0.38373102  1
  O  O195  1  0.37824438  0.38027666  0.88008435  1
  O  O196  1  0.37915987  0.87997556  0.37938565  1
  O  O197  1  0.38008445  0.87859044  0.88078442  1
  O  O198  1  0.88147836  0.36967874  0.38547504  1
  O  O199  1  0.86973608  0.38227339  0.87975672  1
  O  O200  1  0.87792692  0.88844599  0.37306542  1
  O  O201  1  0.88041262  0.88026391  0.88075071  1
  O  O202  1  0.25532047  0.00177462  0.36984546  1
  O  O203  1  0.25626406  0.00052759  0.86824288  1
  O  O204  1  0.24315099  0.50801224  0.36691666  1
  O  O205  1  0.25327631  0.50328341  0.86938737  1
  O  O206  1  0.75869904  0.00480780  0.37033058  1
  O  O207  1  0.75647306  0.00643872  0.86892840  1
  O  O208  1  0.74541140  0.50853168  0.36196082  1
  O  O209  1  0.74415681  0.50977743  0.86895582  1
  O  O210  1  0.24890387  0.48944012  0.13426631  1
  O  O211  1  0.24484541  0.49307593  0.63252185  1
  O  O212  1  0.24454144  0.99336371  0.13047030  1
  O  O213  1  0.24261454  0.99605074  0.62810122  1
  O  O214  1  0.74672906  0.49852157  0.13908797  1
  O  O215  1  0.73928776  0.49634828  0.62853147  1
  O  O216  1  0.74698817  0.99537046  0.12932150  1
  O  O217  1  0.74410859  1.00199760  0.63159484  1
  O  O218  1  0.00522399  0.37133547  0.25411227  1
  O  O219  1  -0.00502855  0.36140781  0.73808694  1
  O  O220  1  0.00980082  0.87202150  0.25339939  1
  O  O221  1  0.00224157  0.86813367  0.75825343  1
  O  O222  1  0.50433057  0.37054325  0.25666076  1
  O  O223  1  0.50442738  0.37427021  0.75530467  1
  O  O224  1  0.51126346  0.87703781  0.25438883  1
  O  O225  1  0.50726716  0.87353259  0.75763306  1
  O  O226  1  0.49532233  0.12903536  0.24478369  1
  O  O227  1  0.49171266  0.12610726  0.74258106  1
  O  O228  1  0.48434397  0.62099828  0.26039108  1
  O  O229  1  0.49728623  0.62564314  0.73829119  1
  O  O230  1  0.99889233  0.13356314  0.24083480  1
  O  O231  1  0.99514220  0.13120236  0.74096952  1
  O  O232  1  0.99495067  0.62238043  0.24353512  1
  O  O233  1  1.00001068  0.63085206  0.74310376  1
  O  O234  1  0.37004407  0.25785497  0.00101420  1
  O  O235  1  0.36449531  0.25930889  0.50549785  1
  O  O236  1  0.37079007  0.75317711  0.00846623  1
  O  O237  1  0.37353687  0.75596109  0.51145394  1
  O  O238  1  0.87023457  0.24982448  0.00741501  1
  O  O239  1  0.86864545  0.26043595  0.50210424  1
  O  O240  1  0.87138018  0.75588861  0.00564734  1
  O  O241  1  0.87641508  0.75206864  0.51105749  1
  O  O242  1  0.13314121  0.25696792  0.49031404  1
  O  O243  1  0.12188192  0.24237276  0.98738864  1
  O  O244  1  0.12616009  0.74368695  0.49228753  1
  O  O245  1  0.13223799  0.74545383  0.99587770  1
  O  O246  1  0.63146850  0.24958079  0.49212026  1
  O  O247  1  0.62969427  0.24484141  0.99371656  1
  O  O248  1  0.63010871  0.74523189  0.49831087  1
  O  O249  1  0.63395571  0.75283480  0.99295325  1
  O  O250  1  0.49848284  0.24317607  0.13190229  1
  O  O251  1  0.49130793  0.24397313  0.62544331  1
  O  O252  1  0.48679254  0.75510213  0.12843303  1
  O  O253  1  0.49141440  0.74153321  0.62581588  1
  O  O254  1  0.99351952  0.24700412  0.12805279  1
  O  O255  1  1.00301595  0.24033936  0.63167947  1
  O  O256  1  0.99622878  0.73918569  0.12610971  1
  O  O257  1  0.99499309  0.74537972  0.62964376  1
  O  O258  1  0.00571951  0.25587637  0.37044901  1
  O  O259  1  0.01211012  0.24664139  0.86641062  1
  O  O260  1  0.01383006  0.74963180  0.37452574  1
  O  O261  1  0.00515473  0.75329414  0.87179583  1
  O  O262  1  0.50460614  0.25801135  0.36926772  1
  O  O263  1  0.50644800  0.25680330  0.87303742  1
  O  O264  1  0.50271575  0.75856615  0.36972206  1
  O  O265  1  0.50698949  0.75559675  0.87433828  1
  O  O266  1  0.25515816  0.14023904  0.50013263  1
  O  O267  1  0.23758400  0.12734207  1.00047071  1
  O  O268  1  0.24448825  0.62366459  0.49219708  1
  O  O269  1  0.24611334  0.62829065  0.99650357  1
  O  O270  1  0.74928750  0.13235768  0.49300466  1
  O  O271  1  0.74419516  0.13110577  0.99308900  1
  O  O272  1  0.75198229  0.62213192  0.48653646  1
  O  O273  1  0.75076495  0.63070911  0.99224024  1
  O  O274  1  0.25426384  0.37709711  0.01021946  1
  O  O275  1  0.25524060  0.36715203  0.50701245  1
  O  O276  1  0.25629211  0.86806437  0.00623773  1
  O  O277  1  0.25759798  0.87300349  0.50772306  1
  O  O278  1  0.74874304  0.36708956  0.00532902  1
  O  O279  1  0.75570385  0.37194773  0.50056087  1
  O  O280  1  0.75740960  0.87077118  0.00455676  1
  O  O281  1  0.75624446  0.87296059  0.50435004  1
  O  O282  1  0.13781815  0.49364906  0.24783494  1
  O  O283  1  0.13727398  0.50372272  0.74520718  1
  O  O284  1  0.13026340  0.99547663  0.24412462  1
  O  O285  1  0.12976732  0.99826715  0.73899396  1
  O  O286  1  0.63218015  0.48991543  0.24965451  1
  O  O287  1  0.62805229  0.49451805  0.73963178  1
  O  O288  1  0.63201421  0.99170962  0.24402368  1
  O  O289  1  0.63077116  0.99597680  0.74504603  1
  O  O290  1  0.36967456  0.00363266  0.25495657  1
  O  O291  1  0.36901823  0.00457348  0.75480562  1
  O  O292  1  0.36292473  0.50737432  0.24536716  1
  O  O293  1  0.36252953  0.50078423  0.75564740  1
  O  O294  1  0.87142553  0.00267424  0.25754969  1
  O  O295  1  0.87131898  0.00581694  0.75544884  1
  O  O296  1  0.86734877  0.50919311  0.24437717  1
  O  O297  1  0.86415763  0.50421083  0.74705229  1
  O  O298  1  0.11881340  0.36475002  0.36958454  1
  O  O299  1  0.12566584  0.36271415  0.87977514  1
  O  O300  1  0.12702674  0.86516419  0.37066697  1
  O  O301  1  0.11861667  0.86810181  0.87584643  1
  O  O302  1  0.61683283  0.36850758  0.36525503  1
  O  O303  1  0.61954390  0.36940625  0.86777677  1
  O  O304  1  0.62058232  0.87741637  0.36431331  1
  O  O305  1  0.62096040  0.87071310  0.86988175  1
  O  O306  1  0.38162125  0.12449063  0.13139779  1
  O  O307  1  0.37920362  0.12980025  0.63055024  1
  O  O308  1  0.36752722  0.63471084  0.13660544  1
  O  O309  1  0.38135849  0.63223078  0.62525815  1
  O  O310  1  0.88163077  0.13626066  0.12393587  1
  O  O311  1  0.88639099  0.12649823  0.63110164  1
  O  O312  1  0.88355478  0.63023086  0.13489604  1
  O  O313  1  0.88273672  0.63388770  0.62550445  1
  O  O314  1  0.24953235  0.26248603  0.12387056  1
  O  O315  1  0.25023099  0.25681016  0.61966368  1
  O  O316  1  0.25893848  0.75505303  0.12067028  1
  O  O317  1  0.25841263  0.75400863  0.62477514  1
  O  O318  1  0.75935924  0.25001238  0.11967306  1
  O  O319  1  0.74940245  0.25716062  0.61714564  1
  O  O320  1  0.75825815  0.75710404  0.11962774  1
  O  O321  1  0.76254235  0.74859260  0.62529684  1
  O  O322  1  0.24047560  0.24961524  0.38336958  1
  O  O323  1  0.23381107  0.24723230  0.87509377  1
  O  O324  1  0.24052610  0.74012420  0.37706349  1
  O  O325  1  0.24678787  0.74501123  0.88157350  1
  O  O326  1  0.74477064  0.24463101  0.37872988  1
  O  O327  1  0.74368380  0.24394432  0.87905591  1
  O  O328  1  0.74928963  0.73791564  0.37507056  1
  O  O329  1  0.74705497  0.74230837  0.87958431  1
  O  O330  1  0.00846896  0.11942542  0.00340359  1
  O  O331  1  -0.00555450  0.11619157  0.51132370  1
  O  O332  1  0.00460688  0.61957954  0.01043447  1
  O  O333  1  0.00618500  0.61834347  0.50508531  1
  O  O334  1  0.50709603  0.12410410  0.00642072  1
  O  O335  1  0.49866424  0.11893621  0.50605808  1
  O  O336  1  0.49963897  0.60805600  -0.00536705  1
  O  O337  1  0.49905321  0.62085580  0.51114106  1
  O  O338  1  0.48916927  0.37338575  0.49211136  1
  O  O339  1  0.49427755  0.38297536  0.99326449  1
  O  O340  1  0.49414667  0.88115108  0.49370976  1
  O  O341  1  0.49360073  0.87671396  0.99378983  1
  O  O342  1  0.99182699  0.37862185  0.49592896  1
  O  O343  1  1.00256866  0.39359045  1.00754397  1
  O  O344  1  0.99689151  0.89068018  0.49691259  1
  O  O345  1  0.99526042  0.88018009  0.99571468  1
  O  O346  1  0.50585488  0.48343723  0.37784364  1
  O  O347  1  0.49494739  0.49364732  0.88214196  1
  O  O348  1  0.49373056  0.99415089  0.37963259  1
  O  O349  1  0.49248333  0.99299685  0.87693314  1
  O  O350  1  1.00977987  0.49058173  0.38412015  1
  O  O351  1  1.00029892  0.51070947  0.89160138  1
  O  O352  1  0.99435805  1.00390865  0.38212779  1
  O  O353  1  0.99529540  0.99479234  0.87944083  1
  O  O354  1  0.00607652  0.00555309  0.11856695  1
  O  O355  1  0.00613878  0.00662280  0.61903856  1
  O  O356  1  0.00288133  0.51153196  0.11828705  1
  O  O357  1  0.00557570  0.50526458  0.61864634  1
  O  O358  1  0.50829924  0.00665794  0.12305920  1
  O  O359  1  0.50406643  0.00507880  0.61928508  1
  O  O360  1  0.49825524  0.49387135  0.11033051  1
  O  O361  1  0.50549122  0.50674667  0.62465482  1
  O  O362  1  0.24799579  0.38051660  0.24564139  1
  O  O363  1  0.25480825  0.38367537  0.73870617  1
  O  O364  1  0.24538035  0.88050262  0.24528973  1
  O  O365  1  0.24823599  0.88239173  0.74263255  1
  O  O366  1  0.74180491  0.38169938  0.25153914  1
  O  O367  1  0.74201995  0.38048334  0.74154933  1
  O  O368  1  0.74379566  0.88036174  0.24439369  1
  O  O369  1  0.74379318  0.88330117  0.74885414  1
  O  O370  1  0.25563742  0.11761213  0.25057501  1
  O  O371  1  0.25649686  0.11746462  0.74994124  1
  O  O372  1  0.25675698  0.61633871  0.25790247  1
  O  O373  1  0.25173478  0.61440923  0.75711513  1
  O  O374  1  0.75184050  0.11808821  0.25631916  1
  O  O375  1  0.75615480  0.12097945  0.75482104  1
  O  O376  1  0.75946396  0.61802335  0.25717316  1
  O  O377  1  0.74861767  0.61888872  0.76065785  1
  O  O378  1  0.37319341  0.11793275  0.36803226  1
  O  O379  1  0.37263810  0.11856414  0.86944034  1
  O  O380  1  0.36144285  0.63278135  0.36851988  1
  O  O381  1  0.36816188  0.61844491  0.87380473  1
  O  O382  1  0.87019311  0.11553492  0.37243349  1
  O  O383  1  0.87026394  0.11977150  0.87031288  1
  O  O384  1  0.87013318  0.62920249  0.36354881  1
  O  O385  1  0.86239168  0.61982821  0.87335381  1
  O  O386  1  0.13455654  0.37541965  0.13225375  1
  O  O387  1  0.13752281  0.38088903  0.61794593  1
  O  O388  1  0.13124466  0.87993404  0.12966899  1
  O  O389  1  0.13011392  0.88537514  0.62588618  1
  O  O390  1  0.62356140  0.37391224  0.14025273  1
  O  O391  1  0.62678325  0.38256616  0.62741475  1
  O  O392  1  0.63188402  0.88060684  0.13171786  1
  O  O393  1  0.62477300  0.88289022  0.63245647  1
  O  O394  1  0.11956664  0.25601237  0.25740635  1
  O  O395  1  0.11755590  0.24616559  0.76395272  1
  O  O396  1  0.12631669  0.75435351  0.25949336  1
  O  O397  1  0.11960865  0.75133444  0.75767786  1
  O  O398  1  0.61953704  0.25699779  0.25515261  1
  O  O399  1  0.62279932  0.25667589  0.75540354  1
  O  O400  1  0.62596444  0.76386863  0.24948989  1
  O  O401  1  0.62423528  0.75747818  0.75683513  1
  O  O402  1  0.38087747  0.24223206  0.24817388  1
  O  O403  1  0.37363566  0.24359751  0.74321690  1
  O  O404  1  0.37519725  0.74081347  0.24268299  1
  O  O405  1  0.37679057  0.74847691  0.73791083  1
  O  O406  1  0.88096856  0.24988856  0.23996949  1
  O  O407  1  0.88395552  0.24339698  0.74839299  1
  O  O408  1  0.87828281  0.73940320  0.24415617  1
  O  O409  1  0.88253545  0.74721923  0.74148861  1
  O  O410  1  0.37318945  0.48417994  0.50566960  1
  O  O411  1  0.38375826  0.49412963  0.99512523  1
  O  O412  1  0.37975768  0.99424810  0.49472321  1
  O  O413  1  0.37495642  0.99207911  0.99405860  1
  O  O414  1  0.88198560  0.48742747  0.50551875  1
  O  O415  1  0.89019843  0.50198458  1.00463073  1
  O  O416  1  0.88403087  1.00109139  0.49034851  1
  O  O417  1  0.88074680  0.99555693  0.99427063  1
  O  O418  1  0.12084162  0.00624956  0.00493021  1
  O  O419  1  0.11673905  -0.00213771  0.51007083  1
  O  O420  1  0.11453715  0.50838041  0.00370955  1
  O  O421  1  0.11971978  0.50454964  0.50747752  1
  O  O422  1  0.62570069  0.00715979  0.00587817  1
  O  O423  1  0.61723781  0.00203249  0.50600969  1
  O  O424  1  0.61038875  0.49716903  0.00214987  1
  O  O425  1  0.62186184  0.50022574  0.51181891  1
  O  O426  1  0.36528936  0.37225359  0.11987881  1
  O  O427  1  0.36376118  0.36912430  0.61758891  1
  O  O428  1  0.36982900  0.86707162  0.12145187  1
  O  O429  1  0.37128935  0.86780072  0.62065354  1
  O  O430  1  0.87453817  0.36288951  0.12060373  1
  O  O431  1  0.86560429  0.37216614  0.61248628  1
  O  O432  1  0.87198105  0.87090754  0.12003493  1
  O  O433  1  0.87515348  0.86365869  0.62518144  1
  O  O434  1  0.12533159  0.13955982  0.37019391  1
  O  O435  1  0.12544165  0.12703961  0.88526700  1
  O  O436  1  0.13438576  0.63176468  0.37944385  1
  O  O437  1  0.13221821  0.63201479  0.88265272  1
  O  O438  1  0.63120406  0.13059789  0.37569059  1
  O  O439  1  0.62995023  0.12970624  0.87874930  1
  O  O440  1  0.63640080  0.62752767  0.37540003  1
  O  O441  1  0.63414580  0.63166568  0.87968046  1
