# generated using pymatgen
data_V93Zn93O256
_symmetry_space_group_name_H-M   'P 1'
_cell_length_a   17.05275241
_cell_length_b   17.05491123
_cell_length_c   17.05442828
_cell_angle_alpha   90.08212989
_cell_angle_beta   89.99673383
_cell_angle_gamma   89.97449659
_symmetry_Int_Tables_number   1
_chemical_formula_structural   V93Zn93O256
_chemical_formula_sum   'V93 Zn93 O256'
_cell_volume   4959.98798969
_cell_formula_units_Z   1
loop_
 _symmetry_equiv_pos_site_id
 _symmetry_equiv_pos_as_xyz
  1  'x, y, z'
loop_
 _atom_site_type_symbol
 _atom_site_label
 _atom_site_symmetry_multiplicity
 _atom_site_fract_x
 _atom_site_fract_y
 _atom_site_fract_z
 _atom_site_occupancy
  V  V0  1  0.12575159  0.87670188  0.25032087  1
  V  V1  1  0.62566662  0.62485800  -0.00375279  1
  V  V2  1  0.49996497  0.87467323  0.37468457  1
  V  V3  1  0.75251516  0.37745523  0.62474474  1
  V  V4  1  0.37474614  0.49958738  0.37489934  1
  V  V5  1  0.37438821  0.75159891  0.12366585  1
  V  V6  1  0.87402396  -0.00011220  0.37450860  1
  V  V7  1  0.11803689  0.25643406  0.37276863  1
  V  V8  1  0.37447270  0.62554627  0.24973462  1
  V  V9  1  0.00152918  0.12590364  0.62768575  1
  V  V10  1  0.25168963  0.25020452  0.49992039  1
  V  V11  1  0.37538925  0.87484443  0.49930955  1
  V  V12  1  0.50146887  0.74950832  0.74944210  1
  V  V13  1  0.75114312  -0.00465113  0.74399588  1
  V  V14  1  0.63019822  0.87391489  0.74220567  1
  V  V15  1  0.37533679  0.74931554  0.62452819  1
  V  V16  1  0.37544616  0.37436619  0.50015703  1
  V  V17  1  0.37628193  0.25036755  0.62413430  1
  V  V18  1  0.12531083  0.75025481  0.87471337  1
  V  V19  1  0.24957896  0.87571119  0.12501111  1
  V  V20  1  0.12361579  0.13124348  -0.00177652  1
  V  V21  1  0.00025578  0.00011315  0.00059575  1
  V  V22  1  0.12255600  0.62444405  0.50006766  1
  V  V23  1  0.87743862  0.48993297  0.37408561  1
  V  V24  1  0.12518286  0.75090980  0.37420932  1
  V  V25  1  0.24934655  0.62674276  0.87454121  1
  V  V26  1  0.50037644  0.36987424  0.36781618  1
  V  V27  1  0.87662534  0.25079906  0.62827149  1
  V  V28  1  0.87419042  0.37619701  -0.00178665  1
  V  V29  1  0.24681601  0.25154309  -0.00249272  1
  V  V30  1  -0.00035097  0.74724440  0.75157492  1
  V  V31  1  0.74972646  0.74406845  -0.00462418  1
  V  V32  1  0.63131061  0.37814980  0.74915505  1
  V  V33  1  0.87489439  -0.00150315  0.87640520  1
  V  V34  1  0.25127001  0.00019519  0.75058183  1
  V  V35  1  0.50290594  0.12337818  0.62473093  1
  V  V36  1  -0.00081303  0.50182018  -0.00445845  1
  V  V37  1  0.49906264  0.62561517  0.12396859  1
  V  V38  1  0.74849644  0.37586089  0.12467481  1
  V  V39  1  0.62543281  0.00062575  0.12534250  1
  V  V40  1  0.74891386  0.49901364  0.24973515  1
  V  V41  1  0.62534304  0.24934670  0.87448441  1
  V  V42  1  0.37491835  0.50016758  0.87411637  1
  V  V43  1  0.50114355  0.62353208  0.62416500  1
  V  V44  1  0.12589046  -0.00020939  0.62492465  1
  V  V45  1  0.50051538  0.24892391  0.74934800  1
  V  V46  1  0.50200315  0.00057558  0.50109155  1
  V  V47  1  0.50039892  0.12760784  0.12679098  1
  V  V48  1  0.62823847  0.49868108  0.62657914  1
  V  V49  1  0.50032020  0.75087310  0.24892442  1
  V  V50  1  0.24959494  0.74968780  0.50005056  1
  V  V51  1  0.86063184  0.62008282  0.75466355  1
  V  V52  1  -0.00013150  0.87394739  0.37493965  1
  V  V53  1  0.87446595  0.62504063  0.25156991  1
  V  V54  1  0.12445755  0.87332902  0.74998533  1
  V  V55  1  0.24723027  0.49930826  0.74713350  1
  V  V56  1  0.37562304  0.62421830  0.74898116  1
  V  V57  1  -0.00435003  0.62467350  0.62635825  1
  V  V58  1  0.12694015  0.12458160  0.50087073  1
  V  V59  1  0.86879503  0.87064359  0.50573984  1
  V  V60  1  0.74962090  0.24983262  0.00032543  1
  V  V61  1  -0.00001331  0.12821596  0.12626421  1
  V  V62  1  0.74962189  0.12305102  0.87523296  1
  V  V63  1  0.25036354  0.12540639  0.37406851  1
  V  V64  1  0.62412691  0.49995610  0.12543604  1
  V  V65  1  0.62658267  0.62358694  0.49915142  1
  V  V66  1  0.37361969  0.37515965  -0.00026506  1
  V  V67  1  0.62728440  0.74579154  0.87433721  1
  V  V68  1  0.24719997  0.12747932  0.87529680  1
  V  V69  1  0.12414258  0.50029736  0.12316266  1
  V  V70  1  0.49990580  0.37448031  0.87388223  1
  V  V71  1  0.37549281  0.12503430  0.75090069  1
  V  V72  1  0.74800054  0.87569578  0.12542809  1
  V  V73  1  0.25000959  0.00139371  0.24921713  1
  V  V74  1  0.37833459  0.25122372  0.12770767  1
  V  V75  1  0.87458103  0.25092286  0.12567608  1
  V  V76  1  0.50086714  0.49872536  0.49919264  1
  V  V77  1  0.12247440  0.36767054  0.75575282  1
  V  V78  1  -0.00174657  0.49325877  0.49614328  1
  V  V79  1  0.62348940  0.24828732  0.37148947  1
  V  V80  1  0.62473452  0.12541647  0.00065896  1
  V  V81  1  0.24952641  0.62524649  0.37536780  1
  V  V82  1  0.49844648  0.50078705  -0.00034291  1
  V  V83  1  0.50035190  0.00041174  -0.00089645  1
  V  V84  1  0.85854916  0.50214965  0.87221947  1
  V  V85  1  0.24981829  0.75141064  -0.00075893  1
  V  V86  1  0.37857241  0.12980838  0.25009592  1
  V  V87  1  0.49961089  0.87626016  0.87479673  1
  V  V88  1  0.62742007  0.74791440  0.37416109  1
  V  V89  1  0.87489936  0.74910968  0.12536929  1
  V  V90  1  0.24947386  0.87434853  0.62472314  1
  V  V91  1  0.24728155  0.50069432  0.24892676  1
  V  V92  1  0.87588546  0.12520253  0.25183638  1
  Zn  Zn93  1  -0.00714802  0.26236530  0.25739627  1
  Zn  Zn94  1  0.74777718  0.00064408  0.25027674  1
  Zn  Zn95  1  0.62333812  0.87772937  0.25023252  1
  Zn  Zn96  1  0.12291746  0.49707629  0.62309358  1
  Zn  Zn97  1  0.63249547  -0.00107800  0.62186853  1
  Zn  Zn98  1  0.12297269  0.62681593  -0.00091961  1
  Zn  Zn99  1  0.87805429  0.37084688  0.49713251  1
  Zn  Zn100  1  0.24857519  0.37502689  0.12749720  1
  Zn  Zn101  1  0.87665428  0.87223268  0.00052650  1
  Zn  Zn102  1  0.00105221  -0.00207074  0.50200556  1
  Zn  Zn103  1  0.12512154  0.00157500  0.12548085  1
  Zn  Zn104  1  0.74701182  0.75037724  0.50683017  1
  Zn  Zn105  1  0.74838420  0.12631846  0.37749892  1
  Zn  Zn106  1  0.37397969  0.87796750  -0.00004520  1
  Zn  Zn107  1  0.11823618  0.38120733  0.25395025  1
  Zn  Zn108  1  0.00082139  0.62682177  0.12380191  1
  Zn  Zn109  1  0.75032824  0.24588469  0.50066964  1
  Zn  Zn110  1  0.00047793  0.87353291  0.87572998  1
  Zn  Zn111  1  0.00146435  0.36814489  0.87821892  1
  Zn  Zn112  1  0.00564656  0.24333527  0.76074560  1
  Zn  Zn113  1  0.37530157  0.00099933  0.87653580  1
  Zn  Zn114  1  0.37636544  0.00123049  0.37365320  1
  Zn  Zn115  1  0.62974619  0.12485675  0.50054923  1
  Zn  Zn116  1  0.87541461  0.12397596  0.75057020  1
  Zn  Zn117  1  0.24975308  0.37456508  0.62489167  1
  Zn  Zn118  1  0.62045981  0.36969049  0.24691772  1
  Zn  Zn119  1  0.75094333  0.62269945  0.37844499  1
  Zn  Zn120  1  0.00081732  0.74986923  0.24779997  1
  Zn  Zn121  1  0.86562211  0.75440039  0.63452516  1
  Zn  Zn122  1  0.18883496  0.18798737  0.18668133  1
  Zn  Zn123  1  0.19021291  0.18811817  0.68635545  1
  Zn  Zn124  1  0.18657262  0.68745551  0.18661772  1
  Zn  Zn125  1  0.18494026  0.68565117  0.68625211  1
  Zn  Zn126  1  0.68891768  0.18746462  0.19083970  1
  Zn  Zn127  1  0.68955283  0.18565567  0.68703455  1
  Zn  Zn128  1  0.68763406  0.68566340  0.18665607  1
  Zn  Zn129  1  0.68896598  0.69062384  0.68210397  1
  Zn  Zn130  1  0.30674176  0.31470545  0.31254417  1
  Zn  Zn131  1  0.31100523  0.31256552  0.81257467  1
  Zn  Zn132  1  0.31323409  0.81368386  0.31194729  1
  Zn  Zn133  1  0.31316060  0.81249836  0.81166452  1
  Zn  Zn134  1  0.80615223  0.31107195  0.31151936  1
  Zn  Zn135  1  0.81635267  0.31238520  0.81320384  1
  Zn  Zn136  1  0.81036365  0.81290150  0.31267407  1
  Zn  Zn137  1  0.81465476  0.81158456  0.81313877  1
  Zn  Zn138  1  0.18778728  0.43780755  0.43931031  1
  Zn  Zn139  1  0.18683254  0.43873803  0.93641270  1
  Zn  Zn140  1  0.18884801  0.93980842  0.43681689  1
  Zn  Zn141  1  0.18664866  0.93904882  0.93757700  1
  Zn  Zn142  1  0.68962678  0.43404516  0.43790705  1
  Zn  Zn143  1  0.68490519  0.43643238  0.93921519  1
  Zn  Zn144  1  0.68773648  0.93673661  0.43593972  1
  Zn  Zn145  1  0.68693882  0.93381801  0.93676548  1
  Zn  Zn146  1  0.31346603  0.06153813  0.06303998  1
  Zn  Zn147  1  0.31496567  0.06273910  0.56248423  1
  Zn  Zn148  1  0.31008824  0.56459605  0.06190280  1
  Zn  Zn149  1  0.31298609  0.56229706  0.56175761  1
  Zn  Zn150  1  0.81315900  0.06325531  0.06329128  1
  Zn  Zn151  1  0.81599602  0.06272912  0.55978619  1
  Zn  Zn152  1  0.81260232  0.56226086  0.06190394  1
  Zn  Zn153  1  0.81207579  0.56212007  0.56311885  1
  Zn  Zn154  1  0.43489499  0.43844268  0.18700654  1
  Zn  Zn155  1  0.43974544  0.43608949  0.68686324  1
  Zn  Zn156  1  0.43675188  0.93968674  0.18738880  1
  Zn  Zn157  1  0.43823859  0.93778818  0.68726906  1
  Zn  Zn158  1  0.94000894  0.43660999  0.18621070  1
  Zn  Zn159  1  0.93760679  0.44076637  0.68924535  1
  Zn  Zn160  1  0.93758552  0.93808895  0.18702153  1
  Zn  Zn161  1  0.94008210  0.93851197  0.68943804  1
  Zn  Zn162  1  0.06194812  0.06445226  0.31343371  1
  Zn  Zn163  1  0.06483630  0.06164225  0.81401126  1
  Zn  Zn164  1  0.05919490  0.56297744  0.31196209  1
  Zn  Zn165  1  0.06076829  0.56089161  0.81314455  1
  Zn  Zn166  1  0.56217142  0.06354690  0.31255587  1
  Zn  Zn167  1  0.56531190  0.06062369  0.81104607  1
  Zn  Zn168  1  0.56165715  0.56108932  0.31156235  1
  Zn  Zn169  1  0.56468938  0.56187531  0.81241580  1
  Zn  Zn170  1  0.43982876  0.18756065  0.43686761  1
  Zn  Zn171  1  0.43606675  0.18755821  0.93822769  1
  Zn  Zn172  1  0.43939739  0.68724875  0.43684058  1
  Zn  Zn173  1  0.43714687  0.68922135  0.93706398  1
  Zn  Zn174  1  0.93846624  0.18574234  0.44316466  1
  Zn  Zn175  1  0.93686069  0.18849285  0.93642658  1
  Zn  Zn176  1  0.93771017  0.68585252  0.43623374  1
  Zn  Zn177  1  0.93618394  0.68387908  0.93457910  1
  Zn  Zn178  1  0.05964079  0.31569158  0.06544524  1
  Zn  Zn179  1  0.06632042  0.31251182  0.56808020  1
  Zn  Zn180  1  0.06377111  0.81400357  0.06216343  1
  Zn  Zn181  1  0.05850463  0.81028928  0.56312287  1
  Zn  Zn182  1  0.56119124  0.31311109  0.06197554  1
  Zn  Zn183  1  0.56357326  0.31038316  0.55842983  1
  Zn  Zn184  1  0.56322890  0.81298443  0.06115117  1
  Zn  Zn185  1  0.56270683  0.81169829  0.56081491  1
  O  O186  1  0.11967739  0.12438282  0.11540866  1
  O  O187  1  0.12045654  0.12058269  0.62131906  1
  O  O188  1  0.12254488  0.61473214  0.12180993  1
  O  O189  1  0.11378560  0.62343949  0.61851475  1
  O  O190  1  0.62071391  0.12213620  0.12003224  1
  O  O191  1  0.61709219  0.12084386  0.62354598  1
  O  O192  1  0.61768863  0.61978251  0.11780397  1
  O  O193  1  0.61880593  0.61833881  0.62034601  1
  O  O194  1  0.38083504  0.37935348  0.37952674  1
  O  O195  1  0.38058836  0.38003991  0.87933069  1
  O  O196  1  0.38165296  0.87573083  0.38181148  1
  O  O197  1  0.38877556  0.87610521  0.87373636  1
  O  O198  1  0.87085249  0.38659989  0.37530226  1
  O  O199  1  0.87516943  0.38514285  0.88089569  1
  O  O200  1  0.88241317  0.88090742  0.37911870  1
  O  O201  1  0.87785496  0.88698770  0.87963748  1
  O  O202  1  0.25338735  0.00745518  0.36848672  1
  O  O203  1  0.25196412  0.01014493  0.86976521  1
  O  O204  1  0.25489274  0.50662958  0.37067120  1
  O  O205  1  0.25609958  0.50597118  0.86598787  1
  O  O206  1  0.76358040  -0.00115618  0.37133253  1
  O  O207  1  0.75736334  0.00295751  0.87113993  1
  O  O208  1  0.75883107  0.50076618  0.36869232  1
  O  O209  1  0.75918188  0.49865169  0.88069254  1
  O  O210  1  0.24134809  0.50104067  0.12939341  1
  O  O211  1  0.25035160  0.50057937  0.63697345  1
  O  O212  1  0.24813905  0.99415965  0.13068529  1
  O  O213  1  0.24577117  0.99447949  0.63026245  1
  O  O214  1  0.74381346  0.49497422  0.12818119  1
  O  O215  1  0.74378882  0.48679831  0.62190002  1
  O  O216  1  0.74542568  0.99067090  0.12298853  1
  O  O217  1  0.75377115  1.00401546  0.64075206  1
  O  O218  1  0.00555991  0.37343621  0.24883821  1
  O  O219  1  0.01660977  0.37743954  0.74827223  1
  O  O220  1  0.00485646  0.87457776  0.26003296  1
  O  O221  1  0.00677504  0.86673359  0.75124597  1
  O  O222  1  0.49957829  0.38225990  0.26377315  1
  O  O223  1  0.50802973  0.36789989  0.75466691  1
  O  O224  1  0.50009170  0.86869985  0.25562761  1
  O  O225  1  0.50771086  0.87011142  0.75679655  1
  O  O226  1  0.48582418  0.12091479  0.24336283  1
  O  O227  1  0.49593683  0.12963302  0.74621600  1
  O  O228  1  0.49343808  0.62995740  0.24350908  1
  O  O229  1  0.49535278  0.62937541  0.74379875  1
  O  O230  1  0.98950723  0.12776680  0.24525403  1
  O  O231  1  1.00156728  0.12357349  0.73931772  1
  O  O232  1  0.98622140  0.62812413  0.24665463  1
  O  O233  1  0.99676231  0.62836417  0.74129655  1
  O  O234  1  0.36656460  0.25427245  0.00768503  1
  O  O235  1  0.37133211  0.25460708  0.50456471  1
  O  O236  1  0.36863119  0.75302674  0.00591898  1
  O  O237  1  0.37002042  0.75392724  0.50520435  1
  O  O238  1  0.86732518  0.25497169  0.00597340  1
  O  O239  1  0.87795441  0.25309577  0.51506320  1
  O  O240  1  0.86700844  0.74857775  0.00771997  1
  O  O241  1  0.87514783  0.76439154  0.49521676  1
  O  O242  1  0.13089370  0.24467335  0.49294923  1
  O  O243  1  0.13471594  0.24197028  1.00780771  1
  O  O244  1  0.13009713  0.74502142  0.49460225  1
  O  O245  1  0.13148771  0.74925982  0.99346163  1
  O  O246  1  0.62608820  0.24675280  0.48788472  1
  O  O247  1  0.62980260  0.24547900  0.99415710  1
  O  O248  1  0.62194989  0.74359797  0.48925884  1
  O  O249  1  0.63141416  0.74468927  0.99532355  1
  O  O250  1  0.48610569  0.24468075  0.11746012  1
  O  O251  1  0.49560707  0.24405937  0.62976071  1
  O  O252  1  0.49505320  0.74514654  0.12858763  1
  O  O253  1  0.49500971  0.74363596  0.62967511  1
  O  O254  1  0.99125583  0.24376213  0.12521027  1
  O  O255  1  0.99553828  0.24084234  0.62979794  1
  O  O256  1  0.98677026  0.75073412  0.12496360  1
  O  O257  1  0.99487845  0.73913853  0.63069232  1
  O  O258  1  0.01548543  0.24366870  0.37819851  1
  O  O259  1  -0.00398466  0.25489338  0.87202986  1
  O  O260  1  0.00593178  0.75906754  0.37280125  1
  O  O261  1  0.00707566  0.75095006  0.87013642  1
  O  O262  1  0.50724421  0.26144459  0.38005207  1
  O  O263  1  0.50544234  0.25498935  0.87054509  1
  O  O264  1  0.50749151  0.75403814  0.36921660  1
  O  O265  1  0.50527387  0.75765157  0.86891949  1
  O  O266  1  0.24701156  0.12998643  0.49498558  1
  O  O267  1  0.24352979  0.13130870  0.99486856  1
  O  O268  1  0.24446644  0.63005648  0.49502471  1
  O  O269  1  0.24921340  0.63292981  0.99138403  1
  O  O270  1  0.74820417  0.12580534  0.49594312  1
  O  O271  1  0.74398795  0.13033042  0.99576734  1
  O  O272  1  0.74105952  0.62589232  0.49741010  1
  O  O273  1  0.74200785  0.63730831  1.00838526  1
  O  O274  1  0.25521378  0.36647697  -0.00178629  1
  O  O275  1  0.25829654  0.36955319  0.50166843  1
  O  O276  1  0.25100920  0.87010384  0.00587775  1
  O  O277  1  0.25481686  0.86935790  0.50514849  1
  O  O278  1  0.75364178  0.36886644  0.00535692  1
  O  O279  1  0.75383085  0.37031077  0.51379758  1
  O  O280  1  0.75020943  0.86503214  0.01076759  1
  O  O281  1  0.76672128  0.87615658  0.49491598  1
  O  O282  1  0.12916663  0.50425611  0.24094053  1
  O  O283  1  0.13566343  0.49435759  0.74877032  1
  O  O284  1  0.13120506  0.99540157  0.24918379  1
  O  O285  1  0.13208643  0.99382924  0.74481825  1
  O  O286  1  0.63086310  0.49982079  0.24205632  1
  O  O287  1  0.61697830  0.48577735  0.74346078  1
  O  O288  1  0.62772992  0.99894458  0.24156942  1
  O  O289  1  0.63454961  0.99030102  0.74999775  1
  O  O290  1  0.36871227  0.01212590  0.25023133  1
  O  O291  1  0.36856875  0.00691716  0.75089618  1
  O  O292  1  0.36821968  0.50688323  0.25497586  1
  O  O293  1  0.36851442  0.50377655  0.75412146  1
  O  O294  1  0.87568569  0.00775052  0.25773007  1
  O  O295  1  0.86871338  -0.00148470  0.76012178  1
  O  O296  1  0.87040133  0.50712176  0.25513243  1
  O  O297  1  0.88020849  0.50772190  0.76186956  1
  O  O298  1  0.12959654  0.35868817  0.37796422  1
  O  O299  1  0.12542449  0.38047822  0.85910507  1
  O  O300  1  0.11813538  0.87143248  0.37135459  1
  O  O301  1  0.12475099  0.86919216  0.86715937  1
  O  O302  1  0.61590722  0.36871165  0.37401418  1
  O  O303  1  0.62020904  0.36982678  0.86804582  1
  O  O304  1  0.61896882  0.86478808  0.37313576  1
  O  O305  1  0.61557371  0.86808678  0.86670112  1
  O  O306  1  0.37888147  0.13318526  0.13072762  1
  O  O307  1  0.38163328  0.13077411  0.63158874  1
  O  O308  1  0.37966894  0.63092837  0.12999695  1
  O  O309  1  0.38132753  0.62991334  0.62932295  1
  O  O310  1  0.87909374  0.13034495  0.13279896  1
  O  O311  1  0.88595013  0.13135339  0.62646446  1
  O  O312  1  0.87328679  0.63398410  0.13348348  1
  O  O313  1  0.88405340  0.62267190  0.63432051  1
  O  O314  1  0.25920469  0.25072278  0.11387447  1
  O  O315  1  0.25919874  0.24989892  0.61750619  1
  O  O316  1  0.25488010  0.75544623  0.11980501  1
  O  O317  1  0.25505510  0.75411832  0.61960988  1
  O  O318  1  0.75435639  0.25513502  0.11940910  1
  O  O319  1  0.75972765  0.25673925  0.62566587  1
  O  O320  1  0.75578296  0.75673500  0.11769338  1
  O  O321  1  0.75448460  0.75318823  0.61938929  1
  O  O322  1  0.24170611  0.24378374  0.38125790  1
  O  O323  1  0.25653919  0.23995516  0.88713549  1
  O  O324  1  0.24549217  0.74505340  0.38090058  1
  O  O325  1  0.24574674  0.74614365  0.87852395  1
  O  O326  1  0.74010067  0.24915032  0.38005319  1
  O  O327  1  0.74538904  0.24398969  0.88028618  1
  O  O328  1  0.73684607  0.74870511  0.37681223  1
  O  O329  1  0.74383481  0.75851494  0.88908310  1
  O  O330  1  0.00648936  0.11944898  0.00462732  1
  O  O331  1  0.00746957  0.12165588  0.51314410  1
  O  O332  1  0.00061997  0.61422165  0.00223993  1
  O  O333  1  0.00232157  0.61883480  0.50784512  1
  O  O334  1  0.50598463  0.12097772  0.00529405  1
  O  O335  1  0.49891706  0.11369699  0.50531301  1
  O  O336  1  0.50359729  0.61978734  0.00492062  1
  O  O337  1  0.50505612  0.61850860  0.50531875  1
  O  O338  1  0.49410441  0.38088200  0.49138211  1
  O  O339  1  0.49391237  0.38093190  0.99326211  1
  O  O340  1  0.49465615  0.88151212  0.49582642  1
  O  O341  1  0.50136977  0.88021873  0.98916387  1
  O  O342  1  0.99907200  0.39018661  0.51081166  1
  O  O343  1  0.99168899  0.38530123  1.00151298  1
  O  O344  1  0.99343397  0.87532347  0.48807083  1
  O  O345  1  0.99959840  0.88860607  0.99882115  1
  O  O346  1  0.49393225  0.49336694  0.38050355  1
  O  O347  1  0.49413398  0.49437370  0.87996821  1
  O  O348  1  0.49869924  0.99399274  0.38465793  1
  O  O349  1  0.50146869  0.99113145  0.87916199  1
  O  O350  1  0.98949560  0.50741454  0.38540175  1
  O  O351  1  0.99683752  0.49548489  0.88679232  1
  O  O352  1  0.99192616  0.99101282  0.37634543  1
  O  O353  1  0.99215404  1.00174530  0.88380460  1
  O  O354  1  -0.00063411  0.00764753  0.11528496  1
  O  O355  1  0.00769204  0.00887421  0.62536123  1
  O  O356  1  0.00648979  0.50256523  0.11344842  1
  O  O357  1  -0.00050904  0.51099289  0.61632172  1
  O  O358  1  0.50587833  0.00671075  0.11886131  1
  O  O359  1  0.50057994  0.00431206  0.61572736  1
  O  O360  1  0.50282852  0.50572042  0.11876249  1
  O  O361  1  0.50610501  0.50410716  0.61897833  1
  O  O362  1  0.24260622  0.38525171  0.24808686  1
  O  O363  1  0.24313533  0.38365670  0.75037240  1
  O  O364  1  0.24531424  0.88107395  0.24580388  1
  O  O365  1  0.24557714  0.87948756  0.74354409  1
  O  O366  1  0.74757807  0.38253032  0.24081915  1
  O  O367  1  0.73794091  0.36684083  0.74178113  1
  O  O368  1  0.74754607  0.87558126  0.23622412  1
  O  O369  1  0.74037964  0.88318397  0.75916563  1
  O  O370  1  0.25838650  0.12066924  0.25328919  1
  O  O371  1  0.25390634  0.12136571  0.75782761  1
  O  O372  1  0.25556856  0.62142653  0.25645214  1
  O  O373  1  0.25557676  0.61823991  0.75356455  1
  O  O374  1  0.76522718  0.12206913  0.25237523  1
  O  O375  1  0.75053977  0.11383080  0.75855214  1
  O  O376  1  0.75950944  0.61833215  0.25003107  1
  O  O377  1  0.76235534  0.62674592  0.74519805  1
  O  O378  1  0.36995613  0.12767850  0.36479637  1
  O  O379  1  0.36549334  0.12417614  0.86950670  1
  O  O380  1  0.37004640  0.62001533  0.37007377  1
  O  O381  1  0.37073915  0.62014549  0.86764937  1
  O  O382  1  0.87953942  0.11573082  0.36915831  1
  O  O383  1  0.86876527  0.11295758  0.87484699  1
  O  O384  1  0.87249258  0.61869092  0.36491195  1
  O  O385  1  0.87852368  0.61404804  0.86564116  1
  O  O386  1  0.12819065  0.38998097  0.12379834  1
  O  O387  1  0.13126578  0.37971217  0.63714610  1
  O  O388  1  0.13107918  0.87737949  0.13269041  1
  O  O389  1  0.13008753  0.87846831  0.62939825  1
  O  O390  1  0.62894916  0.38131948  0.12519552  1
  O  O391  1  0.63163497  0.37694678  0.63133319  1
  O  O392  1  0.63258728  0.88063582  0.12524652  1
  O  O393  1  0.61879854  0.87631143  0.63902829  1
  O  O394  1  0.12623546  0.24770183  0.26581932  1
  O  O395  1  0.12875975  0.26468837  0.74634609  1
  O  O396  1  0.12385596  0.75729318  0.25648888  1
  O  O397  1  0.12032105  0.75442081  0.75454067  1
  O  O398  1  0.62907563  0.25200161  0.26382783  1
  O  O399  1  0.61967682  0.25710667  0.75529446  1
  O  O400  1  0.61854777  0.74900693  0.25792329  1
  O  O401  1  0.62056299  0.75559592  0.75442976  1
  O  O402  1  0.36424123  0.24192097  0.23823794  1
  O  O403  1  0.38077763  0.24510468  0.74535656  1
  O  O404  1  0.37989728  0.74432248  0.24419657  1
  O  O405  1  0.38092784  0.74414084  0.74377376  1
  O  O406  1  0.87425960  0.24134119  0.24570723  1
  O  O407  1  0.87795097  0.24592841  0.73880221  1
  O  O408  1  0.87249359  0.74244428  0.24182378  1
  O  O409  1  0.88198559  0.73963695  0.75377283  1
  O  O410  1  0.38012251  0.49537828  0.49392436  1
  O  O411  1  0.37872745  0.49553833  0.99423411  1
  O  O412  1  0.38468723  0.99345717  0.49881576  1
  O  O413  1  0.38411293  0.99840606  0.99720186  1
  O  O414  1  0.88158998  0.49920132  0.49049981  1
  O  O415  1  0.88029369  0.49707488  0.99294063  1
  O  O416  1  0.87952849  0.98886060  0.49088127  1
  O  O417  1  0.88380622  1.00099546  0.99325770  1
  O  O418  1  0.11584614  0.01115185  0.00062051  1
  O  O419  1  0.12485736  0.00600684  0.50728235  1
  O  O420  1  0.11745269  0.50197250  0.00548669  1
  O  O421  1  0.11617264  0.50692189  0.49900948  1
  O  O422  1  0.62059269  0.00634580  0.00458212  1
  O  O423  1  0.61389470  -0.00292526  0.50240421  1
  O  O424  1  0.61752709  0.50452770  0.00511297  1
  O  O425  1  0.61952575  0.50378860  0.50546475  1
  O  O426  1  0.37289595  0.36769393  0.11878243  1
  O  O427  1  0.37559836  0.36811638  0.61850480  1
  O  O428  1  0.36837183  0.86861389  0.12430352  1
  O  O429  1  0.36959448  0.86821594  0.62022528  1
  O  O430  1  0.86725055  0.37095467  0.11796475  1
  O  O431  1  0.86729136  0.36810564  0.62982521  1
  O  O432  1  0.86683311  0.86604464  0.12435319  1
  O  O433  1  0.88631981  0.87566091  0.60768822  1
  O  O434  1  0.13096459  0.13229435  0.38151426  1
  O  O435  1  0.13583933  0.12178564  0.88564702  1
  O  O436  1  0.12981746  0.63116627  0.37973101  1
  O  O437  1  0.13232574  0.63212342  0.87435352  1
  O  O438  1  0.62513468  0.13394924  0.37650729  1
  O  O439  1  0.62926998  0.13050108  0.88082149  1
  O  O440  1  0.62356169  0.63295417  0.37977458  1
  O  O441  1  0.61723193  0.63335694  0.88272503  1
