# generated using pymatgen
data_V93Zn93O256
_symmetry_space_group_name_H-M   'P 1'
_cell_length_a   17.04942244
_cell_length_b   17.05167040
_cell_length_c   17.05353718
_cell_angle_alpha   89.97311197
_cell_angle_beta   89.97445537
_cell_angle_gamma   89.97297369
_symmetry_Int_Tables_number   1
_chemical_formula_structural   V93Zn93O256
_chemical_formula_sum   'V93 Zn93 O256'
_cell_volume   4957.82204076
_cell_formula_units_Z   1
loop_
 _symmetry_equiv_pos_site_id
 _symmetry_equiv_pos_as_xyz
  1  'x, y, z'
loop_
 _atom_site_type_symbol
 _atom_site_label
 _atom_site_symmetry_multiplicity
 _atom_site_fract_x
 _atom_site_fract_y
 _atom_site_fract_z
 _atom_site_occupancy
  V  V0  1  0.37435856  0.24885321  0.62268200  1
  V  V1  1  0.49927814  0.75433699  0.25544030  1
  V  V2  1  0.37333641  0.12529135  0.74862181  1
  V  V3  1  0.87441645  0.50187426  0.37578668  1
  V  V4  1  0.74918923  0.25122961  0.49960257  1
  V  V5  1  0.87426414  0.12662857  0.75033459  1
  V  V6  1  0.49929684  0.12375995  0.12294463  1
  V  V7  1  0.00585470  0.62039542  0.12702480  1
  V  V8  1  0.50099776  0.62542153  0.62495924  1
  V  V9  1  0.87237584  0.12569808  0.24926402  1
  V  V10  1  0.12574801  0.74834023  0.87669942  1
  V  V11  1  0.49690164  0.25316668  0.75195645  1
  V  V12  1  0.37459339  0.74984644  0.12689184  1
  V  V13  1  0.00678752  0.50324729  0.49984418  1
  V  V14  1  0.12729071  0.74736122  0.38287264  1
  V  V15  1  0.37613618  0.75124018  0.62410501  1
  V  V16  1  0.00410074  0.75246371  0.25217533  1
  V  V17  1  0.00082984  -0.00060439  0.00125290  1
  V  V18  1  0.12791500  0.00031044  0.13173760  1
  V  V19  1  0.24455182  0.49789399  0.24414616  1
  V  V20  1  0.62472574  0.62484135  0.00207918  1
  V  V21  1  0.12474856  0.37675183  0.74674054  1
  V  V22  1  0.62312211  0.12474612  0.49961051  1
  V  V23  1  0.25193668  0.87422648  0.62215239  1
  V  V24  1  0.49489736  0.49459137  -0.00457312  1
  V  V25  1  0.87473353  0.00007622  0.87567648  1
  V  V26  1  0.62438217  0.50098517  0.12459965  1
  V  V27  1  0.62629266  0.50044529  0.62554493  1
  V  V28  1  0.12644720  0.87487301  0.75090758  1
  V  V29  1  0.62110986  0.25125369  0.87499753  1
  V  V30  1  0.62612266  0.62577305  0.50014310  1
  V  V31  1  0.24974324  0.24987627  0.49683411  1
  V  V32  1  0.87566406  0.87530046  0.00124918  1
  V  V33  1  0.37573539  0.87634417  0.00017845  1
  V  V34  1  0.37620473  0.62475873  0.75097699  1
  V  V35  1  0.62299268  0.87498562  0.25338910  1
  V  V36  1  0.74864867  -0.00030867  0.25061791  1
  V  V37  1  0.24979544  0.87942194  0.13201582  1
  V  V38  1  0.37605713  0.37536452  0.49558475  1
  V  V39  1  0.74964575  0.87519620  0.12612424  1
  V  V40  1  0.36586934  0.12263663  0.25025336  1
  V  V41  1  0.00251850  0.49891874  0.00306168  1
  V  V42  1  0.00129375  0.87397827  0.87613282  1
  V  V43  1  0.87472068  0.37469676  -0.00073449  1
  V  V44  1  0.37558780  0.61871984  0.25501886  1
  V  V45  1  0.25410139  0.62116019  0.87486839  1
  V  V46  1  0.37060191  0.25460397  0.12247728  1
  V  V47  1  0.12393805  0.25204959  0.37117182  1
  V  V48  1  0.24897825  0.12428168  0.87373512  1
  V  V49  1  0.62479813  0.87629720  0.75105801  1
  V  V50  1  0.49654250  0.49995080  0.49436740  1
  V  V51  1  0.87408122  0.37515113  0.50082380  1
  V  V52  1  0.62338958  0.25024405  0.37466961  1
  V  V53  1  0.37063896  -0.00771022  0.37055482  1
  V  V54  1  0.62283711  0.75472275  0.37676375  1
  V  V55  1  0.25024695  0.61838632  0.38304342  1
  V  V56  1  0.24814589  0.37510573  0.62208092  1
  V  V57  1  0.87617980  -0.00295466  0.37727194  1
  V  V58  1  0.00040666  0.74928992  0.75104213  1
  V  V59  1  0.74947365  0.49944681  0.75043259  1
  V  V60  1  0.50159042  0.74992452  0.75028472  1
  V  V61  1  -0.00103206  0.12486740  0.62457435  1
  V  V62  1  0.12429632  0.24913290  0.87409397  1
  V  V63  1  0.49931574  -0.00579199  0.49405261  1
  V  V64  1  0.62365195  0.37597975  0.24995232  1
  V  V65  1  0.74741364  0.25027294  -0.00113718  1
  V  V66  1  0.62611439  0.75078772  0.87658589  1
  V  V67  1  0.00825377  0.62470112  0.62251911  1
  V  V68  1  0.74922531  0.00079625  0.75079061  1
  V  V69  1  0.25071643  -0.00076305  0.74999266  1
  V  V70  1  0.87641497  0.62407119  0.75108598  1
  V  V71  1  0.74906451  0.37588922  0.12478527  1
  V  V72  1  -0.00167127  0.25104625  0.24951289  1
  V  V73  1  0.87734962  0.75003123  0.12702711  1
  V  V74  1  0.62071626  0.37540999  0.75238145  1
  V  V75  1  0.74992484  0.50110720  0.25071907  1
  V  V76  1  0.12502729  0.12397555  -0.00207043  1
  V  V77  1  0.75007395  0.62542897  0.37517767  1
  V  V78  1  0.75053227  0.75002583  0.00208065  1
  V  V79  1  0.12417922  0.12371391  0.50021086  1
  V  V80  1  0.75195135  0.87374522  0.62571115  1
  V  V81  1  0.74776238  0.12505792  0.37439716  1
  V  V82  1  0.49937689  0.87520687  0.87599432  1
  V  V83  1  0.62342638  0.00051128  0.12613581  1
  V  V84  1  0.87508391  0.75045796  0.62541083  1
  V  V85  1  0.12706769  0.61961469  0.00324490  1
  V  V86  1  0.49717078  0.37735113  0.37458184  1
  V  V87  1  0.00047191  0.37465505  0.87425114  1
  V  V88  1  0.87523026  0.49931126  0.87568521  1
  V  V89  1  0.87339597  0.24963241  0.12485849  1
  V  V90  1  0.49844578  0.25084245  0.24971251  1
  V  V91  1  0.62355092  0.00061735  0.62416427  1
  V  V92  1  0.75165403  0.62502699  0.87693684  1
  Zn  Zn93  1  0.75014899  0.37383294  0.62602980  1
  Zn  Zn94  1  0.12992437  0.88053811  0.25544361  1
  Zn  Zn95  1  0.37904063  0.87078122  0.49337637  1
  Zn  Zn96  1  0.50227818  0.00008470  -0.00228590  1
  Zn  Zn97  1  0.75257074  0.75116703  0.49950514  1
  Zn  Zn98  1  0.50019748  0.62463104  0.12672795  1
  Zn  Zn99  1  0.12490207  -0.00225590  0.62333152  1
  Zn  Zn100  1  0.24620645  0.12096222  0.36987993  1
  Zn  Zn101  1  -0.00043160  0.12404667  0.12353047  1
  Zn  Zn102  1  0.87695596  0.62463034  0.25100516  1
  Zn  Zn103  1  0.24936449  0.25352804  -0.00208092  1
  Zn  Zn104  1  0.62490821  0.12332778  -0.00218441  1
  Zn  Zn105  1  0.12892894  0.50386745  0.61959830  1
  Zn  Zn106  1  0.74816840  0.12473745  0.87666664  1
  Zn  Zn107  1  0.38383372  0.48687126  0.86317472  1
  Zn  Zn108  1  0.24930183  0.74607090  0.50191159  1
  Zn  Zn109  1  0.37461048  0.36977685  -0.01222229  1
  Zn  Zn110  1  0.25309376  0.49968540  0.74573394  1
  Zn  Zn111  1  -0.00289322  0.25192347  0.74872867  1
  Zn  Zn112  1  0.00055800  0.37857520  0.37471369  1
  Zn  Zn113  1  -0.00015845  -0.00246243  0.49994724  1
  Zn  Zn114  1  0.11737092  0.38396509  0.24167488  1
  Zn  Zn115  1  0.37656909  0.00135694  0.87494470  1
  Zn  Zn116  1  0.24240367  0.38312063  0.11437823  1
  Zn  Zn117  1  0.49822556  0.12428079  0.62338791  1
  Zn  Zn118  1  0.24952078  0.74889970  0.00181495  1
  Zn  Zn119  1  0.87732230  0.87319819  0.50083427  1
  Zn  Zn120  1  0.00449152  0.87532758  0.37928213  1
  Zn  Zn121  1  0.87227164  0.25045320  0.62501211  1
  Zn  Zn122  1  0.18467491  0.18952067  0.18262194  1
  Zn  Zn123  1  0.18707207  0.18957406  0.68673746  1
  Zn  Zn124  1  0.18913847  0.68756129  0.19188356  1
  Zn  Zn125  1  0.18968706  0.68980543  0.69025054  1
  Zn  Zn126  1  0.68602138  0.18807475  0.18691567  1
  Zn  Zn127  1  0.68762287  0.18749900  0.68532710  1
  Zn  Zn128  1  0.68777244  0.68694316  0.18922026  1
  Zn  Zn129  1  0.68887401  0.68748162  0.68839387  1
  Zn  Zn130  1  0.31404205  0.31146958  0.31278039  1
  Zn  Zn131  1  0.30982332  0.31351494  0.81281308  1
  Zn  Zn132  1  0.31011150  0.80846471  0.31309659  1
  Zn  Zn133  1  0.31254145  0.80970197  0.81280842  1
  Zn  Zn134  1  0.81174870  0.31500501  0.31441557  1
  Zn  Zn135  1  0.80892186  0.31218019  0.81313212  1
  Zn  Zn136  1  0.81262131  0.81155407  0.31236600  1
  Zn  Zn137  1  0.81328974  0.81285674  0.81249710  1
  Zn  Zn138  1  0.18911242  0.43563536  0.43146553  1
  Zn  Zn139  1  0.19024617  0.43639712  0.93499267  1
  Zn  Zn140  1  0.18909342  0.93648039  0.43665254  1
  Zn  Zn141  1  0.19002151  0.93814708  0.94060700  1
  Zn  Zn142  1  0.68607177  0.43820039  0.43736777  1
  Zn  Zn143  1  0.68413077  0.43679445  0.93707502  1
  Zn  Zn144  1  0.69008377  0.93626001  0.44033893  1
  Zn  Zn145  1  0.68709336  0.93893525  0.93923020  1
  Zn  Zn146  1  0.31073145  0.06342311  0.06139416  1
  Zn  Zn147  1  0.31217741  0.06101703  0.55993432  1
  Zn  Zn148  1  0.31359139  0.56440776  0.06486954  1
  Zn  Zn149  1  0.31570422  0.56061391  0.56500014  1
  Zn  Zn150  1  0.81048326  0.06410227  0.06222397  1
  Zn  Zn151  1  0.81016898  0.06254027  0.56254139  1
  Zn  Zn152  1  0.81560208  0.56321389  0.06470032  1
  Zn  Zn153  1  0.81467824  0.56382817  0.56300017  1
  Zn  Zn154  1  0.43637733  0.43847390  0.18400993  1
  Zn  Zn155  1  0.43705276  0.43680058  0.68223866  1
  Zn  Zn156  1  0.43782382  0.93746994  0.18940580  1
  Zn  Zn157  1  0.43766426  0.93915841  0.68597541  1
  Zn  Zn158  1  0.93556401  0.43740829  0.18746798  1
  Zn  Zn159  1  0.93847371  0.43925447  0.68536440  1
  Zn  Zn160  1  0.93950361  0.93759460  0.18925453  1
  Zn  Zn161  1  0.93841187  0.93890574  0.68783407  1
  Zn  Zn162  1  0.05876871  0.06655411  0.31232295  1
  Zn  Zn163  1  0.06243547  0.06063447  0.81106359  1
  Zn  Zn164  1  0.06506243  0.56633084  0.31639005  1
  Zn  Zn165  1  0.06445943  0.56089512  0.81340838  1
  Zn  Zn166  1  0.55654952  0.06230935  0.31221308  1
  Zn  Zn167  1  0.55938903  0.06483659  0.81195190  1
  Zn  Zn168  1  0.56327218  0.56586557  0.31269468  1
  Zn  Zn169  1  0.56407027  0.56411553  0.81430459  1
  Zn  Zn170  1  0.43699392  0.18395666  0.43548565  1
  Zn  Zn171  1  0.43613410  0.18796701  0.93581652  1
  Zn  Zn172  1  0.43634833  0.68739512  0.43808604  1
  Zn  Zn173  1  0.43937252  0.68522277  0.93934512  1
  Zn  Zn174  1  0.93667597  0.18687454  0.43614375  1
  Zn  Zn175  1  0.93875825  0.18793394  0.93704662  1
  Zn  Zn176  1  0.93782699  0.68706337  0.43950100  1
  Zn  Zn177  1  0.93903345  0.68705737  0.94020846  1
  Zn  Zn178  1  0.06459384  0.31207615  0.06305186  1
  Zn  Zn179  1  0.05944617  0.31149554  0.56179947  1
  Zn  Zn180  1  0.06523952  0.81103425  0.06387927  1
  Zn  Zn181  1  0.06128792  0.81335427  0.56172599  1
  Zn  Zn182  1  0.56033418  0.31267594  0.06275674  1
  Zn  Zn183  1  0.56235906  0.31309927  0.56482560  1
  Zn  Zn184  1  0.56124465  0.81230706  0.06553636  1
  Zn  Zn185  1  0.56385846  0.81428295  0.56295256  1
  O  O186  1  0.12337136  0.11607519  0.11730445  1
  O  O187  1  0.11660954  0.12647465  0.61628567  1
  O  O188  1  0.11666767  0.63230079  0.11557946  1
  O  O189  1  0.11212402  0.62469804  0.63266219  1
  O  O190  1  0.61360074  0.12062834  0.12682096  1
  O  O191  1  0.62444924  0.11760097  0.61727065  1
  O  O192  1  0.62564886  0.61918574  0.11951590  1
  O  O193  1  0.61977358  0.62094921  0.62083612  1
  O  O194  1  0.38512108  0.36803141  0.38333323  1
  O  O195  1  0.37709916  0.37573882  0.87432553  1
  O  O196  1  0.36996865  0.88828206  0.37271645  1
  O  O197  1  0.37982255  0.87181694  0.88540179  1
  O  O198  1  0.87505149  0.38252985  0.38556786  1
  O  O199  1  0.87947433  0.37989826  0.87975462  1
  O  O200  1  0.87447785  0.88665165  0.37490504  1
  O  O201  1  0.88117127  0.87951166  0.88114506  1
  O  O202  1  0.26606542  0.00475876  0.38111597  1
  O  O203  1  0.25233210  0.00520924  0.86796271  1
  O  O204  1  0.24892930  0.51384171  0.36761131  1
  O  O205  1  0.25333215  0.51376195  0.87171940  1
  O  O206  1  0.75570340  0.00533189  0.36931843  1
  O  O207  1  0.75639580  0.00117495  0.86908479  1
  O  O208  1  0.75319244  0.50571992  0.36995781  1
  O  O209  1  0.75513116  0.50541177  0.87112223  1
  O  O210  1  0.25369903  0.50187025  0.14051241  1
  O  O211  1  0.24590470  0.49228725  0.62410604  1
  O  O212  1  0.23972450  0.99093399  0.11858842  1
  O  O213  1  0.24896922  0.98987554  0.63041942  1
  O  O214  1  0.74553938  0.49480516  0.12969921  1
  O  O215  1  0.74375028  0.50123491  0.63307056  1
  O  O216  1  0.74441203  0.99466380  0.13160282  1
  O  O217  1  0.74385475  0.99444722  0.63154862  1
  O  O218  1  -0.00257909  0.36360483  0.25301874  1
  O  O219  1  0.00695343  0.37473871  0.75465943  1
  O  O220  1  0.00310490  0.86195231  0.25238312  1
  O  O221  1  0.00585936  0.86960042  0.75641215  1
  O  O222  1  0.50421248  0.37124713  0.25415506  1
  O  O223  1  0.50933818  0.36526531  0.74245857  1
  O  O224  1  0.50578246  0.86200246  0.24635939  1
  O  O225  1  0.50553981  0.86929096  0.75514094  1
  O  O226  1  0.49087170  0.13101683  0.24075924  1
  O  O227  1  0.49285741  0.13583826  0.74604084  1
  O  O228  1  0.49244682  0.63454038  0.24990961  1
  O  O229  1  0.49763396  0.63089330  0.74483209  1
  O  O230  1  0.99039623  0.13633819  0.24769252  1
  O  O231  1  0.99088773  0.12474379  0.74248919  1
  O  O232  1  1.00195565  0.63300530  0.24196417  1
  O  O233  1  0.99533548  0.62876204  0.74477845  1
  O  O234  1  0.37558369  0.24965195  0.01071934  1
  O  O235  1  0.37005003  0.25390933  0.50310739  1
  O  O236  1  0.37705862  0.75739210  0.01196977  1
  O  O237  1  0.37393070  0.75374535  0.50760344  1
  O  O238  1  0.86897537  0.25590091  0.00418844  1
  O  O239  1  0.86864181  0.25948061  0.49723905  1
  O  O240  1  0.87049426  0.75569342  0.00611747  1
  O  O241  1  0.87293437  0.75117794  0.50979188  1
  O  O242  1  0.12725839  0.24402567  0.49004655  1
  O  O243  1  0.12433412  0.24097670  0.99127717  1
  O  O244  1  0.12718782  0.75211600  0.48725427  1
  O  O245  1  0.12558666  0.73780418  0.99442137  1
  O  O246  1  0.62832749  0.24594771  0.49383443  1
  O  O247  1  0.62707379  0.25207872  0.98983552  1
  O  O248  1  0.62442432  0.74480481  0.49164941  1
  O  O249  1  0.63115330  0.74623142  0.99678092  1
  O  O250  1  0.49252153  0.24256647  0.13009126  1
  O  O251  1  0.49373163  0.24808394  0.63376966  1
  O  O252  1  0.49086377  0.74844102  0.13586027  1
  O  O253  1  0.49738728  0.74495261  0.63092944  1
  O  O254  1  0.99115113  0.24846254  0.13408656  1
  O  O255  1  0.99483787  0.23700845  0.62646360  1
  O  O256  1  0.99756758  0.74248656  0.13301259  1
  O  O257  1  0.99621017  0.74258683  0.63176886  1
  O  O258  1  0.00614868  0.25070370  0.36619787  1
  O  O259  1  0.00568761  0.25774062  0.87220741  1
  O  O260  1  0.00896163  0.74556663  0.36723896  1
  O  O261  1  0.00474141  0.75434710  0.87076007  1
  O  O262  1  0.50523061  0.25521369  0.36899190  1
  O  O263  1  0.50814015  0.24554769  0.86228145  1
  O  O264  1  0.51050162  0.74408415  0.36637108  1
  O  O265  1  0.50707004  0.75438183  0.87023642  1
  O  O266  1  0.23833834  0.13226963  0.50035534  1
  O  O267  1  0.24273376  0.12556093  0.99103967  1
  O  O268  1  0.25883940  0.62354580  0.48589460  1
  O  O269  1  0.24351915  0.62545188  0.99401679  1
  O  O270  1  0.74309710  0.13042969  0.49307693  1
  O  O271  1  0.74573168  0.13439243  0.99807211  1
  O  O272  1  0.74289884  0.62610773  0.49433376  1
  O  O273  1  0.74650962  0.63036667  0.99616871  1
  O  O274  1  0.25583311  0.37231884  0.00041643  1
  O  O275  1  0.25530299  0.36948937  0.50108843  1
  O  O276  1  0.26007771  0.87034374  0.00923575  1
  O  O277  1  0.25298420  0.87374276  0.51319850  1
  O  O278  1  0.75460392  0.37083096  0.00494668  1
  O  O279  1  0.75814613  0.37136027  0.50013596  1
  O  O280  1  0.75574965  0.86941605  0.00652990  1
  O  O281  1  0.75384525  0.87218469  0.51100158  1
  O  O282  1  0.13998454  0.50134728  0.25495359  1
  O  O283  1  0.12671965  0.48674587  0.74801653  1
  O  O284  1  0.11722209  1.00082947  0.23608845  1
  O  O285  1  0.13198899  0.99204881  0.74777211  1
  O  O286  1  0.62940781  0.49537507  0.24508846  1
  O  O287  1  0.62800274  0.49321938  0.74718505  1
  O  O288  1  0.62860975  0.99505218  0.24710855  1
  O  O289  1  0.62887574  0.99560438  0.74518984  1
  O  O290  1  0.38257595  0.00776382  0.26323249  1
  O  O291  1  0.36875446  0.00690265  0.75071777  1
  O  O292  1  0.36967827  0.51340149  0.24636929  1
  O  O293  1  0.37539864  0.50903203  0.74722012  1
  O  O294  1  0.86850780  0.00490733  0.25650274  1
  O  O295  1  0.87000863  0.00760936  0.75591894  1
  O  O296  1  0.86787195  0.50082534  0.25736319  1
  O  O297  1  0.87000829  0.50436458  0.75640636  1
  O  O298  1  0.12269136  0.36257683  0.36718327  1
  O  O299  1  0.12006013  0.37044627  0.86614947  1
  O  O300  1  0.12621447  0.86570526  0.37141682  1
  O  O301  1  0.12094435  0.86881610  0.87226963  1
  O  O302  1  0.61866348  0.36962417  0.36901456  1
  O  O303  1  0.62812520  0.36512229  0.86258825  1
  O  O304  1  0.63252409  0.86257987  0.36972724  1
  O  O305  1  0.62052457  0.86954197  0.87078897  1
  O  O306  1  0.38199795  0.12871550  0.13097403  1
  O  O307  1  0.37339828  0.13204698  0.63018363  1
  O  O308  1  0.37415490  0.63699417  0.13536074  1
  O  O309  1  0.38202202  0.63159757  0.63046390  1
  O  O310  1  0.87436194  0.13185081  0.13171993  1
  O  O311  1  0.88133526  0.12363485  0.63370003  1
  O  O312  1  0.88739372  0.63220189  0.12566966  1
  O  O313  1  0.88446905  0.62960811  0.63300045  1
  O  O314  1  0.26314780  0.24709858  0.12205704  1
  O  O315  1  0.25431164  0.25612255  0.61651818  1
  O  O316  1  0.26053299  0.75701931  0.12558658  1
  O  O317  1  0.25624496  0.75732342  0.62448026  1
  O  O318  1  0.75325209  0.25692400  0.12006090  1
  O  O319  1  0.75196047  0.25262229  0.61521675  1
  O  O320  1  0.75588026  0.75538542  0.12171846  1
  O  O321  1  0.75695849  0.75559387  0.62669510  1
  O  O322  1  0.23942135  0.24714568  0.37761966  1
  O  O323  1  0.24099524  0.24094292  0.87382178  1
  O  O324  1  0.24343534  0.73968375  0.37601672  1
  O  O325  1  0.24500261  0.73820062  0.87735387  1
  O  O326  1  0.74271004  0.24486130  0.37881712  1
  O  O327  1  0.73867960  0.24862841  0.88030337  1
  O  O328  1  0.74028253  0.74376968  0.37479200  1
  O  O329  1  0.74639391  0.74531993  0.88209078  1
  O  O330  1  0.00585784  0.11710441  0.00053976  1
  O  O331  1  0.00750984  0.12518004  0.50700100  1
  O  O332  1  0.00778567  0.62020422  0.00740416  1
  O  O333  1  -0.00551157  0.61467376  0.51159915  1
  O  O334  1  0.50036051  0.12356746  0.01257114  1
  O  O335  1  0.50612850  0.11566893  0.50104118  1
  O  O336  1  0.50752532  0.61762174  0.00508840  1
  O  O337  1  0.50501164  0.61772942  0.50416603  1
  O  O338  1  0.49717406  0.38216869  0.49535444  1
  O  O339  1  0.49931902  0.39160461  1.00491797  1
  O  O340  1  0.49853675  0.88901611  0.50440622  1
  O  O341  1  0.49124403  0.87400574  0.99604363  1
  O  O342  1  0.98959612  0.38235120  0.49838725  1
  O  O343  1  0.99466656  0.37963829  0.99496378  1
  O  O344  1  0.99545437  0.88052570  0.49716888  1
  O  O345  1  0.99494907  0.87805497  0.99562017  1
  O  O346  1  0.50835563  0.49514569  0.38702877  1
  O  O347  1  0.50099283  0.50719703  0.89137597  1
  O  O348  1  0.48694566  1.00501160  0.38378582  1
  O  O349  1  0.49707315  0.99169157  0.87702552  1
  O  O350  1  0.99440710  0.50173338  0.38289698  1
  O  O351  1  0.99408532  0.49476418  0.88173855  1
  O  O352  1  0.98747667  1.00005259  0.37391457  1
  O  O353  1  0.99474797  0.99263479  0.88062027  1
  O  O354  1  0.00826040  -0.00023314  0.11840110  1
  O  O355  1  0.00293907  0.01266752  0.62355036  1
  O  O356  1  -0.00550458  0.51213680  0.12029489  1
  O  O357  1  0.00206956  0.50869797  0.61734639  1
  O  O358  1  0.50463464  0.00898759  0.12665978  1
  O  O359  1  0.50589121  0.00274754  0.61594622  1
  O  O360  1  0.50686308  0.50385851  0.11644369  1
  O  O361  1  0.50740166  0.50594662  0.61584394  1
  O  O362  1  0.25671982  0.39478046  0.25635941  1
  O  O363  1  0.24001278  0.37541028  0.74084919  1
  O  O364  1  0.25062387  0.87127005  0.23545912  1
  O  O365  1  0.24611072  0.87771254  0.74290774  1
  O  O366  1  0.74352201  0.38080751  0.24482632  1
  O  O367  1  0.74007054  0.38138034  0.74840795  1
  O  O368  1  0.74383370  0.87991730  0.24431195  1
  O  O369  1  0.74404568  0.88082537  0.74673387  1
  O  O370  1  0.26273011  0.12837597  0.24756607  1
  O  O371  1  0.25340351  0.11973018  0.75342278  1
  O  O372  1  0.25692225  0.61617157  0.25703750  1
  O  O373  1  0.25663993  0.62435036  0.75843185  1
  O  O374  1  0.75263332  0.11980846  0.25508238  1
  O  O375  1  0.75934795  0.11936063  0.75013003  1
  O  O376  1  0.75206358  0.61821609  0.25631554  1
  O  O377  1  0.75577825  0.61971854  0.75776050  1
  O  O378  1  0.37216661  0.11871737  0.36485931  1
  O  O379  1  0.36782121  0.12430864  0.86692598  1
  O  O380  1  0.36180420  0.63450475  0.36453186  1
  O  O381  1  0.36764161  0.62584978  0.86971726  1
  O  O382  1  0.86731480  0.11800618  0.36906278  1
  O  O383  1  0.87521407  0.11900209  0.86542385  1
  O  O384  1  0.86801653  0.61902934  0.37444886  1
  O  O385  1  0.87130638  0.61946511  0.87173902  1
  O  O386  1  0.13374366  0.36032437  0.13427107  1
  O  O387  1  0.12864121  0.37346910  0.63187610  1
  O  O388  1  0.13393215  0.88191861  0.12515963  1
  O  O389  1  0.13505309  0.87354716  0.63185001  1
  O  O390  1  0.63008515  0.37987902  0.13108004  1
  O  O391  1  0.62713527  0.38132935  0.63537476  1
  O  O392  1  0.63028275  0.87952863  0.13260674  1
  O  O393  1  0.63092680  0.88038229  0.63266170  1
  O  O394  1  0.11381724  0.24210884  0.25866809  1
  O  O395  1  0.12203259  0.26086111  0.75442408  1
  O  O396  1  0.11785586  0.75085131  0.25920493  1
  O  O397  1  0.11915401  0.75534624  0.75749283  1
  O  O398  1  0.61880612  0.25652442  0.25465426  1
  O  O399  1  0.61798068  0.25612882  0.75444462  1
  O  O400  1  0.61776748  0.75359335  0.25723675  1
  O  O401  1  0.62109518  0.75553389  0.75684489  1
  O  O402  1  0.37960180  0.24218246  0.24239887  1
  O  O403  1  0.38092948  0.24613305  0.74293221  1
  O  O404  1  0.38203264  0.74455578  0.24488652  1
  O  O405  1  0.38300852  0.74452344  0.74449552  1
  O  O406  1  0.87921267  0.24664289  0.24638275  1
  O  O407  1  0.87420334  0.23874043  0.74917393  1
  O  O408  1  0.88597078  0.74770595  0.24580410  1
  O  O409  1  0.88159047  0.74366454  0.74708932  1
  O  O410  1  0.39036307  0.49321366  0.50623352  1
  O  O411  1  0.39021540  0.50344265  1.00325624  1
  O  O412  1  0.38216876  0.99989358  0.48826966  1
  O  O413  1  0.37760800  0.98651484  1.00033034  1
  O  O414  1  0.88240096  0.49302713  0.49591983  1
  O  O415  1  0.88065630  0.49391625  0.99498553  1
  O  O416  1  0.87405272  1.00175980  0.48738259  1
  O  O417  1  0.87938528  0.99417818  0.99618613  1
  O  O418  1  0.11925959  0.00391417  0.00757435  1
  O  O419  1  0.12435187  0.01331540  0.49955808  1
  O  O420  1  0.11922079  0.51283011  -0.00712932  1
  O  O421  1  0.11010670  0.49024244  0.49846628  1
  O  O422  1  0.62248542  0.00250184  0.00980600  1
  O  O423  1  0.61827888  0.00458194  0.50255259  1
  O  O424  1  0.61713323  0.50467070  0.00468260  1
  O  O425  1  0.61746342  0.50544245  0.50572646  1
  O  O426  1  0.37239591  0.36258849  0.12481871  1
  O  O427  1  0.36871028  0.36822175  0.61607325  1
  O  O428  1  0.37004528  0.86926487  0.12048516  1
  O  O429  1  0.36569402  0.86890900  0.62687183  1
  O  O430  1  0.86822894  0.36988246  0.11857246  1
  O  O431  1  0.87309357  0.37406701  0.61334470  1
  O  O432  1  0.86969930  0.87019271  0.12087653  1
  O  O433  1  0.86935855  0.86837969  0.62878117  1
  O  O434  1  0.12468216  0.13318886  0.38272939  1
  O  O435  1  0.12874713  0.12864136  0.87767352  1
  O  O436  1  0.14183706  0.63349877  0.37128196  1
  O  O437  1  0.13275997  0.62895966  0.88206834  1
  O  O438  1  0.62830407  0.13065495  0.37837324  1
  O  O439  1  0.62612647  0.13757487  0.87501368  1
  O  O440  1  0.63042634  0.63464076  0.38001735  1
  O  O441  1  0.63289542  0.63194280  0.88115744  1
