# generated using pymatgen
data_V93Zn93O256
_symmetry_space_group_name_H-M   'P 1'
_cell_length_a   17.04752081
_cell_length_b   17.04762422
_cell_length_c   17.04879443
_cell_angle_alpha   90.02863171
_cell_angle_beta   89.94459569
_cell_angle_gamma   90.01897547
_symmetry_Int_Tables_number   1
_chemical_formula_structural   V93Zn93O256
_chemical_formula_sum   'V93 Zn93 O256'
_cell_volume   4954.71280438
_cell_formula_units_Z   1
loop_
 _symmetry_equiv_pos_site_id
 _symmetry_equiv_pos_as_xyz
  1  'x, y, z'
loop_
 _atom_site_type_symbol
 _atom_site_label
 _atom_site_symmetry_multiplicity
 _atom_site_fract_x
 _atom_site_fract_y
 _atom_site_fract_z
 _atom_site_occupancy
  V  V0  1  0.49924608  0.25274996  0.75666137  1
  V  V1  1  0.00034360  0.24914121  0.75027699  1
  V  V2  1  0.12705130  0.37350995  0.75114478  1
  V  V3  1  0.75121774  0.12767516  0.37394477  1
  V  V4  1  0.74728173  0.87936305  0.62523302  1
  V  V5  1  0.75183900  0.62682449  0.37473100  1
  V  V6  1  0.36774029  0.00339206  0.87648268  1
  V  V7  1  0.62564565  0.49920975  0.12471913  1
  V  V8  1  0.50152272  0.50058507  0.50069626  1
  V  V9  1  0.62500803  0.62482896  -0.00057643  1
  V  V10  1  0.24924511  0.12557355  0.37549300  1
  V  V11  1  0.87373569  0.00115014  0.87395460  1
  V  V12  1  0.24944857  0.24922157  0.49963874  1
  V  V13  1  0.37597744  0.62406401  0.75103761  1
  V  V14  1  0.12878256  0.24160180  0.87499081  1
  V  V15  1  0.37249444  0.87188449  0.00108568  1
  V  V16  1  0.75070853  0.37652319  0.12729353  1
  V  V17  1  0.87313012  0.87437130  -0.00057936  1
  V  V18  1  0.87578520  0.25190367  0.62394640  1
  V  V19  1  0.75070427  0.24868062  -0.00042408  1
  V  V20  1  0.87408655  0.87806568  0.49810566  1
  V  V21  1  0.62531666  0.12431668  -0.00056566  1
  V  V22  1  0.12644613  0.75359294  0.37207560  1
  V  V23  1  0.50115504  0.25073456  0.25071528  1
  V  V24  1  0.12322090  0.87435520  0.75004890  1
  V  V25  1  0.12093065  0.50245049  0.61957095  1
  V  V26  1  0.87596833  0.62555830  0.24966273  1
  V  V27  1  0.88184008  0.12643570  0.24644608  1
  V  V28  1  0.49715808  -0.00071592  0.00113137  1
  V  V29  1  0.24837086  0.00230659  0.75224952  1
  V  V30  1  0.00145848  0.37377064  0.87587737  1
  V  V31  1  0.88173742  0.50326157  0.37929451  1
  V  V32  1  0.37518885  0.12404299  0.24990626  1
  V  V33  1  0.37497235  0.62303416  0.24973826  1
  V  V34  1  0.00084233  0.62411520  0.12386600  1
  V  V35  1  0.87281745  0.12632943  0.74996846  1
  V  V36  1  0.12514248  0.62185409  -0.00103442  1
  V  V37  1  0.00275098  0.87691195  0.36995136  1
  V  V38  1  0.49959442  0.87511345  0.37622875  1
  V  V39  1  0.88138310  0.37930040  0.50002598  1
  V  V40  1  0.62212583  0.87632823  0.75065607  1
  V  V41  1  0.75193246  0.25282453  0.49944515  1
  V  V42  1  0.62587246  0.25241026  0.37508703  1
  V  V43  1  0.74903195  0.75143570  0.49877436  1
  V  V44  1  0.74939072  0.87432262  0.12342917  1
  V  V45  1  0.62340665  0.12512292  0.50279032  1
  V  V46  1  0.62530930  0.62561168  0.49965697  1
  V  V47  1  0.49970225  0.62564756  0.62434803  1
  V  V48  1  0.50220895  0.37522427  0.37570750  1
  V  V49  1  0.38007006  0.37240584  -0.00420517  1
  V  V50  1  0.37531746  0.24799544  0.12467908  1
  V  V51  1  0.37356180  0.74942699  0.62648509  1
  V  V52  1  0.49940906  0.62361317  0.12592736  1
  V  V53  1  0.87723151  0.75158370  0.62722538  1
  V  V54  1  0.62377227  0.00026731  0.12543471  1
  V  V55  1  0.37566116  0.50012080  0.37443665  1
  V  V56  1  0.62485819  0.74975838  0.87611899  1
  V  V57  1  0.00175863  0.49950108  -0.00050002  1
  V  V58  1  0.24228004  -0.00472786  0.24985612  1
  V  V59  1  0.74830949  0.12627358  0.87455982  1
  V  V60  1  0.75062685  0.50106084  0.74943527  1
  V  V61  1  0.25162281  0.49801460  0.75166408  1
  V  V62  1  0.24375963  0.49528988  0.25030665  1
  V  V63  1  0.25072218  0.24225821  -0.00298850  1
  V  V64  1  0.62393771  0.87591656  0.25003347  1
  V  V65  1  0.00662509  0.37699022  0.37126547  1
  V  V66  1  0.37480120  -0.00122249  0.37718508  1
  V  V67  1  0.24814344  0.74741134  0.49970357  1
  V  V68  1  0.12463963  0.74840208  0.87424499  1
  V  V69  1  0.87605407  0.00141647  0.37366486  1
  V  V70  1  0.24434650  0.37248708  0.12896485  1
  V  V71  1  0.37081110  0.12511596  0.75243936  1
  V  V72  1  0.00409811  0.75263818  0.24742153  1
  V  V73  1  0.62081651  0.37594315  0.75616197  1
  V  V74  1  0.12345271  0.00076896  0.62425901  1
  V  V75  1  -0.00057599  0.87414599  0.87342702  1
  V  V76  1  0.00037964  0.12464895  0.62384709  1
  V  V77  1  0.25263324  0.37411220  0.62550226  1
  V  V78  1  0.88075454  0.24680992  0.12470794  1
  V  V79  1  0.00666761  0.25395511  0.24879023  1
  V  V80  1  0.24996154  0.62347692  0.87695644  1
  V  V81  1  0.24918258  0.87477767  0.62533767  1
  V  V82  1  0.50039170  0.12466974  0.12601635  1
  V  V83  1  0.49856675  0.74933171  0.24948157  1
  V  V84  1  0.49980970  0.49625766  -0.00245158  1
  V  V85  1  0.37686078  0.37490069  0.50129354  1
  V  V86  1  0.87587710  0.50071401  0.87347677  1
  V  V87  1  0.12215125  0.12216907  0.00611569  1
  V  V88  1  0.75032265  0.00126605  0.24884914  1
  V  V89  1  0.24183474  0.87397227  0.12780195  1
  V  V90  1  0.00004600  0.00309796  0.00580733  1
  V  V91  1  0.37908677  0.49680527  0.87604264  1
  V  V92  1  0.87651100  0.37471801  -0.00012075  1
  Zn  Zn93  1  0.24834997  0.62361548  0.37370173  1
  Zn  Zn94  1  0.62629762  0.50005630  0.62583157  1
  Zn  Zn95  1  0.49706970  0.87437524  0.87419162  1
  Zn  Zn96  1  0.62570481  0.75021203  0.37436314  1
  Zn  Zn97  1  0.50008472  0.00121844  0.50271371  1
  Zn  Zn98  1  0.74916747  0.37730767  0.62393894  1
  Zn  Zn99  1  0.75026857  0.50220274  0.25080995  1
  Zn  Zn100  1  -0.00054248  0.74629000  0.74849758  1
  Zn  Zn101  1  0.37643321  0.87473772  0.50310832  1
  Zn  Zn102  1  0.87604693  0.62649122  0.75005313  1
  Zn  Zn103  1  0.62045904  0.25433924  0.87901684  1
  Zn  Zn104  1  0.00186631  0.00313203  0.49757873  1
  Zn  Zn105  1  0.37710559  0.24810800  0.62661202  1
  Zn  Zn106  1  0.12369834  0.12536770  0.49868549  1
  Zn  Zn107  1  0.11656900  0.61964038  0.49439778  1
  Zn  Zn108  1  -0.00596687  0.61976025  0.62008591  1
  Zn  Zn109  1  0.75258775  0.62633941  0.87592806  1
  Zn  Zn110  1  0.75116961  0.74794995  0.00120105  1
  Zn  Zn111  1  0.24845505  0.74705934  0.00332459  1
  Zn  Zn112  1  0.74647300  0.00389712  0.75002597  1
  Zn  Zn113  1  0.37209322  0.74761844  0.12517223  1
  Zn  Zn114  1  0.62015701  0.00222029  0.62701906  1
  Zn  Zn115  1  0.87328446  0.74921014  0.12305323  1
  Zn  Zn116  1  0.12288316  0.49550114  0.12857304  1
  Zn  Zn117  1  0.11800927  -0.00191313  0.13136378  1
  Zn  Zn118  1  0.49869312  0.12396113  0.62702154  1
  Zn  Zn119  1  0.62583249  0.37703316  0.25091235  1
  Zn  Zn120  1  0.49848573  0.74986869  0.75023528  1
  Zn  Zn121  1  0.12761194  0.25335919  0.36960897  1
  Zn  Zn122  1  0.18856103  0.18267621  0.18555664  1
  Zn  Zn123  1  0.18912569  0.18576061  0.68586450  1
  Zn  Zn124  1  0.18765036  0.68465978  0.18660101  1
  Zn  Zn125  1  0.18885696  0.68604360  0.69037095  1
  Zn  Zn126  1  0.68910271  0.18881646  0.18755503  1
  Zn  Zn127  1  0.68713167  0.19302498  0.68730970  1
  Zn  Zn128  1  0.68675855  0.68878569  0.18775202  1
  Zn  Zn129  1  0.68785000  0.68798989  0.68786813  1
  Zn  Zn130  1  0.31519521  0.31315144  0.31327675  1
  Zn  Zn131  1  0.31299189  0.31070073  0.81426827  1
  Zn  Zn132  1  0.31310302  0.81241780  0.31079199  1
  Zn  Zn133  1  0.30936745  0.81237005  0.81357274  1
  Zn  Zn134  1  0.81652903  0.31441127  0.31299034  1
  Zn  Zn135  1  0.80977365  0.31453741  0.81231556  1
  Zn  Zn136  1  0.81452408  0.81226356  0.31046932  1
  Zn  Zn137  1  0.80965187  0.81411058  0.81245426  1
  Zn  Zn138  1  0.19055109  0.43543365  0.43735858  1
  Zn  Zn139  1  0.19003669  0.43368027  0.93901663  1
  Zn  Zn140  1  0.18703246  0.93614800  0.43987270  1
  Zn  Zn141  1  0.18657837  0.93525261  0.93854799  1
  Zn  Zn142  1  0.69129625  0.44027915  0.43747376  1
  Zn  Zn143  1  0.68892681  0.43835963  0.93662757  1
  Zn  Zn144  1  0.68755635  0.94038655  0.43625531  1
  Zn  Zn145  1  0.68725486  0.93805323  0.93667063  1
  Zn  Zn146  1  0.30997863  0.06015628  0.06462465  1
  Zn  Zn147  1  0.31143169  0.06348813  0.56538034  1
  Zn  Zn148  1  0.31213266  0.55930822  0.06417680  1
  Zn  Zn149  1  0.31040174  0.56281469  0.56268151  1
  Zn  Zn150  1  0.81274511  0.06158328  0.06189511  1
  Zn  Zn151  1  0.81276636  0.06403844  0.56135145  1
  Zn  Zn152  1  0.81347714  0.56398047  0.06079569  1
  Zn  Zn153  1  0.81156696  0.56390569  0.56223334  1
  Zn  Zn154  1  0.43523563  0.43593100  0.18614468  1
  Zn  Zn155  1  0.43972665  0.43719264  0.68715317  1
  Zn  Zn156  1  0.43323661  0.93608418  0.18776076  1
  Zn  Zn157  1  0.43817131  0.93916723  0.68634510  1
  Zn  Zn158  1  0.93779196  0.43887941  0.18983667  1
  Zn  Zn159  1  0.93831130  0.43594495  0.68915911  1
  Zn  Zn160  1  0.93464525  0.93517131  0.18660439  1
  Zn  Zn161  1  0.93727034  0.93925941  0.68814580  1
  Zn  Zn162  1  0.06372347  0.06711298  0.31477794  1
  Zn  Zn163  1  0.06040343  0.06139203  0.81348013  1
  Zn  Zn164  1  0.06261354  0.56634038  0.31319045  1
  Zn  Zn165  1  0.06040041  0.56425558  0.80678070  1
  Zn  Zn166  1  0.56321841  0.06367203  0.31444330  1
  Zn  Zn167  1  0.55762990  0.06235494  0.81472191  1
  Zn  Zn168  1  0.56515483  0.56184235  0.31218111  1
  Zn  Zn169  1  0.56196925  0.56219543  0.81306406  1
  Zn  Zn170  1  0.43737466  0.18820896  0.43726799  1
  Zn  Zn171  1  0.43799472  0.18462243  0.93541382  1
  Zn  Zn172  1  0.43570832  0.68717633  0.43722791  1
  Zn  Zn173  1  0.43929174  0.68646111  0.93721220  1
  Zn  Zn174  1  0.93951733  0.19052970  0.43647918  1
  Zn  Zn175  1  0.93847038  0.18565745  0.93690654  1
  Zn  Zn176  1  0.93985537  0.68889360  0.44231693  1
  Zn  Zn177  1  0.93727074  0.68766743  0.93618038  1
  Zn  Zn178  1  0.06332829  0.31085735  0.06146812  1
  Zn  Zn179  1  0.06380693  0.31453706  0.56184003  1
  Zn  Zn180  1  0.06122772  0.81157828  0.05866578  1
  Zn  Zn181  1  0.06178709  0.81460873  0.55790083  1
  Zn  Zn182  1  0.56405541  0.31134998  0.06338397  1
  Zn  Zn183  1  0.56282669  0.31209278  0.57038330  1
  Zn  Zn184  1  0.56048117  0.81127754  0.06302742  1
  Zn  Zn185  1  0.56157985  0.81091030  0.56230579  1
  O  O186  1  0.12687035  0.12009997  0.11001356  1
  O  O187  1  0.11806271  0.11861453  0.62490652  1
  O  O188  1  0.11821779  0.62104445  0.11743422  1
  O  O189  1  0.12999737  0.60756292  0.62826724  1
  O  O190  1  0.62055168  0.11957543  0.12040011  1
  O  O191  1  0.62717230  0.12590205  0.61288645  1
  O  O192  1  0.61929162  0.61888814  0.11990544  1
  O  O193  1  0.61832448  0.62562776  0.61758767  1
  O  O194  1  0.38298216  0.38028080  0.38157133  1
  O  O195  1  0.36811524  0.37973711  0.88903558  1
  O  O196  1  0.38313183  0.88326141  0.37476372  1
  O  O197  1  0.37422338  0.88207693  0.88455764  1
  O  O198  1  0.88291305  0.38370130  0.38097714  1
  O  O199  1  0.88185476  0.37849188  0.88119040  1
  O  O200  1  0.88217521  0.88168294  0.37769717  1
  O  O201  1  0.87820206  0.88149086  0.87950112  1
  O  O202  1  0.25651059  0.00197642  0.36849517  1
  O  O203  1  0.26028065  -0.00660999  0.86927718  1
  O  O204  1  0.25692371  0.49841916  0.36686590  1
  O  O205  1  0.25711024  0.50313027  0.87095079  1
  O  O206  1  0.75641874  0.00666779  0.36725757  1
  O  O207  1  0.75653497  0.00820806  0.87443800  1
  O  O208  1  0.76305255  0.50742169  0.37290497  1
  O  O209  1  0.75786903  0.49970791  0.86614031  1
  O  O210  1  0.24982656  0.48882099  0.13316733  1
  O  O211  1  0.24464753  0.49296847  0.63276532  1
  O  O212  1  0.24880320  0.99251914  0.13461455  1
  O  O213  1  0.24388218  0.99407290  0.63144975  1
  O  O214  1  0.74637118  0.48985649  0.12368475  1
  O  O215  1  0.74963712  0.49899148  0.63598182  1
  O  O216  1  0.74355759  0.99559938  0.13023628  1
  O  O217  1  0.74706124  0.98913401  0.62513751  1
  O  O218  1  -0.00663052  0.36528661  0.25919898  1
  O  O219  1  0.00704904  0.36762927  0.75650353  1
  O  O220  1  -0.00628834  0.86593991  0.25938688  1
  O  O221  1  0.00616797  0.87521460  0.75696568  1
  O  O222  1  0.50033413  0.36818597  0.25629138  1
  O  O223  1  0.50855305  0.36637605  0.74624354  1
  O  O224  1  0.50313144  0.87135615  0.25711282  1
  O  O225  1  0.51043193  0.87248669  0.75054368  1
  O  O226  1  0.49523004  0.13018149  0.24550730  1
  O  O227  1  0.48914240  0.13186756  0.75064169  1
  O  O228  1  0.49518325  0.62860038  0.24560204  1
  O  O229  1  0.49305794  0.62573912  0.74266110  1
  O  O230  1  0.98703050  0.13412367  0.25557052  1
  O  O231  1  0.99322367  0.13105590  0.74530235  1
  O  O232  1  0.99554535  0.63344926  0.24431941  1
  O  O233  1  0.99512435  0.62828323  0.73820527  1
  O  O234  1  0.36877234  0.25241964  0.00303934  1
  O  O235  1  0.36569008  0.25544671  0.50044261  1
  O  O236  1  0.37320808  0.76043531  0.00072551  1
  O  O237  1  0.36411001  0.75040691  0.50591172  1
  O  O238  1  0.87244041  0.25325271  0.00778145  1
  O  O239  1  0.87061893  0.25868935  0.50347467  1
  O  O240  1  0.87305737  0.75900139  0.00115102  1
  O  O241  1  0.86790886  0.75973151  0.50697003  1
  O  O242  1  0.14014740  0.25127430  0.49863218  1
  O  O243  1  0.13037153  0.24160520  0.99452700  1
  O  O244  1  0.13429017  0.75164159  0.49096048  1
  O  O245  1  0.12511859  0.74010248  0.99190283  1
  O  O246  1  0.63124685  0.24464144  0.49496358  1
  O  O247  1  0.63153063  0.24275266  0.99998578  1
  O  O248  1  0.63158041  0.74442965  0.49697589  1
  O  O249  1  0.62386887  0.74490990  0.99161580  1
  O  O250  1  0.49482662  0.24358927  0.13033295  1
  O  O251  1  0.49626670  0.24539175  0.63919982  1
  O  O252  1  0.49721361  0.74227584  0.13204387  1
  O  O253  1  0.49115872  0.74345164  0.62527018  1
  O  O254  1  0.98738187  0.25879514  0.13217155  1
  O  O255  1  0.99620504  0.24602769  0.63128958  1
  O  O256  1  1.00076023  0.74548457  0.13375596  1
  O  O257  1  0.98466959  0.76043430  0.62561330  1
  O  O258  1  0.00033587  0.25933637  0.36484303  1
  O  O259  1  0.00851712  0.25416330  0.87057086  1
  O  O260  1  0.00627290  0.75784501  0.36717240  1
  O  O261  1  0.00643157  0.75675647  0.87231434  1
  O  O262  1  0.50541054  0.25596569  0.36992316  1
  O  O263  1  0.50133839  0.24630907  0.86273618  1
  O  O264  1  0.49927107  0.76102445  0.36975949  1
  O  O265  1  0.51113051  0.75291077  0.87275035  1
  O  O266  1  0.25188704  0.13483368  0.49465133  1
  O  O267  1  0.24334852  0.13609292  1.00399633  1
  O  O268  1  0.24563375  0.63692452  0.49774309  1
  O  O269  1  0.24421430  0.62307716  0.99466985  1
  O  O270  1  0.74454416  0.13242315  0.49320250  1
  O  O271  1  0.74501257  0.12954470  0.99585373  1
  O  O272  1  0.74548311  0.63188093  0.49403878  1
  O  O273  1  0.74071151  0.62640462  0.99747185  1
  O  O274  1  0.25867449  0.36317563  0.00839540  1
  O  O275  1  0.25774751  0.36696445  0.50416057  1
  O  O276  1  0.25829088  0.87393456  0.00814930  1
  O  O277  1  0.25185286  0.86409961  0.50628772  1
  O  O278  1  0.75664348  0.36954285  0.00843491  1
  O  O279  1  0.76288530  0.37070921  0.49942111  1
  O  O280  1  0.75530963  0.87622565  0.00650133  1
  O  O281  1  0.75271058  0.87244111  0.50660536  1
  O  O282  1  0.13989654  0.50442427  0.25047416  1
  O  O283  1  0.13298496  0.49191377  0.74404665  1
  O  O284  1  0.13811396  1.00695161  0.24913464  1
  O  O285  1  0.12907854  0.99522812  0.74573919  1
  O  O286  1  0.63000398  0.49681883  0.24111066  1
  O  O287  1  0.63255245  0.49356572  0.75055226  1
  O  O288  1  0.63033825  0.99686462  0.24480491  1
  O  O289  1  0.62550647  0.98950250  0.75040456  1
  O  O290  1  0.36660305  0.00455444  0.25931482  1
  O  O291  1  0.36974579  0.00527562  0.75849691  1
  O  O292  1  0.36787842  0.50344166  0.25532924  1
  O  O293  1  0.37097745  0.50344542  0.75623826  1
  O  O294  1  0.87100075  0.00902567  0.25227839  1
  O  O295  1  0.87231205  0.00843824  0.75637492  1
  O  O296  1  0.87341802  0.50773056  0.25977915  1
  O  O297  1  0.86664696  0.49774533  0.75507725  1
  O  O298  1  0.11078478  0.37490637  0.38120699  1
  O  O299  1  0.12101188  0.36359276  0.87181873  1
  O  O300  1  0.11465116  0.86561914  0.37839961  1
  O  O301  1  0.12001737  0.86888302  0.86979931  1
  O  O302  1  0.62064320  0.37006685  0.37435606  1
  O  O303  1  0.63054223  0.37297960  0.86194903  1
  O  O304  1  0.61489440  0.87733308  0.36854403  1
  O  O305  1  0.62343690  0.86864191  0.86748100  1
  O  O306  1  0.38063873  0.12855712  0.12982429  1
  O  O307  1  0.37586717  0.12572307  0.63875659  1
  O  O308  1  0.38214255  0.62358528  0.13116052  1
  O  O309  1  0.37855988  0.62957247  0.63122141  1
  O  O310  1  0.86829835  0.13599174  0.13417698  1
  O  O311  1  0.87981103  0.13184524  0.62988653  1
  O  O312  1  0.88313596  0.62634487  0.13029697  1
  O  O313  1  0.87124733  0.64059343  0.62483223  1
  O  O314  1  0.25547803  0.25359245  0.11823836  1
  O  O315  1  0.25260506  0.25577571  0.61647400  1
  O  O316  1  0.25212377  0.75889635  0.12476501  1
  O  O317  1  0.25275281  0.75405705  0.61809842  1
  O  O318  1  0.75961673  0.25743388  0.12029484  1
  O  O319  1  0.75928886  0.25366220  0.61775553  1
  O  O320  1  0.75124453  0.75939662  0.12307461  1
  O  O321  1  0.75607301  0.76156075  0.61974722  1
  O  O322  1  0.25021525  0.24599106  0.38192576  1
  O  O323  1  0.23942705  0.25525829  0.88652048  1
  O  O324  1  0.24224230  0.75243989  0.38103832  1
  O  O325  1  0.24266603  0.74132739  0.87760434  1
  O  O326  1  0.74670402  0.24704059  0.37903884  1
  O  O327  1  0.74965323  0.24377590  0.88319724  1
  O  O328  1  0.75069380  0.74575783  0.38139170  1
  O  O329  1  0.73680333  0.74939814  0.87731570  1
  O  O330  1  0.00797531  0.11396285  -0.00530808  1
  O  O331  1  0.00198349  0.12512363  0.50720004  1
  O  O332  1  0.00489625  0.61813187  0.00424744  1
  O  O333  1  0.00573434  0.63068692  0.50897523  1
  O  O334  1  0.50445000  0.11943429  0.00692274  1
  O  O335  1  0.51198123  0.12639602  0.49916365  1
  O  O336  1  0.50489248  0.61752828  0.00700975  1
  O  O337  1  0.50487722  0.62037906  0.50389420  1
  O  O338  1  0.49645935  0.37953234  0.49607544  1
  O  O339  1  0.48702692  0.37799690  1.00858532  1
  O  O340  1  0.49842194  0.87703236  0.48807791  1
  O  O341  1  0.48797807  0.88161244  1.00266160  1
  O  O342  1  0.98824241  0.36726040  0.48901699  1
  O  O343  1  0.99574258  0.37878350  0.99510574  1
  O  O344  1  0.99266955  0.87715816  0.48545463  1
  O  O345  1  0.99425794  0.88267371  0.99225312  1
  O  O346  1  0.49582070  0.49464755  0.38097249  1
  O  O347  1  0.49142984  0.50473237  0.88483353  1
  O  O348  1  0.49067687  0.99243492  0.37357097  1
  O  O349  1  0.48657036  0.99639882  0.88319606  1
  O  O350  1  0.99002575  0.49285889  0.36746225  1
  O  O351  1  0.99611957  0.49262522  0.87873176  1
  O  O352  1  0.99531422  0.99205464  0.37185915  1
  O  O353  1  0.99339093  0.99423305  0.88319602  1
  O  O354  1  0.00124874  -0.00875373  0.11042529  1
  O  O355  1  0.00523551  0.00652637  0.62300795  1
  O  O356  1  0.00232055  0.50411408  0.11891940  1
  O  O357  1  0.01865937  0.49466925  0.62999828  1
  O  O358  1  0.50353426  0.00567010  0.12207445  1
  O  O359  1  0.50300606  0.00488930  0.61936681  1
  O  O360  1  0.50563619  0.50343185  0.11894057  1
  O  O361  1  0.50071599  0.50817771  0.61734641  1
  O  O362  1  0.25853312  0.38191157  0.23983477  1
  O  O363  1  0.24618807  0.37774494  0.74623160  1
  O  O364  1  0.25632477  0.88490734  0.24089123  1
  O  O365  1  0.24292876  0.88131843  0.74450393  1
  O  O366  1  0.75211562  0.37545723  0.23702501  1
  O  O367  1  0.74312819  0.38425253  0.74776401  1
  O  O368  1  0.74507634  0.88214738  0.24527661  1
  O  O369  1  0.73967683  0.87774885  0.74087136  1
  O  O370  1  0.25684765  0.11688068  0.25451702  1
  O  O371  1  0.26074403  0.11835127  0.74749497  1
  O  O372  1  0.25732343  0.61404712  0.24976127  1
  O  O373  1  0.25680442  0.61735868  0.75735072  1
  O  O374  1  0.75946337  0.12165958  0.25438962  1
  O  O375  1  0.75509933  0.12612702  0.75551902  1
  O  O376  1  0.75817708  0.62682084  0.25629016  1
  O  O377  1  0.75059475  0.61306669  0.75276027  1
  O  O378  1  0.37030663  0.11684665  0.36959676  1
  O  O379  1  0.37655860  0.11282232  0.86730540  1
  O  O380  1  0.37303798  0.61734024  0.36837052  1
  O  O381  1  0.36980236  0.61810456  0.87109999  1
  O  O382  1  0.87030800  0.12238473  0.36599605  1
  O  O383  1  0.86892778  0.12146330  0.86959260  1
  O  O384  1  0.87330163  0.61964584  0.37179955  1
  O  O385  1  0.87353894  0.61632355  0.87197807  1
  O  O386  1  0.14028057  0.37418536  0.11847535  1
  O  O387  1  0.13218265  0.38225345  0.63100793  1
  O  O388  1  0.13820365  0.87829701  0.11567158  1
  O  O389  1  0.12926213  0.88020552  0.63005642  1
  O  O390  1  0.63626640  0.37888400  0.12466134  1
  O  O391  1  0.62910181  0.37864342  0.63806671  1
  O  O392  1  0.62810595  0.88189188  0.13052706  1
  O  O393  1  0.63245039  0.87375044  0.63238275  1
  O  O394  1  0.11021927  0.24122462  0.24682562  1
  O  O395  1  0.12207176  0.25249060  0.75774149  1
  O  O396  1  0.11421952  0.74504603  0.25874318  1
  O  O397  1  0.12450853  0.75687497  0.75562705  1
  O  O398  1  0.61936378  0.25136597  0.25635793  1
  O  O399  1  0.61704375  0.25755257  0.75300331  1
  O  O400  1  0.61692523  0.75813161  0.25267489  1
  O  O401  1  0.62453526  0.75886916  0.75787560  1
  O  O402  1  0.38082080  0.24313892  0.24487948  1
  O  O403  1  0.37995139  0.24147572  0.75290804  1
  O  O404  1  0.38114451  0.74177748  0.24913426  1
  O  O405  1  0.37392682  0.74258794  0.74495535  1
  O  O406  1  0.88199563  0.24406623  0.24295955  1
  O  O407  1  0.88074692  0.24689893  0.74494788  1
  O  O408  1  0.88787005  0.74402391  0.24923526  1
  O  O409  1  0.87286767  0.75153790  0.73927034  1
  O  O410  1  0.38038052  0.49515579  0.49456739  1
  O  O411  1  0.37916818  0.48962698  0.99680711  1
  O  O412  1  0.37379975  0.99928821  0.48665777  1
  O  O413  1  0.37589361  0.99349842  0.99442007  1
  O  O414  1  0.87171796  0.49217782  0.49036239  1
  O  O415  1  0.88202005  0.49361116  0.99415979  1
  O  O416  1  0.87622361  0.99571462  0.49095647  1
  O  O417  1  0.88238631  0.99658625  0.99463337  1
  O  O418  1  0.11706599  0.00782641  -0.00361000  1
  O  O419  1  0.12322713  0.00266744  0.50832462  1
  O  O420  1  0.11873058  0.50386476  -0.00039478  1
  O  O421  1  0.13513261  0.49882971  0.51656654  1
  O  O422  1  0.61762877  0.00420848  0.00630865  1
  O  O423  1  0.62525965  0.01445909  0.49859129  1
  O  O424  1  0.61941113  0.50355483  0.00476871  1
  O  O425  1  0.61984939  0.50714668  0.50141212  1
  O  O426  1  0.36614336  0.36694397  0.11565959  1
  O  O427  1  0.36931730  0.37381713  0.61861762  1
  O  O428  1  0.36475649  0.87505497  0.11574291  1
  O  O429  1  0.36715932  0.86853001  0.62505815  1
  O  O430  1  0.86829070  0.36802982  0.11995848  1
  O  O431  1  0.87751937  0.37073657  0.61472529  1
  O  O432  1  0.86666966  0.87394036  0.11767379  1
  O  O433  1  0.86470885  0.87241865  0.62010152  1
  O  O434  1  0.13439166  0.13063076  0.37891044  1
  O  O435  1  0.12089348  0.13629516  0.88311071  1
  O  O436  1  0.12736188  0.63875243  0.37645556  1
  O  O437  1  0.13003353  0.62773999  0.87868851  1
  O  O438  1  0.63158821  0.13220183  0.38146670  1
  O  O439  1  0.63031440  0.12490892  0.88303607  1
  O  O440  1  0.63291795  0.62678715  0.38100633  1
  O  O441  1  0.62483290  0.63435867  0.88061208  1
