# generated using pymatgen
data_V93Zn93O256
_symmetry_space_group_name_H-M   'P 1'
_cell_length_a   17.05339184
_cell_length_b   17.04505524
_cell_length_c   17.04585096
_cell_angle_alpha   90.02020468
_cell_angle_beta   89.98780617
_cell_angle_gamma   90.07148259
_symmetry_Int_Tables_number   1
_chemical_formula_structural   V93Zn93O256
_chemical_formula_sum   'V93 Zn93 O256'
_cell_volume   4954.81559903
_cell_formula_units_Z   1
loop_
 _symmetry_equiv_pos_site_id
 _symmetry_equiv_pos_as_xyz
  1  'x, y, z'
loop_
 _atom_site_type_symbol
 _atom_site_label
 _atom_site_symmetry_multiplicity
 _atom_site_fract_x
 _atom_site_fract_y
 _atom_site_fract_z
 _atom_site_occupancy
  V  V0  1  0.87527212  0.62588095  0.74939832  1
  V  V1  1  0.87544094  0.25019270  0.12527720  1
  V  V2  1  0.74931891  0.49947594  0.74896235  1
  V  V3  1  0.25096304  0.12365869  0.37585369  1
  V  V4  1  0.25421044  0.12998094  0.87810435  1
  V  V5  1  0.12539153  0.12427673  0.50294783  1
  V  V6  1  0.87448833  0.37614363  -0.00067630  1
  V  V7  1  0.12603886  0.00041842  0.12436377  1
  V  V8  1  0.87515437  0.87570981  0.49876959  1
  V  V9  1  0.61820512  0.62068423  -0.00085393  1
  V  V10  1  0.87608287  0.50134571  0.87461755  1
  V  V11  1  0.37777262  0.12837088  0.25124658  1
  V  V12  1  0.74853999  0.49883868  0.24899929  1
  V  V13  1  0.37710694  0.00817445  0.86776893  1
  V  V14  1  0.12514055  0.50066071  0.12315483  1
  V  V15  1  0.37358999  0.37337433  0.50049648  1
  V  V16  1  0.87561911  0.12633829  0.75064830  1
  V  V17  1  0.12783037  0.50096197  0.62904917  1
  V  V18  1  0.00167194  0.25037581  0.75137711  1
  V  V19  1  0.49838101  0.12403811  0.62664448  1
  V  V20  1  0.12539757  0.37461189  0.25056879  1
  V  V21  1  0.12510394  0.24943551  0.37652368  1
  V  V22  1  0.74922621  0.87500100  0.62469024  1
  V  V23  1  0.37571718  0.87631006  -0.00063573  1
  V  V24  1  0.12721360  0.37759185  0.75063134  1
  V  V25  1  0.37466922  0.24919204  0.12160489  1
  V  V26  1  0.75096379  0.25009181  0.00050562  1
  V  V27  1  0.62518109  0.37645133  0.74672671  1
  V  V28  1  0.37090328  0.87552893  0.50035327  1
  V  V29  1  0.00312264  0.75521744  0.74852635  1
  V  V30  1  0.62556416  0.12570264  0.00145959  1
  V  V31  1  0.37530761  0.74943087  0.12369147  1
  V  V32  1  0.00140781  0.37632055  0.87460555  1
  V  V33  1  -0.00036904  0.74878251  0.24785754  1
  V  V34  1  0.75044042  0.12549944  0.87562524  1
  V  V35  1  0.25009089  0.62169477  0.86955666  1
  V  V36  1  0.87530418  0.74982877  0.12381179  1
  V  V37  1  0.00062599  0.62550749  0.62426961  1
  V  V38  1  0.62549831  0.87478912  0.75057567  1
  V  V39  1  0.75041635  0.00043984  0.75032553  1
  V  V40  1  0.24976109  0.49813634  0.24980295  1
  V  V41  1  0.74991070  0.62597512  0.87370372  1
  V  V42  1  0.62350777  0.00144384  0.62519994  1
  V  V43  1  0.62453747  0.74988552  0.87459275  1
  V  V44  1  0.87533366  0.74980972  0.62422534  1
  V  V45  1  0.49975078  0.87427287  0.37413913  1
  V  V46  1  0.62684405  -0.00279570  0.12743353  1
  V  V47  1  -0.00035842  0.37499863  0.37497324  1
  V  V48  1  0.50009017  0.38132368  0.88067164  1
  V  V49  1  0.37577479  0.37978304  0.00088762  1
  V  V50  1  0.24930834  0.62385740  0.37492176  1
  V  V51  1  0.62079701  0.24790994  0.36938050  1
  V  V52  1  0.87510392  0.12348202  0.25140851  1
  V  V53  1  -0.00082854  0.00003212  0.49898694  1
  V  V54  1  0.49836596  0.74922306  0.74931617  1
  V  V55  1  0.00047775  0.50189360  0.00032046  1
  V  V56  1  0.87350563  0.37360150  0.50077080  1
  V  V57  1  0.49858958  0.36846593  0.36791156  1
  V  V58  1  0.75074636  0.75085477  -0.00042274  1
  V  V59  1  0.25035646  0.37902024  0.62994567  1
  V  V60  1  0.75008458  0.12348407  0.37677264  1
  V  V61  1  0.87397590  0.62455445  0.24828545  1
  V  V62  1  0.00162832  0.12535779  0.12480066  1
  V  V63  1  0.50045850  0.87690515  0.87470965  1
  V  V64  1  0.49961847  0.00195983  -0.00005092  1
  V  V65  1  0.00188271  0.12542082  0.62625435  1
  V  V66  1  0.24279092  -0.00061248  0.74943624  1
  V  V67  1  0.74895285  0.37504680  0.12539540  1
  V  V68  1  0.50156734  0.50028918  0.50103253  1
  V  V69  1  0.37157483  0.49944994  0.86932330  1
  V  V70  1  0.12671731  0.75678612  0.87029600  1
  V  V71  1  0.87678409  0.00075464  0.87528854  1
  V  V72  1  0.37523383  0.74882056  0.62560249  1
  V  V73  1  0.50136433  0.13048172  0.13092166  1
  V  V74  1  0.00240876  0.00194367  -0.00067671  1
  V  V75  1  0.50081465  0.74737537  0.24851976  1
  V  V76  1  0.13129994  0.25179788  0.88259414  1
  V  V77  1  0.37291714  0.24594567  0.62906449  1
  V  V78  1  0.87435967  0.25179095  0.62531481  1
  V  V79  1  0.12684484  0.87573133  0.24865119  1
  V  V80  1  0.12471855  0.74907751  0.37551227  1
  V  V81  1  0.00356806  0.87691806  0.87040696  1
  V  V82  1  0.62451736  0.25071662  0.87616057  1
  V  V83  1  -0.00085882  0.50012397  0.50007792  1
  V  V84  1  0.25032945  0.75080387  -0.00148053  1
  V  V85  1  0.24972471  0.36949877  0.11971223  1
  V  V86  1  0.74704178  0.74729071  0.49709530  1
  V  V87  1  -0.00016436  0.25010519  0.25040938  1
  V  V88  1  0.49608068  0.24667232  0.75170136  1
  V  V89  1  0.37386062  0.49775014  0.37430840  1
  V  V90  1  0.61786035  0.49903060  0.12110365  1
  V  V91  1  0.87325470  0.49956239  0.37337286  1
  V  V92  1  0.87564104  0.87503023  0.00005553  1
  Zn  Zn93  1  0.87321592  -0.00280622  0.37294937  1
  Zn  Zn94  1  0.25138031  0.87749901  0.12403934  1
  Zn  Zn95  1  0.24751783  0.74943138  0.50314371  1
  Zn  Zn96  1  0.75271823  -0.00448249  0.25082484  1
  Zn  Zn97  1  0.24359605  0.86720478  0.63643829  1
  Zn  Zn98  1  0.00165409  0.62528916  0.12261434  1
  Zn  Zn99  1  0.74602533  0.62295771  0.37434063  1
  Zn  Zn100  1  0.37543319  0.00026475  0.37490760  1
  Zn  Zn101  1  0.74917515  0.37492300  0.62239252  1
  Zn  Zn102  1  0.24898105  0.24796787  0.50399774  1
  Zn  Zn103  1  0.25200890  0.00038281  0.24753310  1
  Zn  Zn104  1  0.75055442  0.87465007  0.12725978  1
  Zn  Zn105  1  0.49613583  0.61882414  0.12165564  1
  Zn  Zn106  1  0.13123811  0.13053228  0.00424790  1
  Zn  Zn107  1  0.49978201  0.00053380  0.49823506  1
  Zn  Zn108  1  0.74680279  0.25025371  0.50258264  1
  Zn  Zn109  1  0.12433361  0.62659386  -0.00047744  1
  Zn  Zn110  1  0.37353646  0.61892716  0.74611241  1
  Zn  Zn111  1  0.62495575  0.12437227  0.49978676  1
  Zn  Zn112  1  0.37522901  0.62303468  0.24707696  1
  Zn  Zn113  1  0.12083521  -0.00782813  0.63105476  1
  Zn  Zn114  1  0.50072543  0.62230520  0.62645075  1
  Zn  Zn115  1  0.62344629  0.62379663  0.49901040  1
  Zn  Zn116  1  -0.00090079  0.87513448  0.37521528  1
  Zn  Zn117  1  0.62841700  0.87284684  0.25140196  1
  Zn  Zn118  1  0.62454208  0.74609056  0.37280648  1
  Zn  Zn119  1  0.12412872  0.62472410  0.50040160  1
  Zn  Zn120  1  0.62038094  0.37145703  0.24653031  1
  Zn  Zn121  1  0.62595039  0.50241083  0.62292325  1
  Zn  Zn122  1  0.18912205  0.18738556  0.18961920  1
  Zn  Zn123  1  0.18941328  0.18393704  0.69470361  1
  Zn  Zn124  1  0.18819227  0.68631552  0.18674817  1
  Zn  Zn125  1  0.18822111  0.68672049  0.68956170  1
  Zn  Zn126  1  0.68930982  0.18596382  0.19139137  1
  Zn  Zn127  1  0.68663241  0.18883153  0.68744524  1
  Zn  Zn128  1  0.68776198  0.68543546  0.18523525  1
  Zn  Zn129  1  0.68461384  0.68517220  0.68314996  1
  Zn  Zn130  1  0.31287282  0.30870151  0.30984862  1
  Zn  Zn131  1  0.31206506  0.31415549  0.81203113  1
  Zn  Zn132  1  0.31280484  0.81145614  0.31191602  1
  Zn  Zn133  1  0.31347798  0.81533398  0.81357804  1
  Zn  Zn134  1  0.80914266  0.31093511  0.31335853  1
  Zn  Zn135  1  0.81244670  0.31322806  0.81234292  1
  Zn  Zn136  1  0.81266238  0.81365730  0.31180469  1
  Zn  Zn137  1  0.81492285  0.81312983  0.81237946  1
  Zn  Zn138  1  0.18700437  0.43633011  0.44211121  1
  Zn  Zn139  1  0.18900326  0.43873938  0.93905143  1
  Zn  Zn140  1  0.18608989  0.93805157  0.43976529  1
  Zn  Zn141  1  0.19009898  0.93957327  0.93733598  1
  Zn  Zn142  1  0.68597879  0.43356072  0.43550404  1
  Zn  Zn143  1  0.68812134  0.43871049  0.93695021  1
  Zn  Zn144  1  0.68428307  0.93672903  0.43839968  1
  Zn  Zn145  1  0.68817700  0.93788302  0.93950289  1
  Zn  Zn146  1  0.31147067  0.06229602  0.06010820  1
  Zn  Zn147  1  0.31488530  0.06223414  0.56298694  1
  Zn  Zn148  1  0.31106299  0.56189302  0.05743245  1
  Zn  Zn149  1  0.31336755  0.56310187  0.56038953  1
  Zn  Zn150  1  0.81389699  0.06227530  0.06331019  1
  Zn  Zn151  1  0.81301449  0.06374670  0.56224176  1
  Zn  Zn152  1  0.80911415  0.56397802  0.06284477  1
  Zn  Zn153  1  0.81150032  0.56078015  0.56301509  1
  Zn  Zn154  1  0.43568176  0.43718160  0.18876531  1
  Zn  Zn155  1  0.43813075  0.43412034  0.68819034  1
  Zn  Zn156  1  0.43852812  0.93917987  0.18870507  1
  Zn  Zn157  1  0.43446024  0.93565821  0.68777964  1
  Zn  Zn158  1  0.93738585  0.43851927  0.18679356  1
  Zn  Zn159  1  0.93886261  0.43779767  0.68723845  1
  Zn  Zn160  1  0.93942779  0.93687432  0.18749240  1
  Zn  Zn161  1  0.93698308  0.93749095  0.68608982  1
  Zn  Zn162  1  0.06299313  0.06243380  0.31319600  1
  Zn  Zn163  1  0.06605804  0.06715763  0.81584081  1
  Zn  Zn164  1  0.06094769  0.56261026  0.30959508  1
  Zn  Zn165  1  0.06396173  0.56697832  0.81200923  1
  Zn  Zn166  1  0.56336350  0.06020511  0.31266411  1
  Zn  Zn167  1  0.56368417  0.06382228  0.81124435  1
  Zn  Zn168  1  0.56395361  0.56212598  0.31280413  1
  Zn  Zn169  1  0.56003256  0.56303272  0.81149832  1
  Zn  Zn170  1  0.43748136  0.18836299  0.44200719  1
  Zn  Zn171  1  0.43720401  0.19025472  0.94199441  1
  Zn  Zn172  1  0.43509018  0.68686484  0.43692898  1
  Zn  Zn173  1  0.43623220  0.68672876  0.93527284  1
  Zn  Zn174  1  0.93601388  0.18724799  0.43882000  1
  Zn  Zn175  1  0.94082031  0.18829929  0.93812997  1
  Zn  Zn176  1  0.93584164  0.68596478  0.43592950  1
  Zn  Zn177  1  0.94003811  0.68846854  0.93704609  1
  Zn  Zn178  1  0.06085213  0.31537354  0.06268931  1
  Zn  Zn179  1  0.06198008  0.31234373  0.56231539  1
  Zn  Zn180  1  0.06244607  0.81331082  0.05985874  1
  Zn  Zn181  1  0.06439828  0.81518877  0.56302990  1
  Zn  Zn182  1  0.56127241  0.31209016  0.06282991  1
  Zn  Zn183  1  0.56122601  0.31064690  0.55712834  1
  Zn  Zn184  1  0.56183080  0.81145529  0.06109527  1
  Zn  Zn185  1  0.56097179  0.81323917  0.56185496  1
  O  O186  1  0.11980919  0.12108181  0.12469732  1
  O  O187  1  0.11900869  0.12272764  0.62137000  1
  O  O188  1  0.12468778  0.61621673  0.12144333  1
  O  O189  1  0.12076412  0.61693309  0.62430352  1
  O  O190  1  0.61866462  0.11997971  0.12197416  1
  O  O191  1  0.61556154  0.12066810  0.62567379  1
  O  O192  1  0.62403111  0.61599200  0.11491464  1
  O  O193  1  0.61822077  0.62020372  0.61810924  1
  O  O194  1  0.37895026  0.37602222  0.37953979  1
  O  O195  1  0.37918528  0.37945972  0.88207336  1
  O  O196  1  0.38206328  0.87478575  0.38145959  1
  O  O197  1  0.38263046  0.88531348  0.88063958  1
  O  O198  1  0.88105066  0.37907600  0.37911012  1
  O  O199  1  0.88067387  0.38097062  0.87954312  1
  O  O200  1  0.87891117  0.87717718  0.38330915  1
  O  O201  1  0.88138944  0.88201508  0.88008424  1
  O  O202  1  0.25084472  0.01390327  0.37349670  1
  O  O203  1  0.25820232  0.00731805  0.86813084  1
  O  O204  1  0.25232941  0.50428004  0.37079028  1
  O  O205  1  0.25910538  0.50932081  0.88130653  1
  O  O206  1  0.74920814  0.01090015  0.37433122  1
  O  O207  1  0.75596391  0.00605262  0.87068691  1
  O  O208  1  0.75638381  0.49787685  0.36726543  1
  O  O209  1  0.75655705  0.50607523  0.86908250  1
  O  O210  1  0.24653061  0.49001524  0.12937828  1
  O  O211  1  0.24050355  0.49074966  0.61821059  1
  O  O212  1  0.24227114  0.99813430  0.12671398  1
  O  O213  1  0.25458844  1.00751965  0.64480668  1
  O  O214  1  0.74133855  0.49352908  0.12878293  1
  O  O215  1  0.74732045  0.49518454  0.63381581  1
  O  O216  1  0.73813186  1.00062155  0.12412731  1
  O  O217  1  0.74513564  0.99545610  0.63134597  1
  O  O218  1  0.00537739  0.36977886  0.25514962  1
  O  O219  1  0.00639257  0.37033457  0.75638688  1
  O  O220  1  0.01133706  0.86868006  0.25240508  1
  O  O221  1  -0.00754393  0.86783045  0.75755901  1
  O  O222  1  0.49849773  0.37722473  0.26416577  1
  O  O223  1  0.50767685  0.36640090  0.75925310  1
  O  O224  1  0.49856018  0.86553651  0.25770804  1
  O  O225  1  0.50650202  0.87047818  0.75565649  1
  O  O226  1  0.49156594  0.11969125  0.23939531  1
  O  O227  1  0.50633357  0.13865261  0.74246398  1
  O  O228  1  0.49600135  0.63516892  0.24737213  1
  O  O229  1  0.49479543  0.63380354  0.74935476  1
  O  O230  1  0.99597483  0.13157785  0.24518486  1
  O  O231  1  0.99488934  0.13039824  0.74691645  1
  O  O232  1  0.99263934  0.63074738  0.24609452  1
  O  O233  1  0.99418380  0.63302830  0.74400150  1
  O  O234  1  0.37680341  0.26108366  0.01303478  1
  O  O235  1  0.37367206  0.25610213  0.51363816  1
  O  O236  1  0.37220896  0.75590134  0.00568920  1
  O  O237  1  0.37401826  0.75692810  0.50911172  1
  O  O238  1  0.87078194  0.25585732  0.00478927  1
  O  O239  1  0.87571001  0.25660742  0.50783155  1
  O  O240  1  0.87066825  0.75520990  0.00284810  1
  O  O241  1  0.86827201  0.75513101  0.50521938  1
  O  O242  1  0.12521872  0.24274992  0.49423497  1
  O  O243  1  0.12118817  0.25376486  0.98636309  1
  O  O244  1  0.12594626  0.74759801  0.48636558  1
  O  O245  1  0.13105827  0.74933319  0.98913456  1
  O  O246  1  0.62701474  0.24683509  0.48739095  1
  O  O247  1  0.63112062  0.24513408  0.99566323  1
  O  O248  1  0.63697413  0.75122568  0.50061836  1
  O  O249  1  0.63037361  0.74266838  0.99373204  1
  O  O250  1  0.49225484  0.23851638  0.12145073  1
  O  O251  1  0.49345221  0.24510544  0.63246830  1
  O  O252  1  0.49074593  0.74929168  0.13078367  1
  O  O253  1  0.48988082  0.75079806  0.63038653  1
  O  O254  1  0.99494072  0.24663324  0.13061666  1
  O  O255  1  0.99566548  0.24512271  0.63247811  1
  O  O256  1  0.99391758  0.74892647  0.12984722  1
  O  O257  1  0.99514591  0.74521938  0.62826906  1
  O  O258  1  0.00511537  0.25498981  0.36968180  1
  O  O259  1  0.00834354  0.25689347  0.87030941  1
  O  O260  1  0.01026686  0.74898348  0.36815589  1
  O  O261  1  0.00832429  0.75589460  0.86959979  1
  O  O262  1  0.50668101  0.25837465  0.38201670  1
  O  O263  1  0.50327187  0.25702054  0.86910309  1
  O  O264  1  0.49665266  0.75667624  0.36500405  1
  O  O265  1  0.50489257  0.75721992  0.86988446  1
  O  O266  1  0.24572504  0.12596357  0.49244516  1
  O  O267  1  0.24766095  0.12099508  0.98483239  1
  O  O268  1  0.24614218  0.62502783  0.48618541  1
  O  O269  1  0.24943137  0.63306657  0.98800577  1
  O  O270  1  0.74878812  0.12694404  0.48962912  1
  O  O271  1  0.74591706  0.13089199  0.99486018  1
  O  O272  1  0.75158078  0.63660916  0.49963481  1
  O  O273  1  0.74154204  0.63116963  0.99239015  1
  O  O274  1  0.25945236  0.37847788  0.01208216  1
  O  O275  1  0.25410482  0.37021348  0.51230589  1
  O  O276  1  0.25851957  0.86852989  0.00007934  1
  O  O277  1  0.26316668  0.87195125  0.49598613  1
  O  O278  1  0.75541648  0.36922919  0.00411667  1
  O  O279  1  0.75851789  0.37221498  0.50174376  1
  O  O280  1  0.75759684  0.86863883  -0.00008010  1
  O  O281  1  0.75484512  0.86802157  0.50573087  1
  O  O282  1  0.12978259  0.49240941  0.24414206  1
  O  O283  1  0.11769602  0.49461405  0.73642225  1
  O  O284  1  0.12409917  0.99075254  0.24448451  1
  O  O285  1  0.13889859  1.00340671  0.75276364  1
  O  O286  1  0.63083393  0.49775916  0.23895785  1
  O  O287  1  0.62885430  0.48994131  0.75148856  1
  O  O288  1  0.62523992  0.99796398  0.23702823  1
  O  O289  1  0.63172195  0.99467441  0.74656770  1
  O  O290  1  0.37246337  0.01389797  0.25077251  1
  O  O291  1  0.37171562  -0.00038330  0.76405665  1
  O  O292  1  0.36728965  0.50074623  0.25614966  1
  O  O293  1  0.37804737  0.49723269  0.76460701  1
  O  O294  1  0.87571381  0.00824153  0.25211285  1
  O  O295  1  0.86950301  0.00670216  0.75541865  1
  O  O296  1  0.86916092  0.50393038  0.25344893  1
  O  O297  1  0.87094058  0.50580644  0.75551433  1
  O  O298  1  0.12025334  0.37001153  0.37051651  1
  O  O299  1  0.12261498  0.37098597  0.87025046  1
  O  O300  1  0.12522634  0.86555444  0.36695815  1
  O  O301  1  0.12009503  0.86449788  0.87968831  1
  O  O302  1  0.61506161  0.36590935  0.37216492  1
  O  O303  1  0.61770453  0.37110571  0.86967618  1
  O  O304  1  0.61154535  0.86999571  0.37423823  1
  O  O305  1  0.62024979  0.87061958  0.87052888  1
  O  O306  1  0.38116388  0.13106637  0.12897901  1
  O  O307  1  0.38379910  0.13713767  0.62306154  1
  O  O308  1  0.37677994  0.63491019  0.12244892  1
  O  O309  1  0.37651113  0.63471387  0.62633805  1
  O  O310  1  0.88123229  0.13137309  0.13007795  1
  O  O311  1  0.88122313  0.13091554  0.63229342  1
  O  O312  1  0.87590111  0.63147593  0.13020867  1
  O  O313  1  0.88095170  0.62989261  0.63053569  1
  O  O314  1  0.25853487  0.26118995  0.13020156  1
  O  O315  1  0.25855290  0.25552537  0.62834187  1
  O  O316  1  0.26046027  0.75104774  0.11924880  1
  O  O317  1  0.26060465  0.74879779  0.62404853  1
  O  O318  1  0.75540961  0.25376627  0.11973500  1
  O  O319  1  0.75824499  0.25298831  0.62511254  1
  O  O320  1  0.75659416  0.75097662  0.11650818  1
  O  O321  1  0.75569281  0.75556702  0.61814773  1
  O  O322  1  0.24462519  0.23962309  0.37672787  1
  O  O323  1  0.24206059  0.24374510  0.86778579  1
  O  O324  1  0.24131275  0.73995231  0.37259048  1
  O  O325  1  0.24464598  0.74555546  0.87847004  1
  O  O326  1  0.74163461  0.23952759  0.37651810  1
  O  O327  1  0.74506127  0.24509738  0.88076442  1
  O  O328  1  0.74952600  0.74944082  0.38670696  1
  O  O329  1  0.74431467  0.74521722  0.87827828  1
  O  O330  1  0.00281190  0.11983538  0.00716996  1
  O  O331  1  0.00403034  0.11839273  0.50604221  1
  O  O332  1  0.00209137  0.61665236  0.00119968  1
  O  O333  1  0.00057456  0.61827999  0.50654418  1
  O  O334  1  0.50616014  0.12177819  0.00985285  1
  O  O335  1  0.50118505  0.12290909  0.51462063  1
  O  O336  1  0.51478593  0.62986989  -0.00103660  1
  O  O337  1  0.49649330  0.61012971  0.49871279  1
  O  O338  1  0.49257659  0.38137925  0.49140825  1
  O  O339  1  0.49130047  0.36758915  0.98853034  1
  O  O340  1  0.48920813  0.87313326  0.49100320  1
  O  O341  1  0.49596884  0.88182191  0.99330275  1
  O  O342  1  0.99462592  0.38027257  0.49393422  1
  O  O343  1  0.99303418  0.38134019  0.99370025  1
  O  O344  1  0.99350193  0.88476233  0.49971584  1
  O  O345  1  0.99456036  0.88195743  0.99148301  1
  O  O346  1  0.49342367  0.49021427  0.38146667  1
  O  O347  1  0.49255828  0.48679766  0.87198593  1
  O  O348  1  0.49721703  0.98797024  0.37541819  1
  O  O349  1  0.49539095  0.99862604  0.87930149  1
  O  O350  1  0.99469093  0.49380635  0.37901606  1
  O  O351  1  0.99550761  0.49554855  0.87858219  1
  O  O352  1  0.99845946  1.00061669  0.38843244  1
  O  O353  1  0.99576168  0.99765539  0.87869598  1
  O  O354  1  0.00626527  0.00634938  0.11920782  1
  O  O355  1  -0.00083573  0.00684097  0.61619091  1
  O  O356  1  0.00719249  0.49865337  0.11822467  1
  O  O357  1  0.00731544  0.50539734  0.61995107  1
  O  O358  1  0.50690343  0.00978313  0.11946841  1
  O  O359  1  0.50363300  0.01065149  0.63121938  1
  O  O360  1  0.51305810  0.49885116  0.12897073  1
  O  O361  1  0.49838318  0.49690851  0.61299666  1
  O  O362  1  0.24518285  0.37860501  0.24163289  1
  O  O363  1  0.24444988  0.37207176  0.73705942  1
  O  O364  1  0.23838371  0.87669249  0.24892957  1
  O  O365  1  0.25597860  0.89459157  0.75362003  1
  O  O366  1  0.74850414  0.38039938  0.24176262  1
  O  O367  1  0.73904226  0.38006744  0.75286480  1
  O  O368  1  0.74574658  0.87791783  0.24538720  1
  O  O369  1  0.74565492  0.88035345  0.74516206  1
  O  O370  1  0.25846930  0.12485883  0.25950973  1
  O  O371  1  0.25021161  0.11422632  0.76624528  1
  O  O372  1  0.25037711  0.61734430  0.25959280  1
  O  O373  1  0.25511626  0.62979344  0.76548675  1
  O  O374  1  0.75729217  0.12220510  0.25977580  1
  O  O375  1  0.75485490  0.12053853  0.75660487  1
  O  O376  1  0.75650285  0.61726788  0.25003423  1
  O  O377  1  0.75517597  0.62046824  0.75461136  1
  O  O378  1  0.36922020  0.12777509  0.36832200  1
  O  O379  1  0.37047123  0.11740699  0.88310230  1
  O  O380  1  0.36333768  0.61824210  0.37292739  1
  O  O381  1  0.36889217  0.61508174  0.87598566  1
  O  O382  1  0.86611141  0.12500607  0.36987466  1
  O  O383  1  0.87056369  0.12113738  0.87051432  1
  O  O384  1  0.87279076  0.61668242  0.36668572  1
  O  O385  1  0.87014037  0.62118750  0.86883634  1
  O  O386  1  0.13302156  0.37794476  0.12988133  1
  O  O387  1  0.13114227  0.38107595  0.62943931  1
  O  O388  1  0.12586057  0.87970962  0.13399512  1
  O  O389  1  0.13480009  0.88138418  0.61612031  1
  O  O390  1  0.62953270  0.38130089  0.12409859  1
  O  O391  1  0.62264832  0.37313511  0.63880501  1
  O  O392  1  0.62380894  0.88734729  0.12268788  1
  O  O393  1  0.62948870  0.88058703  0.63204472  1
  O  O394  1  0.11934986  0.25557058  0.25602363  1
  O  O395  1  0.11987235  0.25681822  0.75995207  1
  O  O396  1  0.12116044  0.75655199  0.25564954  1
  O  O397  1  0.11899448  0.74557638  0.76193990  1
  O  O398  1  0.62754997  0.25120826  0.26356564  1
  O  O399  1  0.61724725  0.25819211  0.75687370  1
  O  O400  1  0.61243293  0.75117475  0.24702787  1
  O  O401  1  0.62023583  0.75552255  0.75530300  1
  O  O402  1  0.37262482  0.23821904  0.23713471  1
  O  O403  1  0.38703391  0.25954635  0.74128611  1
  O  O404  1  0.38162158  0.74892642  0.23938008  1
  O  O405  1  0.38062622  0.75348670  0.74063966  1
  O  O406  1  0.88067395  0.24497343  0.24433403  1
  O  O407  1  0.88168719  0.24547287  0.74727974  1
  O  O408  1  0.88036029  0.74516026  0.24406007  1
  O  O409  1  0.88037195  0.74461103  0.74364262  1
  O  O410  1  0.38040518  0.49212074  0.49363843  1
  O  O411  1  0.37535207  0.48648218  0.99177186  1
  O  O412  1  0.37874291  0.98937492  0.49918341  1
  O  O413  1  0.38152668  0.99578159  0.99193422  1
  O  O414  1  0.88025101  0.49403532  0.49426367  1
  O  O415  1  0.87831945  0.49525328  0.99396365  1
  O  O416  1  0.88404558  0.99484068  0.50026461  1
  O  O417  1  0.88167616  0.99642135  0.99413957  1
  O  O418  1  0.11850346  0.00084374  0.00636156  1
  O  O419  1  0.11487230  0.00738121  0.50081226  1
  O  O420  1  0.11808728  0.49952127  0.00589701  1
  O  O421  1  0.11732487  0.49965649  0.51155754  1
  O  O422  1  0.61985304  0.00696181  0.00654440  1
  O  O423  1  0.61955214  0.00105723  0.51094333  1
  O  O424  1  0.63219533  0.50928368  0.00837983  1
  O  O425  1  0.61248899  0.49568998  0.50072783  1
  O  O426  1  0.37023272  0.36918184  0.12014525  1
  O  O427  1  0.36743378  0.36785382  0.62185242  1
  O  O428  1  0.37577594  0.86615531  0.11900575  1
  O  O429  1  0.37124652  0.86701972  0.61737214  1
  O  O430  1  0.86973377  0.36947419  0.11865785  1
  O  O431  1  0.87606245  0.36898263  0.61956641  1
  O  O432  1  0.87569985  0.86874178  0.11680532  1
  O  O433  1  0.86829273  0.86937957  0.61922364  1
  O  O434  1  0.13274741  0.13018296  0.38012868  1
  O  O435  1  0.13299494  0.13709874  0.87860798  1
  O  O436  1  0.13215566  0.63180394  0.37285116  1
  O  O437  1  0.13347575  0.63411863  0.87663334  1
  O  O438  1  0.63104238  0.13031936  0.37530857  1
  O  O439  1  0.63030865  0.13082931  0.88101910  1
  O  O440  1  0.62838141  0.62840410  0.38077215  1
  O  O441  1  0.62991424  0.62911737  0.88040209  1
