# generated using pymatgen
data_V93Zn93O256
_symmetry_space_group_name_H-M   'P 1'
_cell_length_a   17.06091685
_cell_length_b   17.05895361
_cell_length_c   17.06543042
_cell_angle_alpha   90.06499755
_cell_angle_beta   90.03056183
_cell_angle_gamma   89.96796042
_symmetry_Int_Tables_number   1
_chemical_formula_structural   V93Zn93O256
_chemical_formula_sum   'V93 Zn93 O256'
_cell_volume   4966.74189968
_cell_formula_units_Z   1
loop_
 _symmetry_equiv_pos_site_id
 _symmetry_equiv_pos_as_xyz
  1  'x, y, z'
loop_
 _atom_site_type_symbol
 _atom_site_label
 _atom_site_symmetry_multiplicity
 _atom_site_fract_x
 _atom_site_fract_y
 _atom_site_fract_z
 _atom_site_occupancy
  V  V0  1  0.62255780  0.62375079  0.50638053  1
  V  V1  1  0.36753739  0.87583562  0.00387430  1
  V  V2  1  0.62303025  0.37386643  0.75021154  1
  V  V3  1  0.74936131  0.25123526  0.49971867  1
  V  V4  1  0.00222083  0.12456158  0.12624044  1
  V  V5  1  0.25341799  0.12703141  0.38139902  1
  V  V6  1  0.87508084  0.50048619  0.37559000  1
  V  V7  1  0.00097013  0.24990715  0.25112102  1
  V  V8  1  0.00122921  0.75053806  0.25165215  1
  V  V9  1  0.25173170  0.12286797  0.87376369  1
  V  V10  1  0.75144332  0.87686464  0.62499810  1
  V  V11  1  0.62418156  0.87559926  0.75149114  1
  V  V12  1  0.62419821  0.00202731  0.62393759  1
  V  V13  1  0.87532887  0.87559483  0.49966188  1
  V  V14  1  -0.00117405  0.62519866  0.12531847  1
  V  V15  1  0.37680465  0.37607116  0.00048324  1
  V  V16  1  0.62469434  0.75112685  0.87557278  1
  V  V17  1  0.49877780  -0.00193648  -0.00236528  1
  V  V18  1  0.87618850  0.74981086  0.62528612  1
  V  V19  1  0.12363775  0.49922717  0.12575837  1
  V  V20  1  0.87502937  0.50044247  0.87617668  1
  V  V21  1  0.74964246  0.49991218  0.74999565  1
  V  V22  1  0.49511009  0.74258638  0.74598941  1
  V  V23  1  0.24964233  0.37318970  0.12573457  1
  V  V24  1  0.62448810  0.25145431  0.37461062  1
  V  V25  1  0.37204681  0.24768096  0.61952566  1
  V  V26  1  0.74693203  0.62664286  0.37687178  1
  V  V27  1  0.38001559  -0.01482346  0.37744603  1
  V  V28  1  0.49917167  -0.01276033  0.49540736  1
  V  V29  1  0.62566028  0.00072281  0.12420427  1
  V  V30  1  0.74865223  0.37616756  0.62541061  1
  V  V31  1  0.24775052  0.36905175  0.61992375  1
  V  V32  1  0.74993879  0.62565528  0.87571794  1
  V  V33  1  0.61778380  0.62176728  0.00048520  1
  V  V34  1  0.87551571  0.25090147  0.12541826  1
  V  V35  1  0.12243109  0.49997764  0.62475752  1
  V  V36  1  -0.00001985  0.37532304  0.37615237  1
  V  V37  1  0.12639326  0.75213313  0.37827438  1
  V  V38  1  0.87457108  0.00123683  0.87460479  1
  V  V39  1  0.24904817  0.62748194  0.87630800  1
  V  V40  1  0.87532066  0.87637319  -0.00075017  1
  V  V41  1  0.37713423  0.49970932  0.88013744  1
  V  V42  1  0.12674095  -0.00144006  0.62396208  1
  V  V43  1  0.87558370  0.75074209  0.12538330  1
  V  V44  1  0.00077124  0.00024882  0.49910293  1
  V  V45  1  0.74910195  0.75083801  0.00006981  1
  V  V46  1  0.87572262  0.24982918  0.62573709  1
  V  V47  1  0.87476675  0.37603745  0.00039034  1
  V  V48  1  0.74928652  0.24964414  -0.00034532  1
  V  V49  1  0.87466521  0.37590359  0.49987160  1
  V  V50  1  0.12692279  0.87340720  0.74873851  1
  V  V51  1  0.37307575  0.37186792  0.49957967  1
  V  V52  1  0.49933721  0.12643406  0.12490258  1
  V  V53  1  0.12469258  0.62546220  -0.00044536  1
  V  V54  1  0.12906158  0.24868459  0.37898760  1
  V  V55  1  0.36810046  0.75248898  0.12383444  1
  V  V56  1  0.25118227  -0.00755495  0.24832017  1
  V  V57  1  0.62567950  0.12657269  -0.00090355  1
  V  V58  1  0.49979899  0.37693065  0.87930194  1
  V  V59  1  0.87594792  0.12553521  0.25036189  1
  V  V60  1  0.75145882  0.00100594  0.24907950  1
  V  V61  1  0.75040583  0.12649879  0.37471124  1
  V  V62  1  0.24897966  0.49774635  0.75132549  1
  V  V63  1  0.25056877  0.24953574  0.00098145  1
  V  V64  1  0.50050156  0.37460634  0.37603462  1
  V  V65  1  0.12473663  0.37368586  0.25116536  1
  V  V66  1  0.12552489  0.12437350  0.00203902  1
  V  V67  1  0.62451569  0.37702409  0.25033233  1
  V  V68  1  0.49791378  0.50331522  0.50857444  1
  V  V69  1  0.12976972  -0.00694660  0.12655003  1
  V  V70  1  0.37515329  0.24897721  0.12596456  1
  V  V71  1  0.37402508  0.49810322  0.37368956  1
  V  V72  1  0.37631609  0.12377548  0.25112135  1
  V  V73  1  -0.00189721  0.50000269  0.00026475  1
  V  V74  1  0.87566094  0.12511423  0.74975741  1
  V  V75  1  0.62042170  0.87249224  0.25415333  1
  V  V76  1  0.37631728  0.12489606  0.74934198  1
  V  V77  1  0.24923944  0.49801634  0.25076466  1
  V  V78  1  0.12305866  0.25179599  0.87365197  1
  V  V79  1  0.00090365  0.87545428  0.87384288  1
  V  V80  1  0.74979108  0.00157031  0.75009149  1
  V  V81  1  0.87653521  0.00002973  0.37532986  1
  V  V82  1  0.37662617  0.62114588  0.24542634  1
  V  V83  1  0.61717417  0.50052179  0.12195424  1
  V  V84  1  0.75079715  0.87616072  0.12427209  1
  V  V85  1  0.12903159  0.12707931  0.50045975  1
  V  V86  1  0.26237572  0.86738684  0.61830599  1
  V  V87  1  0.87463617  0.62586484  0.74943797  1
  V  V88  1  0.74903405  0.37691171  0.12593305  1
  V  V89  1  0.87374293  0.62568441  0.25161082  1
  V  V90  1  0.00121615  0.12542312  0.62543118  1
  V  V91  1  0.12644656  0.62744913  0.50088844  1
  V  V92  1  0.62346760  0.12515770  0.49984427  1
  Zn  Zn93  1  0.12722392  0.87140737  0.24779023  1
  Zn  Zn94  1  0.50016495  0.24975156  0.74917694  1
  Zn  Zn95  1  0.61980463  0.50329124  0.62898731  1
  Zn  Zn96  1  0.37515506  -0.00288257  0.87330162  1
  Zn  Zn97  1  0.24538889  0.75663120  0.00371551  1
  Zn  Zn98  1  0.25400527  -0.00300132  0.74683205  1
  Zn  Zn99  1  -0.00113140  0.50087492  0.50124748  1
  Zn  Zn100  1  0.49737400  0.87327067  0.87416599  1
  Zn  Zn101  1  0.49551438  0.75692616  0.24662152  1
  Zn  Zn102  1  0.49543608  0.62340424  0.11750700  1
  Zn  Zn103  1  0.12519782  0.75053004  0.87583739  1
  Zn  Zn104  1  0.00065160  0.00015627  0.00267936  1
  Zn  Zn105  1  0.50026134  0.24938857  0.25096561  1
  Zn  Zn106  1  0.62436222  0.24942706  0.87532860  1
  Zn  Zn107  1  0.00015687  0.62533288  0.62652937  1
  Zn  Zn108  1  0.12129425  0.37309034  0.74895429  1
  Zn  Zn109  1  0.74767869  0.50219215  0.24975520  1
  Zn  Zn110  1  0.74846472  0.75041049  0.50014609  1
  Zn  Zn111  1  -0.00018121  0.37526425  0.87381439  1
  Zn  Zn112  1  0.49882490  0.12475347  0.62344312  1
  Zn  Zn113  1  0.00164248  0.74748791  0.75063962  1
  Zn  Zn114  1  0.42977854  0.68894824  0.58236742  1
  Zn  Zn115  1  0.25085928  0.62543157  0.37524493  1
  Zn  Zn116  1  0.74929423  0.12772422  0.87424989  1
  Zn  Zn117  1  0.62006016  0.75962021  0.38312749  1
  Zn  Zn118  1  -0.00094455  0.25145279  0.75101403  1
  Zn  Zn119  1  0.00143100  0.87593948  0.37409474  1
  Zn  Zn120  1  0.37610644  0.62403884  0.74525120  1
  Zn  Zn121  1  0.27183598  0.75087913  0.49910153  1
  Zn  Zn122  1  0.18961723  0.18303665  0.19185513  1
  Zn  Zn123  1  0.18797127  0.18628119  0.68893881  1
  Zn  Zn124  1  0.18821994  0.68623043  0.18847175  1
  Zn  Zn125  1  0.19149976  0.68813451  0.68759530  1
  Zn  Zn126  1  0.68671477  0.18936641  0.18692567  1
  Zn  Zn127  1  0.68876243  0.18802704  0.68695913  1
  Zn  Zn128  1  0.68933739  0.68620120  0.18505193  1
  Zn  Zn129  1  0.68762511  0.68997426  0.68783655  1
  Zn  Zn130  1  0.31345630  0.31007309  0.31268805  1
  Zn  Zn131  1  0.31199351  0.31139189  0.81003277  1
  Zn  Zn132  1  0.31027867  0.80742007  0.31161230  1
  Zn  Zn133  1  0.31449988  0.81462152  0.81344858  1
  Zn  Zn134  1  0.81141165  0.31445275  0.31176800  1
  Zn  Zn135  1  0.81173890  0.31219901  0.81379486  1
  Zn  Zn136  1  0.81007320  0.81250854  0.31333447  1
  Zn  Zn137  1  0.81191833  0.81332615  0.81168014  1
  Zn  Zn138  1  0.18715081  0.43820144  0.43837940  1
  Zn  Zn139  1  0.18766633  0.43744808  0.93979083  1
  Zn  Zn140  1  0.19193156  0.93767314  0.43808441  1
  Zn  Zn141  1  0.18629058  0.94002223  0.93739893  1
  Zn  Zn142  1  0.68625058  0.44132487  0.43792537  1
  Zn  Zn143  1  0.68765639  0.43818465  0.93820331  1
  Zn  Zn144  1  0.68958479  0.94020228  0.43836352  1
  Zn  Zn145  1  0.68744608  0.93883469  0.93588159  1
  Zn  Zn146  1  0.31226560  0.06198060  0.06353313  1
  Zn  Zn147  1  0.31532106  0.05388467  0.56153867  1
  Zn  Zn148  1  0.30965459  0.56226470  0.06218560  1
  Zn  Zn149  1  0.30777263  0.55883853  0.56088571  1
  Zn  Zn150  1  0.81319723  0.06354912  0.06148168  1
  Zn  Zn151  1  0.81263842  0.06338215  0.56231781  1
  Zn  Zn152  1  0.80810189  0.56273183  0.06342765  1
  Zn  Zn153  1  0.81042054  0.56210811  0.56286755  1
  Zn  Zn154  1  0.43945253  0.43580192  0.18765441  1
  Zn  Zn155  1  0.43347853  0.43588304  0.69008797  1
  Zn  Zn156  1  0.43624924  0.93912937  0.18516213  1
  Zn  Zn157  1  0.44244274  0.93755457  0.68661261  1
  Zn  Zn158  1  0.93645950  0.43877917  0.18964884  1
  Zn  Zn159  1  0.93771267  0.43491416  0.69092557  1
  Zn  Zn160  1  0.94151485  0.93687645  0.18849252  1
  Zn  Zn161  1  0.93902364  0.93842218  0.68743203  1
  Zn  Zn162  1  0.06529309  0.06207643  0.31262751  1
  Zn  Zn163  1  0.06299576  0.06112933  0.81089374  1
  Zn  Zn164  1  0.06159742  0.56360296  0.31425634  1
  Zn  Zn165  1  0.06098152  0.56296041  0.81216103  1
  Zn  Zn166  1  0.56173718  0.06056317  0.31335575  1
  Zn  Zn167  1  0.56262765  0.06434036  0.81299832  1
  Zn  Zn168  1  0.56016740  0.56453039  0.31517543  1
  Zn  Zn169  1  0.56298042  0.56172094  0.81499130  1
  Zn  Zn170  1  0.43933440  0.18283610  0.43834222  1
  Zn  Zn171  1  0.43942816  0.19038736  0.93677257  1
  Zn  Zn172  1  0.44195105  0.69259992  0.41761798  1
  Zn  Zn173  1  0.43513150  0.69113370  0.93376739  1
  Zn  Zn174  1  0.93993575  0.18801215  0.43896167  1
  Zn  Zn175  1  0.93794744  0.18601515  0.93901287  1
  Zn  Zn176  1  0.94006230  0.68702858  0.43983367  1
  Zn  Zn177  1  0.93765974  0.68907179  0.93727798  1
  Zn  Zn178  1  0.06163157  0.31220416  0.06127198  1
  Zn  Zn179  1  0.06172960  0.31071553  0.56056495  1
  Zn  Zn180  1  0.06198770  0.81197977  0.06072857  1
  Zn  Zn181  1  0.06256801  0.81377489  0.56264708  1
  Zn  Zn182  1  0.56209870  0.31298066  0.06220293  1
  Zn  Zn183  1  0.55895810  0.31237981  0.56384058  1
  Zn  Zn184  1  0.55818359  0.81106269  0.06613234  1
  Zn  Zn185  1  0.56667260  0.81243517  0.56470557  1
  O  O186  1  0.12122261  0.11837838  0.12161291  1
  O  O187  1  0.12250291  0.11937184  0.62046548  1
  O  O188  1  0.11858694  0.61863154  0.12055089  1
  O  O189  1  0.12622461  0.61637826  0.61951226  1
  O  O190  1  0.61983046  0.11978473  0.11987276  1
  O  O191  1  0.62516341  0.11937811  0.61833545  1
  O  O192  1  0.62380865  0.61810529  0.11748456  1
  O  O193  1  0.63436767  0.62143406  0.61113095  1
  O  O194  1  0.37926968  0.37787446  0.37994067  1
  O  O195  1  0.37975788  0.37997573  0.87922731  1
  O  O196  1  0.37277617  0.88659666  0.36836136  1
  O  O197  1  0.37866628  0.87860397  0.88633583  1
  O  O198  1  0.87985990  0.37948048  0.37986790  1
  O  O199  1  0.87459331  0.38285325  0.88302708  1
  O  O200  1  0.87482712  0.88222678  0.38130236  1
  O  O201  1  0.88223677  0.88046333  0.87848118  1
  O  O202  1  0.25911061  0.00679457  0.36863098  1
  O  O203  1  0.25166234  0.01411972  0.87365458  1
  O  O204  1  0.25588148  0.49893607  0.36778901  1
  O  O205  1  0.25464120  0.50491539  0.86854153  1
  O  O206  1  0.75715811  0.00806143  0.36932122  1
  O  O207  1  0.75705612  0.00170552  0.86768135  1
  O  O208  1  0.75719120  0.50913252  0.37350798  1
  O  O209  1  0.75562409  0.50600741  0.86990039  1
  O  O210  1  0.24268175  0.49219482  0.12987811  1
  O  O211  1  0.24024125  0.49012420  0.63358472  1
  O  O212  1  0.24098225  1.00891567  0.13679484  1
  O  O213  1  0.24362445  0.98744024  0.62576233  1
  O  O214  1  0.73968861  0.49439820  0.12755710  1
  O  O215  1  0.74860267  0.49231544  0.63293570  1
  O  O216  1  0.74594575  0.99612308  0.12958037  1
  O  O217  1  0.74498373  0.99595991  0.63024699  1
  O  O218  1  0.00543655  0.36918297  0.25553747  1
  O  O219  1  0.00405955  0.36973378  0.75629568  1
  O  O220  1  0.00427702  0.86598680  0.25355714  1
  O  O221  1  0.00868592  0.87529702  0.75807751  1
  O  O222  1  0.50639663  0.37327400  0.25837133  1
  O  O223  1  0.50779072  0.37544903  0.75822956  1
  O  O224  1  0.51793693  0.87949816  0.24338782  1
  O  O225  1  0.50744830  0.86636778  0.75254472  1
  O  O226  1  0.49457839  0.12475422  0.24232041  1
  O  O227  1  0.48880549  0.12744950  0.74822648  1
  O  O228  1  0.48139504  0.61197300  0.24192385  1
  O  O229  1  0.50216828  0.63898254  0.75494627  1
  O  O230  1  0.99546504  0.13120140  0.24648630  1
  O  O231  1  0.99398710  0.12575936  0.74255359  1
  O  O232  1  0.99410517  0.63046070  0.24424858  1
  O  O233  1  0.99125240  0.62785702  0.74751196  1
  O  O234  1  0.36899057  0.25527238  0.00616664  1
  O  O235  1  0.37914922  0.25436017  0.51169665  1
  O  O236  1  0.37345316  0.75849083  0.00649739  1
  O  O237  1  0.38337727  0.74082116  0.49623400  1
  O  O238  1  0.87060780  0.25533720  0.00707509  1
  O  O239  1  0.86888778  0.25529042  0.50502316  1
  O  O240  1  0.86936482  0.75632558  0.00548568  1
  O  O241  1  0.87377006  0.75561905  0.50954094  1
  O  O242  1  0.12119287  0.24009255  0.49149578  1
  O  O243  1  0.13136468  0.24433044  0.99395765  1
  O  O244  1  0.12148617  0.74132801  0.49264093  1
  O  O245  1  0.12801719  0.74250218  0.99749492  1
  O  O246  1  0.63045116  0.24634673  0.49494770  1
  O  O247  1  0.63168486  0.24425842  1.00084408  1
  O  O248  1  0.62708762  0.73936381  0.49927226  1
  O  O249  1  0.63039425  0.74379511  0.99692574  1
  O  O250  1  0.49268573  0.24406904  0.12576511  1
  O  O251  1  0.48667991  0.24790199  0.62879774  1
  O  O252  1  0.48685186  0.74457348  0.12937945  1
  O  O253  1  0.50588690  0.75195124  0.64133264  1
  O  O254  1  0.99557607  0.24526459  0.13159016  1
  O  O255  1  0.99329001  0.24275637  0.62565439  1
  O  O256  1  0.99471871  0.74424053  0.13011906  1
  O  O257  1  0.98673876  0.75049920  0.62765621  1
  O  O258  1  0.00653497  0.25510975  0.36943990  1
  O  O259  1  0.01247897  0.24965520  0.87671865  1
  O  O260  1  0.00924407  0.74986804  0.36952162  1
  O  O261  1  0.00046151  0.76373826  0.87312789  1
  O  O262  1  0.50701780  0.25636173  0.37537501  1
  O  O263  1  0.50109778  0.26319295  0.87020209  1
  O  O264  1  0.51997537  0.72484573  0.34972514  1
  O  O265  1  0.50816664  0.75224571  0.86543483  1
  O  O266  1  0.24582279  0.11512337  0.48772257  1
  O  O267  1  0.24688771  0.13040943  0.99223237  1
  O  O268  1  0.23632846  0.62659044  0.49809298  1
  O  O269  1  0.24267556  0.62310855  0.98936367  1
  O  O270  1  0.74478754  0.13114897  0.49399360  1
  O  O271  1  0.74371002  0.13180237  1.00030383  1
  O  O272  1  0.74306599  0.62525295  0.49172872  1
  O  O273  1  0.74212884  0.63238231  0.99503073  1
  O  O274  1  0.25548430  0.36879034  0.00708565  1
  O  O275  1  0.25687363  0.38232612  0.51283096  1
  O  O276  1  0.26278391  0.87596108  -0.00529532  1
  O  O277  1  0.24754327  0.87189096  0.51484465  1
  O  O278  1  0.75546547  0.37042508  0.00668706  1
  O  O279  1  0.75441188  0.37042331  0.50464095  1
  O  O280  1  0.75530409  0.87058461  0.00479160  1
  O  O281  1  0.75676442  0.87475628  0.50705316  1
  O  O282  1  0.12832106  0.49360596  0.24519788  1
  O  O283  1  0.13363191  0.49865516  0.74296876  1
  O  O284  1  0.13416914  0.99952624  0.24373420  1
  O  O285  1  0.12758327  0.98964289  0.74371020  1
  O  O286  1  0.62558784  0.49558848  0.24105120  1
  O  O287  1  0.62979536  0.49091676  0.74963404  1
  O  O288  1  0.63203745  0.99295888  0.24421839  1
  O  O289  1  0.62921437  0.99636278  0.74450736  1
  O  O290  1  0.36992740  0.00454791  0.25571221  1
  O  O291  1  0.37501887  0.01213734  0.75215687  1
  O  O292  1  0.36745818  0.50168657  0.25215025  1
  O  O293  1  0.36296862  0.49649422  0.76184145  1
  O  O294  1  0.87115727  0.00633888  0.25439878  1
  O  O295  1  0.86975053  0.00527111  0.75410662  1
  O  O296  1  0.87312191  0.50828639  0.25686565  1
  O  O297  1  0.86889640  0.50565788  0.75595814  1
  O  O298  1  0.12091739  0.36954773  0.37053414  1
  O  O299  1  0.12670847  0.36265009  0.87613380  1
  O  O300  1  0.12442891  0.86317032  0.37583995  1
  O  O301  1  0.11832134  0.87625568  0.86732945  1
  O  O302  1  0.62085042  0.37114488  0.37067186  1
  O  O303  1  0.61622800  0.37777390  0.86789465  1
  O  O304  1  0.63480578  0.87668794  0.35776125  1
  O  O305  1  0.62429027  0.86882546  0.86920591  1
  O  O306  1  0.37953728  0.12985220  0.13054649  1
  O  O307  1  0.37007319  0.13180179  0.63241331  1
  O  O308  1  0.37471999  0.63009391  0.12781243  1
  O  O309  1  0.36942498  0.61352532  0.63433962  1
  O  O310  1  0.88107633  0.13087919  0.13118502  1
  O  O311  1  0.88078232  0.13019724  0.62931836  1
  O  O312  1  0.87876773  0.63100207  0.12999192  1
  O  O313  1  0.87405781  0.63387051  0.62992706  1
  O  O314  1  0.25458321  0.25353758  0.12121258  1
  O  O315  1  0.25722966  0.26062915  0.63110788  1
  O  O316  1  0.26277929  0.74527513  0.12261270  1
  O  O317  1  0.24845453  0.76353525  0.62351630  1
  O  O318  1  0.75642924  0.25641093  0.12023597  1
  O  O319  1  0.75572808  0.25633197  0.61840601  1
  O  O320  1  0.75742043  0.75583547  0.11896132  1
  O  O321  1  0.76095414  0.75773653  0.62501115  1
  O  O322  1  0.24490219  0.23558757  0.36820263  1
  O  O323  1  0.24354100  0.24164631  0.88000979  1
  O  O324  1  0.23935975  0.74671145  0.37933769  1
  O  O325  1  0.25059570  0.73628397  0.87522491  1
  O  O326  1  0.74519244  0.24577405  0.38043053  1
  O  O327  1  0.74714501  0.24905603  0.88491427  1
  O  O328  1  0.74514091  0.73850067  0.37695256  1
  O  O329  1  0.74511161  0.74539899  0.88042378  1
  O  O330  1  0.00735655  0.12305316  0.00840405  1
  O  O331  1  0.00674612  0.11918977  0.50611654  1
  O  O332  1  0.00390766  0.62016134  0.00592664  1
  O  O333  1  0.01207050  0.62087563  0.50491211  1
  O  O334  1  0.50375056  0.11795523  0.00500102  1
  O  O335  1  0.50907481  0.11653753  0.50231275  1
  O  O336  1  0.51457448  0.63075781  -0.00334488  1
  O  O337  1  0.50867801  0.61503687  0.49850103  1
  O  O338  1  0.49341175  0.38221239  0.49445694  1
  O  O339  1  0.49310728  0.37099133  0.98797868  1
  O  O340  1  0.51144442  0.88845347  0.50021764  1
  O  O341  1  0.49308766  0.88516875  1.00025723  1
  O  O342  1  0.99259037  0.37622451  0.49322324  1
  O  O343  1  0.99256524  0.38229465  0.99983004  1
  O  O344  1  0.99315913  0.88321976  0.49855470  1
  O  O345  1  0.99436010  0.87705897  0.99023689  1
  O  O346  1  0.49304955  0.49371516  0.38492264  1
  O  O347  1  0.48697680  0.49041860  0.86798554  1
  O  O348  1  0.49108885  1.00515699  0.38270426  1
  O  O349  1  0.49847587  1.00048744  0.88861965  1
  O  O350  1  0.99378865  0.49256579  0.37612011  1
  O  O351  1  0.99283961  0.50015584  0.88318672  1
  O  O352  1  0.99398996  1.00058076  0.38073466  1
  O  O353  1  0.99510121  0.98978933  0.87645026  1
  O  O354  1  0.01055258  0.00747047  0.12637102  1
  O  O355  1  0.00631705  0.00580552  0.61883559  1
  O  O356  1  0.00420130  0.50575801  0.12064435  1
  O  O357  1  0.01326596  0.49899979  0.62612639  1
  O  O358  1  0.50490882  0.00660495  0.11493800  1
  O  O359  1  0.50682638  0.00245739  0.61511434  1
  O  O360  1  0.51339342  0.49886944  0.12351485  1
  O  O361  1  0.49849528  0.49163646  0.61197122  1
  O  O362  1  0.24384289  0.37796166  0.24471242  1
  O  O363  1  0.24729831  0.38343335  0.74148584  1
  O  O364  1  0.24829744  0.88918974  0.25397396  1
  O  O365  1  0.24171523  0.87530942  0.74350797  1
  O  O366  1  0.74289933  0.37726876  0.24338193  1
  O  O367  1  0.74164453  0.38023287  0.74657613  1
  O  O368  1  0.74517175  0.88274975  0.24245615  1
  O  O369  1  0.74483014  0.88210102  0.74476201  1
  O  O370  1  0.25615989  0.11409356  0.26059993  1
  O  O371  1  0.25819851  0.12323955  0.75861045  1
  O  O372  1  0.25942168  0.61506657  0.24845860  1
  O  O373  1  0.24824824  0.61403360  0.76023273  1
  O  O374  1  0.75603781  0.12100998  0.25438511  1
  O  O375  1  0.75719222  0.11863444  0.75039375  1
  O  O376  1  0.75504922  0.62535799  0.25963237  1
  O  O377  1  0.75389161  0.61992208  0.75662528  1
  O  O378  1  0.36812424  0.11984988  0.36992337  1
  O  O379  1  0.36654953  0.12810766  0.86740925  1
  O  O380  1  0.37093691  0.61487550  0.36090737  1
  O  O381  1  0.36657658  0.61559738  0.87316679  1
  O  O382  1  0.87021003  0.12133677  0.36977208  1
  O  O383  1  0.87495787  0.11858676  0.86859950  1
  O  O384  1  0.86750563  0.62150282  0.37222996  1
  O  O385  1  0.86872345  0.62092044  0.87089927  1
  O  O386  1  0.12942843  0.37895243  0.13097760  1
  O  O387  1  0.13220383  0.38128786  0.62335724  1
  O  O388  1  0.12077137  0.88919723  0.12504652  1
  O  O389  1  0.12943257  0.87923460  0.63364565  1
  O  O390  1  0.62894859  0.38231312  0.12870324  1
  O  O391  1  0.62955060  0.37579386  0.63489886  1
  O  O392  1  0.63208561  0.88246369  0.13015135  1
  O  O393  1  0.63296137  0.88255380  0.63172661  1
  O  O394  1  0.12034549  0.25448399  0.25669368  1
  O  O395  1  0.12484359  0.24976490  0.76225710  1
  O  O396  1  0.12123118  0.74883967  0.25949455  1
  O  O397  1  0.12316233  0.76138112  0.75242704  1
  O  O398  1  0.62353670  0.25753782  0.25662571  1
  O  O399  1  0.62511479  0.26285509  0.75185462  1
  O  O400  1  0.63121115  0.76973352  0.24073436  1
  O  O401  1  0.61912251  0.75519250  0.75610695  1
  O  O402  1  0.37690468  0.24232063  0.24310451  1
  O  O403  1  0.37381980  0.24104258  0.74021564  1
  O  O404  1  0.37258557  0.73902244  0.24213956  1
  O  O405  1  0.39245568  0.74924532  0.75663373  1
  O  O406  1  0.88074507  0.24534976  0.24519386  1
  O  O407  1  0.87430255  0.24347280  0.74323279  1
  O  O408  1  0.88004025  0.74525659  0.24491758  1
  O  O409  1  0.87427492  0.74497520  0.74107457  1
  O  O410  1  0.38035730  0.49343338  0.49343274  1
  O  O411  1  0.36604880  0.49241325  0.98715777  1
  O  O412  1  0.38713117  1.00273703  0.48943302  1
  O  O413  1  0.38335184  0.99364321  1.00238012  1
  O  O414  1  0.87643205  0.49334748  0.49462418  1
  O  O415  1  0.87836921  0.49651705  0.99630979  1
  O  O416  1  0.88049869  0.99632697  0.49486838  1
  O  O417  1  0.87695762  0.99369192  0.99401696  1
  O  O418  1  0.12554821  0.00691242  0.01003255  1
  O  O419  1  0.12003795  0.00631538  0.50426513  1
  O  O420  1  0.11874968  0.50460327  0.00677839  1
  O  O421  1  0.12488698  0.50778470  0.50950775  1
  O  O422  1  0.61771646  0.00478736  0.00488702  1
  O  O423  1  0.62044226  0.00637060  0.50356331  1
  O  O424  1  0.63234909  0.51152242  0.00854099  1
  O  O425  1  0.61456435  0.50515784  0.50325733  1
  O  O426  1  0.36941294  0.36972634  0.12061598  1
  O  O427  1  0.36632396  0.36685753  0.62136266  1
  O  O428  1  0.38017711  0.86552738  0.11591116  1
  O  O429  1  0.35996344  0.87891253  0.63260929  1
  O  O430  1  0.87007092  0.37043117  0.12094280  1
  O  O431  1  0.86872535  0.36994229  0.62007298  1
  O  O432  1  0.87116625  0.87070472  0.11963949  1
  O  O433  1  0.87090658  0.86932387  0.62078575  1
  O  O434  1  0.13450958  0.12800382  0.37990073  1
  O  O435  1  0.13300047  0.13096291  0.87985612  1
  O  O436  1  0.12579879  0.63256335  0.38305629  1
  O  O437  1  0.13296263  0.62467365  0.88038952  1
  O  O438  1  0.63197518  0.13091919  0.37869769  1
  O  O439  1  0.62721711  0.12865182  0.88322570  1
  O  O440  1  0.63703545  0.61653187  0.38638826  1
  O  O441  1  0.63158118  0.62898836  0.88275125  1
