# generated using pymatgen
data_V93Zn93O256
_symmetry_space_group_name_H-M   'P 1'
_cell_length_a   17.05414044
_cell_length_b   17.05860418
_cell_length_c   17.05847220
_cell_angle_alpha   89.99247218
_cell_angle_beta   89.96299761
_cell_angle_gamma   90.07129483
_symmetry_Int_Tables_number   1
_chemical_formula_structural   V93Zn93O256
_chemical_formula_sum   'V93 Zn93 O256'
_cell_volume   4962.64293580
_cell_formula_units_Z   1
loop_
 _symmetry_equiv_pos_site_id
 _symmetry_equiv_pos_as_xyz
  1  'x, y, z'
loop_
 _atom_site_type_symbol
 _atom_site_label
 _atom_site_symmetry_multiplicity
 _atom_site_fract_x
 _atom_site_fract_y
 _atom_site_fract_z
 _atom_site_occupancy
  V  V0  1  0.37468370  0.50063490  0.37473328  1
  V  V1  1  0.87970078  0.24816899  0.12441467  1
  V  V2  1  0.50105109  0.75031625  0.75006044  1
  V  V3  1  0.24657222  0.62981525  0.88179515  1
  V  V4  1  0.00256468  0.37554664  0.87429062  1
  V  V5  1  0.87898038  0.24998850  0.62506101  1
  V  V6  1  0.12500917  0.00030887  0.62554879  1
  V  V7  1  0.12038019  0.12497198  0.00783497  1
  V  V8  1  0.63254671  0.62626151  0.49596077  1
  V  V9  1  0.37492117  0.62646308  0.24979388  1
  V  V10  1  -0.00203915  0.00417674  0.00847012  1
  V  V11  1  0.24712498  0.62459379  0.37875673  1
  V  V12  1  0.87169656  0.50453236  0.37632608  1
  V  V13  1  0.87364528  0.86979907  0.00443469  1
  V  V14  1  0.75207961  0.50480508  0.25206689  1
  V  V15  1  0.24685564  0.74618902  0.50044316  1
  V  V16  1  0.49752941  0.87391647  0.87890106  1
  V  V17  1  0.37395317  -0.00406304  0.88009481  1
  V  V18  1  -0.01788728  0.63111347  0.13187245  1
  V  V19  1  0.00047269  0.00165938  0.50129370  1
  V  V20  1  0.37533712  0.62415419  0.74937883  1
  V  V21  1  0.50013596  0.37466105  0.37449766  1
  V  V22  1  0.00079346  0.50164910  0.00229082  1
  V  V23  1  0.00634813  0.62448498  0.61808845  1
  V  V24  1  -0.00144060  0.87593436  0.37622094  1
  V  V25  1  0.37479355  0.74937568  0.62454685  1
  V  V26  1  0.87795549  0.12480283  0.24643417  1
  V  V27  1  0.74774779  0.00350478  0.24900787  1
  V  V28  1  0.62645283  0.37498034  0.74929291  1
  V  V29  1  0.62733208  0.49972988  0.62444589  1
  V  V30  1  0.24990815  0.87375505  0.62563379  1
  V  V31  1  0.50104418  0.62508095  0.62468189  1
  V  V32  1  0.62083629  0.87599556  0.24996048  1
  V  V33  1  0.50113846  0.24938410  0.74995040  1
  V  V34  1  0.50123519  0.50041128  0.49953290  1
  V  V35  1  0.62665370  0.37604915  0.24785094  1
  V  V36  1  0.49848008  0.87471711  0.37559291  1
  V  V37  1  0.24956018  0.49928684  0.25074051  1
  V  V38  1  0.62382409  0.62409315  -0.00133449  1
  V  V39  1  0.25030224  0.25014192  0.00094243  1
  V  V40  1  0.25088666  0.49903233  0.74904559  1
  V  V41  1  0.75168853  0.37497986  0.62423130  1
  V  V42  1  0.36938997  0.75245160  0.11225095  1
  V  V43  1  0.25006189  0.37632557  0.12437321  1
  V  V44  1  0.37571734  0.24908012  0.62585415  1
  V  V45  1  0.62460261  0.12447345  0.49945184  1
  V  V46  1  0.87674381  0.50093782  0.87505115  1
  V  V47  1  0.62526340  0.24994865  0.37510404  1
  V  V48  1  0.62569109  0.74984398  0.87503822  1
  V  V49  1  0.49970555  0.12507341  0.62486662  1
  V  V50  1  0.25007852  0.86964629  0.11289154  1
  V  V51  1  0.00135031  0.74832604  0.75337560  1
  V  V52  1  0.12687270  0.50394652  0.61806640  1
  V  V53  1  0.62524162  0.25059216  0.87474526  1
  V  V54  1  0.87577319  0.37413075  -0.00011407  1
  V  V55  1  0.75121543  0.25028297  0.00038659  1
  V  V56  1  0.37540776  0.37423175  -0.00000919  1
  V  V57  1  0.12520539  0.25162955  0.87531267  1
  V  V58  1  0.75310043  0.62520379  0.87406500  1
  V  V59  1  0.74972462  -0.00140359  0.74903052  1
  V  V60  1  -0.00123279  0.87529725  0.87630155  1
  V  V61  1  0.87376722  0.75053635  0.62346011  1
  V  V62  1  0.37592337  0.49905909  0.87511122  1
  V  V63  1  0.25019417  0.12415185  0.87608350  1
  V  V64  1  0.12450531  0.50469220  0.12638121  1
  V  V65  1  0.62442000  0.12505549  -0.00001810  1
  V  V66  1  0.75146060  0.24999364  0.50004744  1
  V  V67  1  0.62729520  0.74669025  0.37424181  1
  V  V68  1  0.12308140  0.74394213  0.37973908  1
  V  V69  1  0.25004100  0.12290497  0.37447060  1
  V  V70  1  0.24951619  -0.00291783  0.24969386  1
  V  V71  1  0.25068658  0.24900990  0.49984543  1
  V  V72  1  0.49873707  0.24824834  0.24876976  1
  V  V73  1  0.74928911  0.12541116  0.37353331  1
  V  V74  1  0.49743932  0.62591779  0.12403575  1
  V  V75  1  0.50054396  0.49919652  -0.00006472  1
  V  V76  1  0.87679197  0.12569021  0.75033328  1
  V  V77  1  0.12397436  0.87531836  0.75067059  1
  V  V78  1  0.25063390  0.37504227  0.62598665  1
  V  V79  1  0.62225781  -0.00040352  0.12424206  1
  V  V80  1  0.87415284  0.00070364  0.87595693  1
  V  V81  1  0.49755695  0.12432517  0.12546661  1
  V  V82  1  0.49868937  -0.00116314  0.50090423  1
  V  V83  1  0.00122145  0.24792545  0.24793575  1
  V  V84  1  0.12460076  0.25236939  0.37479955  1
  V  V85  1  0.62596893  -0.00099529  0.62614073  1
  V  V86  1  0.12336581  0.87045678  0.24872762  1
  V  V87  1  0.49738197  -0.00229078  -0.00018927  1
  V  V88  1  0.37439786  0.87429786  0.49960835  1
  V  V89  1  0.75056495  0.86940274  0.12387430  1
  V  V90  1  0.25027893  -0.00054560  0.75111684  1
  V  V91  1  0.37669827  0.37453530  0.50003852  1
  V  V92  1  0.75014152  0.12461845  0.87550422  1
  Zn  Zn93  1  0.12335463  0.37518890  0.24864211  1
  Zn  Zn94  1  0.00328352  0.12576717  0.62716486  1
  Zn  Zn95  1  -0.02126899  0.74845358  0.24870129  1
  Zn  Zn96  1  0.12221951  -0.00041758  0.12682836  1
  Zn  Zn97  1  0.00391984  0.24991642  0.74929400  1
  Zn  Zn98  1  0.74829057  0.87308444  0.62340330  1
  Zn  Zn99  1  0.87744480  0.62260864  0.74898370  1
  Zn  Zn100  1  0.37349157  0.24796844  0.12569618  1
  Zn  Zn101  1  0.50111941  0.37433040  0.87541040  1
  Zn  Zn102  1  0.12616082  0.63474475  0.00787433  1
  Zn  Zn103  1  0.75301363  0.74695060  0.00296581  1
  Zn  Zn104  1  0.12524831  0.12607190  0.50330050  1
  Zn  Zn105  1  0.37405393  -0.00180400  0.37533620  1
  Zn  Zn106  1  0.87442610  0.00376894  0.37767286  1
  Zn  Zn107  1  0.87056225  0.87833842  0.50140820  1
  Zn  Zn108  1  0.37381779  0.12431162  0.24792368  1
  Zn  Zn109  1  0.88013251  0.37500208  0.49957796  1
  Zn  Zn110  1  0.75348901  0.49966613  0.74855116  1
  Zn  Zn111  1  0.49603487  0.75176573  0.24839235  1
  Zn  Zn112  1  0.12507787  0.37401147  0.74890494  1
  Zn  Zn113  1  0.81214735  0.66858425  0.30783456  1
  Zn  Zn114  1  0.62659971  0.50121004  0.12467535  1
  Zn  Zn115  1  -0.00208738  0.37660953  0.37569050  1
  Zn  Zn116  1  0.75133209  0.37627323  0.12453361  1
  Zn  Zn117  1  0.13450029  0.75795516  0.88345846  1
  Zn  Zn118  1  0.75337860  0.75147172  0.49537283  1
  Zn  Zn119  1  0.62686570  0.87467228  0.74922994  1
  Zn  Zn120  1  0.00469252  0.50053015  0.49456949  1
  Zn  Zn121  1  0.37558352  0.12424707  0.75089153  1
  Zn  Zn122  1  0.18834265  0.18765035  0.18743376  1
  Zn  Zn123  1  0.18780101  0.18637402  0.68940277  1
  Zn  Zn124  1  0.18803447  0.68911899  0.19118467  1
  Zn  Zn125  1  0.18714413  0.68644346  0.69151933  1
  Zn  Zn126  1  0.68812247  0.18908719  0.18524470  1
  Zn  Zn127  1  0.68927353  0.18653978  0.68748631  1
  Zn  Zn128  1  0.68014227  0.68890112  0.18518743  1
  Zn  Zn129  1  0.68788827  0.68616898  0.68859716  1
  Zn  Zn130  1  0.31300210  0.31267539  0.31009893  1
  Zn  Zn131  1  0.31335193  0.31212389  0.81309137  1
  Zn  Zn132  1  0.31185723  0.80997566  0.31015699  1
  Zn  Zn133  1  0.31527462  0.81281362  0.81227170  1
  Zn  Zn134  1  0.81353812  0.31635812  0.31417068  1
  Zn  Zn135  1  0.81389909  0.31361194  0.81135882  1
  Zn  Zn136  1  0.80962175  0.82910079  0.31372194  1
  Zn  Zn137  1  0.81382655  0.81280850  0.81172337  1
  Zn  Zn138  1  0.18922735  0.43511604  0.43834385  1
  Zn  Zn139  1  0.18757733  0.44095865  0.93903910  1
  Zn  Zn140  1  0.18501436  0.93450811  0.43876428  1
  Zn  Zn141  1  0.18241014  0.94120881  0.93667701  1
  Zn  Zn142  1  0.69101461  0.43752255  0.43744430  1
  Zn  Zn143  1  0.68864532  0.43777314  0.93678990  1
  Zn  Zn144  1  0.68745064  0.93596354  0.43871418  1
  Zn  Zn145  1  0.68574233  0.93646540  0.93692166  1
  Zn  Zn146  1  0.30987777  0.06013025  0.06382213  1
  Zn  Zn147  1  0.31255052  0.06217539  0.56264243  1
  Zn  Zn148  1  0.31462539  0.56225714  0.06268865  1
  Zn  Zn149  1  0.31250747  0.56302560  0.56115258  1
  Zn  Zn150  1  0.81107746  0.06094697  0.06390009  1
  Zn  Zn151  1  0.81323816  0.06368368  0.56348626  1
  Zn  Zn152  1  0.80879916  0.55883355  0.06218852  1
  Zn  Zn153  1  0.81606355  0.56407793  0.56222726  1
  Zn  Zn154  1  0.43750253  0.43800179  0.18575954  1
  Zn  Zn155  1  0.43955461  0.43645889  0.68817919  1
  Zn  Zn156  1  0.43252356  0.93460595  0.18607417  1
  Zn  Zn157  1  0.43778586  0.93699528  0.69054438  1
  Zn  Zn158  1  0.93711112  0.43684641  0.19049585  1
  Zn  Zn159  1  0.94048318  0.43762145  0.68900498  1
  Zn  Zn160  1  0.93489799  0.93612131  0.18884043  1
  Zn  Zn161  1  0.93644357  0.93651479  0.68748775  1
  Zn  Zn162  1  0.06383445  0.06291462  0.31257407  1
  Zn  Zn163  1  0.06177268  0.06363255  0.81585735  1
  Zn  Zn164  1  0.05816061  0.56337616  0.30917101  1
  Zn  Zn165  1  0.06502073  0.56009353  0.80795649  1
  Zn  Zn166  1  0.56060905  0.06149687  0.31279251  1
  Zn  Zn167  1  0.56240152  0.06274776  0.81156189  1
  Zn  Zn168  1  0.56176849  0.56319645  0.31092829  1
  Zn  Zn169  1  0.56412292  0.56119488  0.81213633  1
  Zn  Zn170  1  0.43644525  0.18624491  0.43611197  1
  Zn  Zn171  1  0.43655956  0.18622822  0.93720565  1
  Zn  Zn172  1  0.43863090  0.68770418  0.43750348  1
  Zn  Zn173  1  0.43667833  0.68580162  0.93637591  1
  Zn  Zn174  1  0.93851000  0.18606921  0.43671273  1
  Zn  Zn175  1  0.93957894  0.18790482  0.93640393  1
  Zn  Zn176  1  0.94068864  0.68804642  0.44051003  1
  Zn  Zn177  1  0.94168067  0.68684207  0.94257047  1
  Zn  Zn178  1  0.06300967  0.31434644  0.06216562  1
  Zn  Zn179  1  0.06293802  0.31777019  0.55994373  1
  Zn  Zn180  1  0.06080747  0.80983903  0.06245049  1
  Zn  Zn181  1  0.06138645  0.81346977  0.56273232  1
  Zn  Zn182  1  0.56094011  0.31178365  0.06307533  1
  Zn  Zn183  1  0.56377546  0.31205540  0.56298758  1
  Zn  Zn184  1  0.56063658  0.80939808  0.06161894  1
  Zn  Zn185  1  0.56401814  0.81271887  0.56191041  1
  O  O186  1  0.12956091  0.12280707  0.11116831  1
  O  O187  1  0.12387144  0.11649388  0.62315200  1
  O  O188  1  0.12373032  0.61359025  0.12781452  1
  O  O189  1  0.11825446  0.61597406  0.63182030  1
  O  O190  1  0.61929725  0.11926333  0.11927760  1
  O  O191  1  0.61958221  0.12056657  0.61818228  1
  O  O192  1  0.61558450  0.62421806  0.11596943  1
  O  O193  1  0.61951200  0.62053404  0.61704464  1
  O  O194  1  0.38018472  0.38035366  0.38054953  1
  O  O195  1  0.37674984  0.38160230  0.88195870  1
  O  O196  1  0.37957602  0.87381700  0.38214556  1
  O  O197  1  0.38483213  0.88412800  0.87074153  1
  O  O198  1  0.87646517  0.38605664  0.37851117  1
  O  O199  1  0.88157613  0.37978062  0.88100734  1
  O  O200  1  0.88795652  0.88314948  0.37812540  1
  O  O201  1  0.87853444  0.88221872  0.88415930  1
  O  O202  1  0.24609687  0.00678859  0.36801177  1
  O  O203  1  0.25692063  0.00253379  0.87164165  1
  O  O204  1  0.25502056  0.50408414  0.37125434  1
  O  O205  1  0.25647290  0.50828353  0.86895412  1
  O  O206  1  0.74964329  0.00712022  0.36710807  1
  O  O207  1  0.75457967  0.00593652  0.87076509  1
  O  O208  1  0.76108847  0.49706959  0.36718222  1
  O  O209  1  0.75714147  0.50986249  0.87503281  1
  O  O210  1  0.24289050  0.49697345  0.12997556  1
  O  O211  1  0.24591554  0.49594167  0.62884456  1
  O  O212  1  0.24704131  0.99007726  0.13538296  1
  O  O213  1  0.24583553  0.99309966  0.63064430  1
  O  O214  1  0.74704236  0.49432920  0.13573317  1
  O  O215  1  0.74511123  0.49416662  0.62519599  1
  O  O216  1  0.74096473  0.99334947  0.12941682  1
  O  O217  1  0.74380114  1.00123886  0.63168086  1
  O  O218  1  0.00171646  0.36021189  0.25368300  1
  O  O219  1  0.00389471  0.37199436  0.75994438  1
  O  O220  1  0.00681051  0.87487517  0.25824744  1
  O  O221  1  0.00422578  0.86793803  0.75547352  1
  O  O222  1  0.50761368  0.37085485  0.25530678  1
  O  O223  1  0.50832853  0.36738539  0.75078353  1
  O  O224  1  0.50478666  0.87622969  0.25658223  1
  O  O225  1  0.50147496  0.86866949  0.76134398  1
  O  O226  1  0.49880094  0.12988478  0.24404198  1
  O  O227  1  0.49928376  0.13149825  0.74240712  1
  O  O228  1  0.49240572  0.62463638  0.24201488  1
  O  O229  1  0.49519582  0.62994889  0.74466653  1
  O  O230  1  0.98968164  0.13483238  0.25547687  1
  O  O231  1  0.99198885  0.12762771  0.74944540  1
  O  O232  1  0.99811720  0.62637300  0.23540906  1
  O  O233  1  1.00096636  0.63506502  0.74304468  1
  O  O234  1  0.36781907  0.25569896  0.00073130  1
  O  O235  1  0.37105813  0.25536756  0.50501534  1
  O  O236  1  0.37579518  0.74420089  0.01309116  1
  O  O237  1  0.36927118  0.75493346  0.50643801  1
  O  O238  1  0.87213581  0.25270135  0.00734849  1
  O  O239  1  0.86978020  0.24757987  0.50931372  1
  O  O240  1  0.87437025  0.76669756  -0.00373708  1
  O  O241  1  0.87456855  0.75104062  0.51065617  1
  O  O242  1  0.13202426  0.24880672  0.49057016  1
  O  O243  1  0.12935393  0.24312069  0.99597492  1
  O  O244  1  0.13098277  0.75811076  0.48772728  1
  O  O245  1  0.11594929  0.74480814  0.99209500  1
  O  O246  1  0.63028684  0.24384717  0.49454503  1
  O  O247  1  0.63089626  0.24476783  0.99545645  1
  O  O248  1  0.62457382  0.74198568  0.49174846  1
  O  O249  1  0.62620604  0.74203161  0.99159878  1
  O  O250  1  0.49900073  0.24174333  0.13107774  1
  O  O251  1  0.49551249  0.24454193  0.62909635  1
  O  O252  1  0.48949863  0.74462840  0.12657903  1
  O  O253  1  0.49454508  0.74473529  0.62963600  1
  O  O254  1  0.99008876  0.25367715  0.13337062  1
  O  O255  1  0.99035872  0.24913070  0.62488446  1
  O  O256  1  1.00040807  0.73426202  0.12816079  1
  O  O257  1  0.99673121  0.74367947  0.63227268  1
  O  O258  1  0.01014240  0.24845969  0.36743245  1
  O  O259  1  0.00742197  0.25802422  0.87608044  1
  O  O260  1  0.00725506  0.75906987  0.37553238  1
  O  O261  1  -0.00348206  0.75553535  0.86384489  1
  O  O262  1  0.50563558  0.25487567  0.37014982  1
  O  O263  1  0.50770308  0.24968085  0.86883398  1
  O  O264  1  0.50877903  0.75718033  0.37404949  1
  O  O265  1  0.50302195  0.75624180  0.87055270  1
  O  O266  1  0.24894648  0.12987232  0.49047151  1
  O  O267  1  0.24126359  0.12867315  0.99507400  1
  O  O268  1  0.25613658  0.63348708  0.49141878  1
  O  O269  1  0.25027388  0.61891951  0.98405559  1
  O  O270  1  0.74409470  0.12983085  0.49357183  1
  O  O271  1  0.74437594  0.12972888  0.99524394  1
  O  O272  1  0.73515071  0.62716818  0.50372458  1
  O  O273  1  0.74476014  0.62628382  0.99110573  1
  O  O274  1  0.25520388  0.37064843  0.00495689  1
  O  O275  1  0.25816808  0.36820217  0.50536119  1
  O  O276  1  0.24022504  0.88179362  0.01491425  1
  O  O277  1  0.25465198  0.86796480  0.50643023  1
  O  O278  1  0.75769976  0.36774220  0.00026652  1
  O  O279  1  0.75082542  0.36627349  0.50719246  1
  O  O280  1  0.75660908  0.87650368  0.00742076  1
  O  O281  1  0.75317306  0.87031737  0.50393548  1
  O  O282  1  0.13065740  0.49763672  0.24255809  1
  O  O283  1  0.13381515  0.49631771  0.73861229  1
  O  O284  1  0.13098063  0.99023334  0.24908432  1
  O  O285  1  0.13006973  0.99439930  0.74642165  1
  O  O286  1  0.63131900  0.48965617  0.25252364  1
  O  O287  1  0.62717814  0.49378976  0.74187993  1
  O  O288  1  0.62837337  0.99601447  0.24377781  1
  O  O289  1  0.63201641  1.00106114  0.74377771  1
  O  O290  1  0.36035728  -0.00062320  0.25415366  1
  O  O291  1  0.36878586  0.00085109  0.76097221  1
  O  O292  1  0.36942027  0.50496061  0.25595601  1
  O  O293  1  0.37173434  0.50498778  0.75409461  1
  O  O294  1  0.86879545  0.01092321  0.24961706  1
  O  O295  1  0.87044642  0.00541441  0.75619183  1
  O  O296  1  0.86388864  0.49398487  0.26186561  1
  O  O297  1  0.87414327  0.50280831  0.75916190  1
  O  O298  1  0.12769870  0.36150242  0.37141235  1
  O  O299  1  0.12024857  0.36977086  0.87691401  1
  O  O300  1  0.11671934  0.86775316  0.36779441  1
  O  O301  1  0.11723425  0.87638488  0.86777040  1
  O  O302  1  0.61985408  0.36977406  0.36766573  1
  O  O303  1  0.62522475  0.36768338  0.86823412  1
  O  O304  1  0.61855285  0.86734006  0.37025402  1
  O  O305  1  0.61575906  0.86910721  0.87215404  1
  O  O306  1  0.38161716  0.12549079  0.12680466  1
  O  O307  1  0.38131079  0.13137398  0.62611108  1
  O  O308  1  0.37718674  0.63185185  0.13043282  1
  O  O309  1  0.38131952  0.62971858  0.62959383  1
  O  O310  1  0.86854748  0.13530537  0.13558357  1
  O  O311  1  0.87638150  0.13515808  0.63154746  1
  O  O312  1  0.88373081  0.62075492  0.12351387  1
  O  O313  1  0.88595707  0.63265466  0.62778533  1
  O  O314  1  0.24955144  0.25763744  0.11854363  1
  O  O315  1  0.25572665  0.25421287  0.61963698  1
  O  O316  1  0.25678771  0.75859214  0.13162882  1
  O  O317  1  0.25450204  0.75412090  0.62184723  1
  O  O318  1  0.76075635  0.25286571  0.11911138  1
  O  O319  1  0.75901521  0.25366003  0.61981998  1
  O  O320  1  0.74085206  0.76614198  0.12301964  1
  O  O321  1  0.76351242  0.74787614  0.62700102  1
  O  O322  1  0.24385305  0.24250377  0.37773529  1
  O  O323  1  0.24545545  0.24442129  0.88188713  1
  O  O324  1  0.24141341  0.74504956  0.38006601  1
  O  O325  1  0.25257152  0.73357794  0.86735254  1
  O  O326  1  0.74451984  0.24481769  0.37940791  1
  O  O327  1  0.74590503  0.24389658  0.88069959  1
  O  O328  1  0.73549582  0.75099559  0.37277531  1
  O  O329  1  0.74582972  0.74104011  0.87638903  1
  O  O330  1  0.00830950  0.11554204  -0.00587974  1
  O  O331  1  0.00399000  0.11311528  0.50002672  1
  O  O332  1  0.00048977  0.61783717  0.01463969  1
  O  O333  1  0.00086359  0.62183448  0.51449840  1
  O  O334  1  0.50590097  0.11846602  0.00480814  1
  O  O335  1  0.50483230  0.11970880  0.50442897  1
  O  O336  1  0.50420001  0.61834440  0.00356849  1
  O  O337  1  0.50744519  0.61921371  0.50581921  1
  O  O338  1  0.49658069  0.37998782  0.49428620  1
  O  O339  1  0.49426492  0.38085400  0.99860999  1
  O  O340  1  0.49395221  0.87986919  0.49576053  1
  O  O341  1  0.50580876  0.88129246  0.98658635  1
  O  O342  1  0.99791698  0.38224314  0.49424071  1
  O  O343  1  0.99480930  0.38158890  0.99487397  1
  O  O344  1  1.00046164  0.88409789  0.49106332  1
  O  O345  1  0.99106814  0.88390129  0.99664249  1
  O  O346  1  0.49422713  0.49412936  0.37984855  1
  O  O347  1  0.49357107  0.49929196  0.88120810  1
  O  O348  1  0.49797683  0.99361700  0.38307453  1
  O  O349  1  0.49323196  0.99351975  0.87844844  1
  O  O350  1  0.98716824  0.49921901  0.37270076  1
  O  O351  1  0.99715727  0.49686477  0.88142946  1
  O  O352  1  1.00314363  0.99208865  0.38317544  1
  O  O353  1  0.99329966  0.99422938  0.88451582  1
  O  O354  1  0.00049493  -0.00544694  0.11231166  1
  O  O355  1  0.00603423  -0.00128904  0.61654334  1
  O  O356  1  0.00613289  0.50795401  0.12418256  1
  O  O357  1  0.00967092  0.50847225  0.62619463  1
  O  O358  1  0.50296949  0.00293711  0.11939173  1
  O  O359  1  0.50438065  0.00534518  0.62053419  1
  O  O360  1  0.50105538  0.50754343  0.11762820  1
  O  O361  1  0.50645752  0.50505239  0.61882072  1
  O  O362  1  0.24873714  0.38184448  0.24289067  1
  O  O363  1  0.25200645  0.38171125  0.74288725  1
  O  O364  1  0.23936704  0.88191847  0.24917375  1
  O  O365  1  0.24480340  0.87933918  0.74532950  1
  O  O366  1  0.73929702  0.38159322  0.25053100  1
  O  O367  1  0.74373692  0.37592695  0.74243362  1
  O  O368  1  0.74063618  0.88530686  0.24151332  1
  O  O369  1  0.74885387  0.88399464  0.74793297  1
  O  O370  1  0.24731726  0.11431817  0.25692476  1
  O  O371  1  0.25140073  0.11664429  0.75842535  1
  O  O372  1  0.25545381  0.61803644  0.25861021  1
  O  O373  1  0.25751154  0.61801188  0.75661728  1
  O  O374  1  0.75645157  0.12256910  0.25390843  1
  O  O375  1  0.75645958  0.11950473  0.75673041  1
  O  O376  1  0.73786291  0.61037810  0.24633417  1
  O  O377  1  0.75292897  0.62306721  0.76326084  1
  O  O378  1  0.36105749  0.12262980  0.37242093  1
  O  O379  1  0.36893799  0.11453599  0.87322157  1
  O  O380  1  0.37012290  0.61907512  0.37044473  1
  O  O381  1  0.36659160  0.61925008  0.86888609  1
  O  O382  1  0.86799978  0.12613072  0.36304455  1
  O  O383  1  0.86897071  0.12052575  0.87123071  1
  O  O384  1  0.87704410  0.61076613  0.38053630  1
  O  O385  1  0.86783094  0.62042500  0.87769660  1
  O  O386  1  0.13007560  0.38751409  0.12511676  1
  O  O387  1  0.13395227  0.38339293  0.62665647  1
  O  O388  1  0.13012111  0.87268252  0.13685121  1
  O  O389  1  0.13077804  0.87965896  0.63151811  1
  O  O390  1  0.62517979  0.37537372  0.13808394  1
  O  O391  1  0.63134184  0.37997918  0.62890753  1
  O  O392  1  0.62901900  0.88110746  0.12880882  1
  O  O393  1  0.62553905  0.88325007  0.62850871  1
  O  O394  1  0.11703042  0.24849173  0.25626563  1
  O  O395  1  0.12512128  0.25247253  0.75984468  1
  O  O396  1  0.12407484  0.76045355  0.26139908  1
  O  O397  1  0.11540414  0.75661003  0.75330653  1
  O  O398  1  0.62071068  0.25753719  0.25527114  1
  O  O399  1  0.62126053  0.25441189  0.75464460  1
  O  O400  1  0.61992437  0.75668037  0.25857071  1
  O  O401  1  0.61763997  0.74953246  0.75681116  1
  O  O402  1  0.38320872  0.24704454  0.24754419  1
  O  O403  1  0.38198527  0.24833640  0.74340369  1
  O  O404  1  0.37581585  0.74142396  0.24327121  1
  O  O405  1  0.38149981  0.74425221  0.74318766  1
  O  O406  1  0.88080928  0.24424450  0.24378573  1
  O  O407  1  0.87544593  0.24440738  0.74007232  1
  O  O408  1  0.86737152  0.75154979  0.25978814  1
  O  O409  1  0.88686684  0.74920163  0.74220716  1
  O  O410  1  0.38144395  0.49406637  0.49472688  1
  O  O411  1  0.38068227  0.49415306  0.99464560  1
  O  O412  1  0.38026356  0.99201548  0.49914086  1
  O  O413  1  0.38002369  1.00411119  0.98722702  1
  O  O414  1  0.87358852  0.49793662  0.48661382  1
  O  O415  1  0.88080780  0.49292848  0.99501934  1
  O  O416  1  0.88715679  1.00068575  0.49903626  1
  O  O417  1  0.88037135  0.99518086  0.99589194  1
  O  O418  1  0.11442958  0.00858279  0.00140232  1
  O  O419  1  0.11701070  -0.00078554  0.50675733  1
  O  O420  1  0.11925699  0.50447665  0.01124712  1
  O  O421  1  0.12808312  0.49716122  0.51402273  1
  O  O422  1  0.61812848  0.00590396  0.00429855  1
  O  O423  1  0.61849075  0.00599968  0.50545618  1
  O  O424  1  0.61910090  0.50568728  0.00072902  1
  O  O425  1  0.62049885  0.50690559  0.50278672  1
  O  O426  1  0.36771850  0.37443936  0.11742919  1
  O  O427  1  0.37136979  0.36949203  0.61870920  1
  O  O428  1  0.36240543  0.86441988  0.13020111  1
  O  O429  1  0.36966730  0.86872061  0.62086795  1
  O  O430  1  0.87512359  0.36453107  0.11920868  1
  O  O431  1  0.87062219  0.36540261  0.62453015  1
  O  O432  1  0.86166161  0.88374173  0.11633492  1
  O  O433  1  0.87628770  0.86220449  0.62352026  1
  O  O434  1  0.13506788  0.13464000  0.37524185  1
  O  O435  1  0.13093412  0.13019471  0.88535670  1
  O  O436  1  0.12877632  0.63748212  0.36702938  1
  O  O437  1  0.14154224  0.62222041  0.87221285  1
  O  O438  1  0.62923362  0.13082612  0.37976530  1
  O  O439  1  0.63063978  0.13019070  0.88083252  1
  O  O440  1  0.61578769  0.63507324  0.38411405  1
  O  O441  1  0.63350614  0.62909410  0.87905790  1
