# generated using pymatgen
data_V93Zn93O256
_symmetry_space_group_name_H-M   'P 1'
_cell_length_a   17.05158379
_cell_length_b   17.05747316
_cell_length_c   17.05000539
_cell_angle_alpha   89.98617532
_cell_angle_beta   90.00892141
_cell_angle_gamma   89.95814495
_symmetry_Int_Tables_number   1
_chemical_formula_structural   V93Zn93O256
_chemical_formula_sum   'V93 Zn93 O256'
_cell_volume   4959.11074733
_cell_formula_units_Z   1
loop_
 _symmetry_equiv_pos_site_id
 _symmetry_equiv_pos_as_xyz
  1  'x, y, z'
loop_
 _atom_site_type_symbol
 _atom_site_label
 _atom_site_symmetry_multiplicity
 _atom_site_fract_x
 _atom_site_fract_y
 _atom_site_fract_z
 _atom_site_occupancy
  V  V0  1  0.50073599  0.87695503  0.37878832  1
  V  V1  1  0.25083688  -0.00016213  0.25009138  1
  V  V2  1  0.25018696  0.24911005  0.00087139  1
  V  V3  1  0.12331607  0.62420451  0.49899923  1
  V  V4  1  0.37598656  0.75100362  0.12572310  1
  V  V5  1  0.50127550  0.75041001  0.25074636  1
  V  V6  1  0.25011337  0.87569227  0.12504067  1
  V  V7  1  0.50479641  0.75825792  0.75005514  1
  V  V8  1  0.74327553  -0.00522810  0.75022110  1
  V  V9  1  0.75511846  0.49974079  0.25689365  1
  V  V10  1  0.62487952  0.37426055  0.25137192  1
  V  V11  1  0.25004610  0.75143947  0.50023854  1
  V  V12  1  0.62572799  0.25028481  0.37857695  1
  V  V13  1  0.62557376  0.87521262  0.25127969  1
  V  V14  1  0.37805763  0.87583898  -0.00377567  1
  V  V15  1  0.00117894  0.25141792  0.24929108  1
  V  V16  1  0.25087324  0.37496545  0.12591494  1
  V  V17  1  0.75203810  0.75019838  0.50049164  1
  V  V18  1  0.75058336  0.87383940  0.12579277  1
  V  V19  1  0.37736023  0.75201399  0.62525942  1
  V  V20  1  0.87670653  0.62066451  0.25538584  1
  V  V21  1  0.74878913  0.12448347  0.87454075  1
  V  V22  1  0.49687188  0.50079641  0.50218617  1
  V  V23  1  0.87487905  0.24997307  0.12347246  1
  V  V24  1  0.12379349  0.24747254  0.87436762  1
  V  V25  1  0.50038037  -0.00064653  -0.00040844  1
  V  V26  1  0.75003608  0.37585344  0.12435831  1
  V  V27  1  -0.01096212  0.49841478  0.49302778  1
  V  V28  1  0.00156307  0.12383152  0.62372536  1
  V  V29  1  0.12542590  0.75119985  0.37401127  1
  V  V30  1  0.50067690  0.50114697  0.00089447  1
  V  V31  1  0.75666252  0.49991737  0.75464417  1
  V  V32  1  0.24923133  0.74438473  -0.00332415  1
  V  V33  1  -0.00033830  -0.00134912  0.49903051  1
  V  V34  1  0.49713915  0.38023516  0.87488264  1
  V  V35  1  0.37562332  0.62587066  0.25274089  1
  V  V36  1  0.00002266  0.12497204  0.12466526  1
  V  V37  1  0.00457823  0.62524412  0.11997117  1
  V  V38  1  0.62402006  0.37577830  0.75165715  1
  V  V39  1  0.62353653  0.25121115  0.87595420  1
  V  V40  1  0.12556518  0.50175513  0.12203119  1
  V  V41  1  0.12232030  0.37315156  0.74762153  1
  V  V42  1  0.50220115  0.62492329  0.12607038  1
  V  V43  1  -0.00373437  0.50232046  -0.00539822  1
  V  V44  1  0.50064270  0.12635013  0.12615146  1
  V  V45  1  0.25120801  0.87589840  0.62494885  1
  V  V46  1  0.75257235  0.12818017  0.37990872  1
  V  V47  1  0.62152331  -0.00159394  0.62213308  1
  V  V48  1  0.37634977  0.12612779  0.25074190  1
  V  V49  1  0.49985467  0.62600562  0.63003217  1
  V  V50  1  0.24749056  0.37446200  0.62602813  1
  V  V51  1  0.37522412  0.37477897  0.00063452  1
  V  V52  1  0.37870476  0.87756757  0.49889980  1
  V  V53  1  -0.00078202  0.74986147  0.74898371  1
  V  V54  1  -0.00581015  0.37672171  0.87358228  1
  V  V55  1  0.24987053  0.50032192  0.25118955  1
  V  V56  1  0.12821834  0.74506240  0.87792593  1
  V  V57  1  0.62405429  0.49935986  0.62657453  1
  V  V58  1  0.25197278  0.00141925  0.75231557  1
  V  V59  1  0.75214189  0.36828268  0.62006049  1
  V  V60  1  0.75576861  0.62155037  0.87591824  1
  V  V61  1  0.87478458  -0.00107085  0.87496673  1
  V  V62  1  0.12457305  0.37511852  0.25015688  1
  V  V63  1  0.12589999  0.87533154  0.74898991  1
  V  V64  1  0.62736907  0.12653278  0.50146867  1
  V  V65  1  -0.00043357  0.87539181  0.87429704  1
  V  V66  1  0.12591553  0.12530983  -0.00065667  1
  V  V67  1  0.74975807  0.25046036  -0.00017674  1
  V  V68  1  0.87392580  0.12469384  0.74900212  1
  V  V69  1  0.75038272  0.00059705  0.25153776  1
  V  V70  1  0.00028448  -0.00054334  -0.00116268  1
  V  V71  1  -0.00696755  0.37955865  0.37175254  1
  V  V72  1  0.62548660  0.62503052  0.49963668  1
  V  V73  1  0.37943675  0.00074826  0.38023768  1
  V  V74  1  0.00143671  0.75112550  0.24967414  1
  V  V75  1  0.87436261  0.37790393  -0.00452653  1
  V  V76  1  0.25053651  0.62480049  0.37774343  1
  V  V77  1  0.87478148  0.12455532  0.25001977  1
  V  V78  1  0.37464219  0.50018263  0.37935111  1
  V  V79  1  0.74657667  0.87382131  0.62740713  1
  V  V80  1  -0.00341949  0.24874837  0.74831935  1
  V  V81  1  0.49958009  0.12383568  0.62255327  1
  V  V82  1  0.62713043  0.75682614  0.87038743  1
  V  V83  1  0.75121158  0.74979084  0.00141141  1
  V  V84  1  0.62480952  0.12489131  0.00055506  1
  V  V85  1  -0.00481506  0.62542209  0.62309788  1
  V  V86  1  0.37589773  0.25074000  0.62535920  1
  V  V87  1  0.12110172  0.49652464  0.62333364  1
  V  V88  1  0.12564208  -0.00046234  0.12518839  1
  V  V89  1  0.37381583  0.37763645  0.50198709  1
  V  V90  1  0.62684766  0.74960653  0.37546887  1
  V  V91  1  0.62568657  0.00045979  0.12602683  1
  V  V92  1  0.62513639  0.50058409  0.12626768  1
  Zn  Zn93  1  0.87561695  -0.00316742  0.37535691  1
  Zn  Zn94  1  0.12594583  0.24865152  0.37717252  1
  Zn  Zn95  1  0.50622311  0.87960626  0.86941841  1
  Zn  Zn96  1  -0.00051594  0.87614146  0.37608126  1
  Zn  Zn97  1  0.37649327  0.12555870  0.75190520  1
  Zn  Zn98  1  0.37621056  0.25076926  0.12653214  1
  Zn  Zn99  1  0.86603678  0.36954340  0.48818707  1
  Zn  Zn100  1  0.35833887  0.51349070  0.88140875  1
  Zn  Zn101  1  0.24493016  0.24763691  0.49765195  1
  Zn  Zn102  1  0.36371707  0.62752224  0.76069715  1
  Zn  Zn103  1  0.18110745  0.58135608  -0.05644685  1
  Zn  Zn104  1  0.12491027  0.87643748  0.25111624  1
  Zn  Zn105  1  0.75496854  0.62061352  0.37880644  1
  Zn  Zn106  1  0.37858078  0.00442184  0.87437291  1
  Zn  Zn107  1  0.87628261  0.87516127  0.00203423  1
  Zn  Zn108  1  0.24878939  0.12701069  0.37869402  1
  Zn  Zn109  1  0.87411490  0.75185257  0.62710485  1
  Zn  Zn110  1  0.87641301  0.62378554  0.75385551  1
  Zn  Zn111  1  0.49899412  0.25051373  0.75168796  1
  Zn  Zn112  1  0.87660456  0.75074875  0.12546942  1
  Zn  Zn113  1  0.62602318  0.62493205  0.00005598  1
  Zn  Zn114  1  0.86943534  0.24405986  0.61390257  1
  Zn  Zn115  1  0.12677096  0.12514184  0.49527923  1
  Zn  Zn116  1  0.49960670  0.25247303  0.25029699  1
  Zn  Zn117  1  0.24363740  0.50873848  0.76075827  1
  Zn  Zn118  1  0.87558071  0.87492011  0.49793192  1
  Zn  Zn119  1  0.49881211  0.37433291  0.37598142  1
  Zn  Zn120  1  0.12650741  -0.00052923  0.62302423  1
  Zn  Zn121  1  0.25368546  0.12576820  0.87473939  1
  Zn  Zn122  1  0.18868322  0.18760606  0.18871202  1
  Zn  Zn123  1  0.18656911  0.18717679  0.68652359  1
  Zn  Zn124  1  0.18805738  0.68756053  0.18577693  1
  Zn  Zn125  1  0.18398896  0.68933833  0.68743424  1
  Zn  Zn126  1  0.68753758  0.18848941  0.19011728  1
  Zn  Zn127  1  0.68488780  0.18709772  0.69105042  1
  Zn  Zn128  1  0.68911932  0.68571725  0.18892230  1
  Zn  Zn129  1  0.68666585  0.68580300  0.68959626  1
  Zn  Zn130  1  0.31162928  0.31173028  0.31530916  1
  Zn  Zn131  1  0.31164965  0.31438864  0.81180390  1
  Zn  Zn132  1  0.31229978  0.81426702  0.31313113  1
  Zn  Zn133  1  0.31474368  0.81049508  0.81190119  1
  Zn  Zn134  1  0.81183273  0.30977821  0.31106017  1
  Zn  Zn135  1  0.81230918  0.31167278  0.81006024  1
  Zn  Zn136  1  0.81649234  0.81174727  0.31393561  1
  Zn  Zn137  1  0.81452213  0.81148172  0.81238058  1
  Zn  Zn138  1  0.18385107  0.43480465  0.43913408  1
  Zn  Zn139  1  0.18278709  0.42294142  0.93730100  1
  Zn  Zn140  1  0.18675123  0.93972484  0.43600716  1
  Zn  Zn141  1  0.18833423  0.93478979  0.93608966  1
  Zn  Zn142  1  0.68351494  0.43813708  0.43851338  1
  Zn  Zn143  1  0.68539101  0.43859015  0.93813920  1
  Zn  Zn144  1  0.68728208  0.93935056  0.43957264  1
  Zn  Zn145  1  0.68845226  0.93662235  0.93966246  1
  Zn  Zn146  1  0.31328492  0.06291521  0.06344763  1
  Zn  Zn147  1  0.31131120  0.06328005  0.56268102  1
  Zn  Zn148  1  0.31888469  0.56073719  0.06674616  1
  Zn  Zn149  1  0.30285892  0.57131844  0.58384394  1
  Zn  Zn150  1  0.81291044  0.06163641  0.06255279  1
  Zn  Zn151  1  0.81396353  0.06078216  0.56158696  1
  Zn  Zn152  1  0.81555500  0.56394116  0.06607793  1
  Zn  Zn153  1  0.81057540  0.55865070  0.56513112  1
  Zn  Zn154  1  0.43807837  0.43723681  0.18965863  1
  Zn  Zn155  1  0.43056276  0.44263220  0.69538863  1
  Zn  Zn156  1  0.43815333  0.93859984  0.18814971  1
  Zn  Zn157  1  0.43672664  0.93953242  0.68603840  1
  Zn  Zn158  1  0.93705980  0.43834138  0.18330824  1
  Zn  Zn159  1  0.93556015  0.43699715  0.68518889  1
  Zn  Zn160  1  0.93575562  0.93721833  0.18669082  1
  Zn  Zn161  1  0.93399016  0.93721462  0.68580945  1
  Zn  Zn162  1  0.06355515  0.06314587  0.31401003  1
  Zn  Zn163  1  0.06439582  0.06212420  0.81112771  1
  Zn  Zn164  1  0.06330510  0.56258006  0.31151566  1
  Zn  Zn165  1  0.05829859  0.55995790  0.80747284  1
  Zn  Zn166  1  0.56196552  0.06270589  0.31399801  1
  Zn  Zn167  1  0.56090673  0.06354159  0.81048947  1
  Zn  Zn168  1  0.56405973  0.56157760  0.31428317  1
  Zn  Zn169  1  0.56718938  0.56602978  0.81389795  1
  Zn  Zn170  1  0.43967175  0.18745594  0.44017909  1
  Zn  Zn171  1  0.43599249  0.18885215  0.93746849  1
  Zn  Zn172  1  0.43893870  0.68889832  0.43969215  1
  Zn  Zn173  1  0.44029261  0.68806961  0.93614344  1
  Zn  Zn174  1  0.93859352  0.19153075  0.43822850  1
  Zn  Zn175  1  0.93682479  0.18771046  0.93616809  1
  Zn  Zn176  1  0.93688972  0.68817259  0.43587212  1
  Zn  Zn177  1  0.93733349  0.68917729  0.93674729  1
  Zn  Zn178  1  0.06255478  0.31417764  0.06217515  1
  Zn  Zn179  1  0.05730414  0.30919036  0.55752861  1
  Zn  Zn180  1  0.06495435  0.81304415  0.06151818  1
  Zn  Zn181  1  0.06398506  0.81351045  0.56259586  1
  Zn  Zn182  1  0.56145452  0.31270199  0.06380721  1
  Zn  Zn183  1  0.56240347  0.31178974  0.56228655  1
  Zn  Zn184  1  0.56502813  0.81183302  0.06152116  1
  Zn  Zn185  1  0.56425402  0.81343252  0.56178469  1
  O  O186  1  0.11907924  0.11950077  0.11938882  1
  O  O187  1  0.10988805  0.12162914  0.62724349  1
  O  O188  1  0.11247249  0.61838807  0.13065458  1
  O  O189  1  0.11074229  0.61945122  0.61778153  1
  O  O190  1  0.62187012  0.11992935  0.12028703  1
  O  O191  1  0.62127357  0.12043361  0.61879077  1
  O  O192  1  0.61865906  0.61851108  0.12650437  1
  O  O193  1  0.61714440  0.62018512  0.62004057  1
  O  O194  1  0.37597275  0.38306766  0.38311791  1
  O  O195  1  0.38493610  0.37552077  0.88165384  1
  O  O196  1  0.38064583  0.88179953  0.37885487  1
  O  O197  1  0.37874661  0.87457876  0.88836297  1
  O  O198  1  0.88817640  0.37374240  0.36915156  1
  O  O199  1  0.88177127  0.36825113  0.88264830  1
  O  O200  1  0.88027968  0.87829271  0.37911474  1
  O  O201  1  0.88159858  0.88200919  0.87651214  1
  O  O202  1  0.26294242  -0.00062034  0.36727043  1
  O  O203  1  0.25196947  -0.00048470  0.86415782  1
  O  O204  1  0.25409932  0.50598361  0.37154271  1
  O  O205  1  0.23836749  0.50392376  0.87964579  1
  O  O206  1  0.74893004  0.01146020  0.36945793  1
  O  O207  1  0.75238447  0.00400365  0.86817235  1
  O  O208  1  0.74501504  0.49982775  0.36088425  1
  O  O209  1  0.74059147  0.51000022  0.86641289  1
  O  O210  1  0.24577787  0.49584112  0.13084306  1
  O  O211  1  0.23886702  0.48266899  0.61866652  1
  O  O212  1  0.24525342  0.99477320  0.12960058  1
  O  O213  1  0.25012133  0.99303676  0.63478911  1
  O  O214  1  0.74487170  0.49473475  0.13308000  1
  O  O215  1  0.74279046  0.49249412  0.63514812  1
  O  O216  1  0.74424995  0.99530179  0.13076225  1
  O  O217  1  0.74269499  0.99405536  0.63162854  1
  O  O218  1  0.00419971  0.37300685  0.25284400  1
  O  O219  1  0.00228780  0.36971325  0.75288465  1
  O  O220  1  0.00121008  0.86086878  0.24754892  1
  O  O221  1  0.00476608  0.87010780  0.75366529  1
  O  O222  1  0.50896781  0.37420455  0.25467466  1
  O  O223  1  0.50530817  0.37662373  0.75974814  1
  O  O224  1  0.50616951  0.86909425  0.25578758  1
  O  O225  1  0.49686544  0.86201444  0.74917279  1
  O  O226  1  0.49148426  0.12390172  0.24444001  1
  O  O227  1  0.50028238  0.12963335  0.73666894  1
  O  O228  1  0.49519836  0.63083639  0.24676268  1
  O  O229  1  0.50340187  0.63351135  0.73888354  1
  O  O230  1  0.99407921  0.13027556  0.24281432  1
  O  O231  1  0.99356559  0.12735561  0.74337353  1
  O  O232  1  0.99501570  0.63043525  0.24240327  1
  O  O233  1  0.99780711  0.62916163  0.73881599  1
  O  O234  1  0.36813028  0.25704970  0.00332133  1
  O  O235  1  0.37731361  0.25756389  0.51289361  1
  O  O236  1  0.36960895  0.75828057  0.00615912  1
  O  O237  1  0.36925229  0.75677357  0.50476539  1
  O  O238  1  0.86867661  0.25488444  0.00474623  1
  O  O239  1  0.87758535  0.25807888  0.50275476  1
  O  O240  1  0.86216676  0.75216074  0.00163158  1
  O  O241  1  0.86203836  0.74834549  0.50298959  1
  O  O242  1  0.12515392  0.24494470  0.49664570  1
  O  O243  1  0.12912692  0.24530877  0.99503864  1
  O  O244  1  0.13020424  0.74381752  0.49437064  1
  O  O245  1  0.13659953  0.75560599  0.99015551  1
  O  O246  1  0.62284233  0.23908973  0.49135504  1
  O  O247  1  0.63099483  0.24476376  0.99584937  1
  O  O248  1  0.63434970  0.74495252  0.49582107  1
  O  O249  1  0.63621536  0.74797068  0.99289912  1
  O  O250  1  0.49827749  0.24155438  0.12825269  1
  O  O251  1  0.49297100  0.24358581  0.62738024  1
  O  O252  1  0.49623943  0.74574870  0.13143858  1
  O  O253  1  0.49963473  0.74500029  0.63146062  1
  O  O254  1  0.99411648  0.24487677  0.12818431  1
  O  O255  1  0.99675052  0.23963323  0.63205192  1
  O  O256  1  1.00245939  0.74157991  0.13109482  1
  O  O257  1  1.00025312  0.74024221  0.62888290  1
  O  O258  1  0.00153513  0.26100446  0.36433474  1
  O  O259  1  0.00416410  0.25451840  0.86837277  1
  O  O260  1  0.00711693  0.74768224  0.36457021  1
  O  O261  1  0.00713882  0.75569168  0.87066497  1
  O  O262  1  0.51304298  0.25051816  0.37352815  1
  O  O263  1  0.50529602  0.26296808  0.87617190  1
  O  O264  1  0.50647521  0.75530496  0.36929239  1
  O  O265  1  0.51074122  0.75213304  0.86681582  1
  O  O266  1  0.24658661  0.12832892  0.49916851  1
  O  O267  1  0.24316424  0.13107943  1.00031363  1
  O  O268  1  0.24352598  0.63118012  0.49816806  1
  O  O269  1  0.25353966  0.63953290  1.01005452  1
  O  O270  1  0.74152376  0.12075313  0.49036055  1
  O  O271  1  0.74446951  0.12991215  0.99461498  1
  O  O272  1  0.74461789  0.63165625  0.50121300  1
  O  O273  1  0.74994969  0.63225587  0.99483063  1
  O  O274  1  0.25516395  0.36853372  0.00702297  1
  O  O275  1  0.25547275  0.37235602  0.50977744  1
  O  O276  1  0.25947483  0.86726722  0.00513369  1
  O  O277  1  0.25679165  0.87040705  0.50460892  1
  O  O278  1  0.75395110  0.37010238  0.00434447  1
  O  O279  1  0.74846733  0.38426644  0.51687818  1
  O  O280  1  0.75099678  0.86596942  0.00686846  1
  O  O281  1  0.74877518  0.86548009  0.50804858  1
  O  O282  1  0.13142918  0.49539292  0.24353860  1
  O  O283  1  0.12247898  0.49095956  0.74076832  1
  O  O284  1  0.13185473  0.99901491  0.24208336  1
  O  O285  1  0.13444509  0.99241781  0.74893013  1
  O  O286  1  0.63355219  0.49483813  0.24545893  1
  O  O287  1  0.63287949  0.49508181  0.74487514  1
  O  O288  1  0.63052893  0.99498083  0.24559334  1
  O  O289  1  0.63701541  1.00700813  0.73981872  1
  O  O290  1  0.37120878  0.00710029  0.25705629  1
  O  O291  1  0.36476595  0.00028134  0.75191043  1
  O  O292  1  0.36958018  0.50646172  0.25763076  1
  O  O293  1  0.36424780  0.50319653  0.76180971  1
  O  O294  1  0.86834988  0.00778969  0.25037526  1
  O  O295  1  0.86418506  0.00502458  0.75550327  1
  O  O296  1  0.86538974  0.50796313  0.24117729  1
  O  O297  1  0.86063777  0.50166864  0.74659068  1
  O  O298  1  0.11362825  0.37589449  0.36587232  1
  O  O299  1  0.11355030  0.36566979  0.86722551  1
  O  O300  1  0.12233290  0.86611965  0.37135541  1
  O  O301  1  0.11885387  0.86590232  0.86886204  1
  O  O302  1  0.62594511  0.36465104  0.37171290  1
  O  O303  1  0.61705954  0.37000080  0.87220937  1
  O  O304  1  0.62096293  0.87060210  0.37082928  1
  O  O305  1  0.62604770  0.86145504  0.87918613  1
  O  O306  1  0.38226810  0.12396464  0.13500633  1
  O  O307  1  0.38450708  0.13297744  0.62441885  1
  O  O308  1  0.38232890  0.63120347  0.13394985  1
  O  O309  1  0.39220351  0.63475302  0.61886349  1
  O  O310  1  0.87983581  0.13062997  0.12912294  1
  O  O311  1  0.88253726  0.12374348  0.63169693  1
  O  O312  1  0.88740471  0.62760342  0.13530268  1
  O  O313  1  0.88716615  0.62526828  0.62466898  1
  O  O314  1  0.25134587  0.25776721  0.11904676  1
  O  O315  1  0.25797351  0.25924840  0.62557613  1
  O  O316  1  0.25579470  0.75559260  0.11812158  1
  O  O317  1  0.25646871  0.75787687  0.61830784  1
  O  O318  1  0.75452516  0.25543602  0.11941134  1
  O  O319  1  0.74645995  0.26556512  0.63129205  1
  O  O320  1  0.74889589  0.75419379  0.11638824  1
  O  O321  1  0.74646602  0.75715792  0.61853845  1
  O  O322  1  0.24663988  0.24699542  0.37842652  1
  O  O323  1  0.24140615  0.25155551  0.88182379  1
  O  O324  1  0.24633678  0.74418709  0.38046695  1
  O  O325  1  0.24069413  0.75525754  0.88401532  1
  O  O326  1  0.73916876  0.23791488  0.36867989  1
  O  O327  1  0.74405354  0.24405632  0.88050068  1
  O  O328  1  0.74470810  0.74828600  0.38508929  1
  O  O329  1  0.74499474  0.74451337  0.88099882  1
  O  O330  1  0.00524627  0.11980528  0.00514038  1
  O  O331  1  -0.00171986  0.11603200  0.50981245  1
  O  O332  1  -0.00809514  0.61679735  0.00983890  1
  O  O333  1  0.00262333  0.61820213  0.50377104  1
  O  O334  1  0.50612709  0.11966893  0.00566697  1
  O  O335  1  0.51124024  0.12744391  0.51349971  1
  O  O336  1  0.50274488  0.61975612  0.00920635  1
  O  O337  1  0.50666674  0.62214563  0.50932910  1
  O  O338  1  0.49312353  0.38357022  0.50122512  1
  O  O339  1  0.49570823  0.38062104  0.99393328  1
  O  O340  1  0.49202921  0.86732778  0.49120833  1
  O  O341  1  0.49200194  0.87998205  1.00167777  1
  O  O342  1  0.99951293  0.38490128  0.48867752  1
  O  O343  1  0.99489234  0.38300203  0.99483953  1
  O  O344  1  0.99795744  0.88474932  0.50205409  1
  O  O345  1  0.99939909  0.88175376  0.99334056  1
  O  O346  1  0.49289060  0.50085853  0.38397142  1
  O  O347  1  0.50816787  0.48920919  0.88220166  1
  O  O348  1  0.48859990  0.99184302  0.36854309  1
  O  O349  1  0.50076310  0.99660185  0.88232298  1
  O  O350  1  1.00420370  0.49320959  0.38218726  1
  O  O351  1  1.00580622  0.49449880  0.88660735  1
  O  O352  1  0.99823058  0.99929619  0.38564266  1
  O  O353  1  0.99519841  0.99520463  0.87884089  1
  O  O354  1  0.00486814  0.00562713  0.11948824  1
  O  O355  1  -0.00037214  0.00754536  0.61916836  1
  O  O356  1  0.00596411  0.50621934  0.11586792  1
  O  O357  1  0.00230447  0.50546466  0.61578516  1
  O  O358  1  0.50723376  0.00555671  0.12012195  1
  O  O359  1  0.51229474  0.00905528  0.63278765  1
  O  O360  1  0.50500829  0.50536555  0.12137782  1
  O  O361  1  0.50319848  0.50862784  0.62336248  1
  O  O362  1  0.24578721  0.38207465  0.24517362  1
  O  O363  1  0.24026081  0.37516945  0.74009357  1
  O  O364  1  0.25067512  0.88123002  0.24202767  1
  O  O365  1  0.24679370  0.88073080  0.74509865  1
  O  O366  1  0.74628721  0.38165428  0.24398537  1
  O  O367  1  0.74363352  0.38268871  0.74500781  1
  O  O368  1  0.74426526  0.87940940  0.24619571  1
  O  O369  1  0.75379777  0.88530759  0.74166621  1
  O  O370  1  0.26269205  0.11793588  0.24782895  1
  O  O371  1  0.25040193  0.11347976  0.74971074  1
  O  O372  1  0.25614908  0.62042664  0.25626578  1
  O  O373  1  0.26011521  0.61215454  0.70822038  1
  O  O374  1  0.75442021  0.11983609  0.25788150  1
  O  O375  1  0.75363374  0.11616887  0.75526299  1
  O  O376  1  0.75934858  0.61684045  0.25017275  1
  O  O377  1  0.75062270  0.61691550  0.75718883  1
  O  O378  1  0.37892050  0.11630554  0.36762770  1
  O  O379  1  0.37206453  0.12311766  0.87037698  1
  O  O380  1  0.36957354  0.62121308  0.37214718  1
  O  O381  1  0.37532175  0.62618544  0.87325019  1
  O  O382  1  0.86567968  0.12605624  0.36843797  1
  O  O383  1  0.86810439  0.11879073  0.86975621  1
  O  O384  1  0.87454254  0.62709695  0.36004307  1
  O  O385  1  0.86007001  0.62941176  0.87398074  1
  O  O386  1  0.13060116  0.38253359  0.12960073  1
  O  O387  1  0.12855304  0.37613052  0.62838078  1
  O  O388  1  0.13247001  0.88218618  0.12589325  1
  O  O389  1  0.13375729  0.87446703  0.63238001  1
  O  O390  1  0.63124118  0.37993766  0.13082004  1
  O  O391  1  0.63271685  0.37953201  0.63068284  1
  O  O392  1  0.63013452  0.88086951  0.13181768  1
  O  O393  1  0.63530114  0.88607940  0.61831187  1
  O  O394  1  0.11710432  0.25885662  0.24586682  1
  O  O395  1  0.11678624  0.25391754  0.75429442  1
  O  O396  1  0.11640202  0.74873983  0.25487377  1
  O  O397  1  0.12016341  0.75576386  0.75740170  1
  O  O398  1  0.62418269  0.25548521  0.26005971  1
  O  O399  1  0.62301183  0.25740164  0.75915341  1
  O  O400  1  0.62134227  0.75559374  0.25551324  1
  O  O401  1  0.61702157  0.74628545  0.75840286  1
  O  O402  1  0.37738324  0.23785813  0.24993506  1
  O  O403  1  0.37637386  0.25054314  0.73656126  1
  O  O404  1  0.38086101  0.74549347  0.24590579  1
  O  O405  1  0.38563226  0.74819037  0.74230281  1
  O  O406  1  0.88016036  0.24407273  0.24160526  1
  O  O407  1  0.87942668  0.24110087  0.74699812  1
  O  O408  1  0.88524838  0.74057156  0.24744885  1
  O  O409  1  0.88339616  0.74610184  0.74671628  1
  O  O410  1  0.37829149  0.49673011  0.49844004  1
  O  O411  1  0.38238508  0.49279683  0.99867387  1
  O  O412  1  0.37083809  0.99342432  0.48804034  1
  O  O413  1  0.38092664  0.99025300  1.00088826  1
  O  O414  1  0.88568279  0.49493074  0.50316418  1
  O  O415  1  0.88681041  0.49234693  1.00762269  1
  O  O416  1  0.88586117  0.99834519  0.49809850  1
  O  O417  1  0.88168957  0.99992993  0.99267936  1
  O  O418  1  0.12023279  0.00481627  0.00459110  1
  O  O419  1  0.11373005  0.00136734  0.50359836  1
  O  O420  1  0.11542388  0.49990837  0.00475793  1
  O  O421  1  0.11396199  0.50562512  0.50450445  1
  O  O422  1  0.62130059  0.00555795  0.00641842  1
  O  O423  1  0.62968512  0.01209845  0.51178664  1
  O  O424  1  0.61911124  0.50166107  0.00944333  1
  O  O425  1  0.61762256  0.50574733  0.50676694  1
  O  O426  1  0.36865473  0.37508849  0.11983022  1
  O  O427  1  0.36701242  0.37011857  0.62271616  1
  O  O428  1  0.37149271  0.87031583  0.11689113  1
  O  O429  1  0.37169250  0.87066416  0.61797229  1
  O  O430  1  0.86925391  0.36840955  0.11730082  1
  O  O431  1  0.85735513  0.37401870  0.62779580  1
  O  O432  1  0.86613742  0.87147647  0.12282088  1
  O  O433  1  0.85920615  0.87358642  0.62116034  1
  O  O434  1  0.12978995  0.12893576  0.37489204  1
  O  O435  1  0.12596262  0.13114611  0.88192136  1
  O  O436  1  0.13190191  0.63001166  0.37985253  1
  O  O437  1  0.11763641  0.64025946  0.86940006  1
  O  O438  1  0.63065989  0.12961081  0.38253521  1
  O  O439  1  0.62944241  0.13051373  0.88090679  1
  O  O440  1  0.62773639  0.63194932  0.38192302  1
  O  O441  1  0.63652747  0.63691382  0.87803009  1
