# generated using pymatgen
data_V93Zn93O256
_symmetry_space_group_name_H-M   'P 1'
_cell_length_a   17.04780970
_cell_length_b   17.04813691
_cell_length_c   17.04842211
_cell_angle_alpha   89.98311214
_cell_angle_beta   89.93782528
_cell_angle_gamma   90.03346880
_symmetry_Int_Tables_number   1
_chemical_formula_structural   V93Zn93O256
_chemical_formula_sum   'V93 Zn93 O256'
_cell_volume   4954.83679828
_cell_formula_units_Z   1
loop_
 _symmetry_equiv_pos_site_id
 _symmetry_equiv_pos_as_xyz
  1  'x, y, z'
loop_
 _atom_site_type_symbol
 _atom_site_label
 _atom_site_symmetry_multiplicity
 _atom_site_fract_x
 _atom_site_fract_y
 _atom_site_fract_z
 _atom_site_occupancy
  V  V0  1  -0.00271380  0.62327259  0.62416120  1
  V  V1  1  0.37590845  0.75166927  0.12490923  1
  V  V2  1  0.12446637  0.12378812  0.50035819  1
  V  V3  1  0.37549416  0.37646467  0.00258635  1
  V  V4  1  0.12631241  0.49944027  0.12538995  1
  V  V5  1  0.00042422  0.49984994  -0.00039692  1
  V  V6  1  0.62708109  -0.00394618  0.13172394  1
  V  V7  1  0.12610537  0.62545182  -0.00013497  1
  V  V8  1  0.62425505  0.75793205  0.37205838  1
  V  V9  1  0.50198650  0.87601140  0.87550095  1
  V  V10  1  0.37902983  0.62548410  0.74296007  1
  V  V11  1  0.50192407  0.12955434  0.13258297  1
  V  V12  1  0.25093931  0.87667085  0.12370403  1
  V  V13  1  0.24812353  0.75381825  0.50778408  1
  V  V14  1  0.24960059  0.62515528  0.37419185  1
  V  V15  1  0.75263563  0.25035852  0.00029396  1
  V  V16  1  -0.00039318  0.62543726  0.12551492  1
  V  V17  1  -0.00068011  -0.00159880  0.49940832  1
  V  V18  1  0.50054960  0.50139325  0.00040771  1
  V  V19  1  0.87450137  0.62460983  0.25031768  1
  V  V20  1  0.87525542  0.87279004  0.00011975  1
  V  V21  1  0.37987585  0.25106913  0.13260741  1
  V  V22  1  0.50014855  0.62671731  0.12510015  1
  V  V23  1  0.74402651  0.37332933  0.62495762  1
  V  V24  1  0.00356254  0.87381281  0.86956009  1
  V  V25  1  0.37690518  0.87741889  -0.00264120  1
  V  V26  1  0.74938371  -0.00072083  0.75051084  1
  V  V27  1  0.50062193  0.37473177  0.87633878  1
  V  V28  1  0.87661687  -0.00021616  0.87373118  1
  V  V29  1  0.12452731  0.25007135  0.37518202  1
  V  V30  1  0.12504951  0.37520532  0.24956013  1
  V  V31  1  0.74665513  0.49952761  0.25166617  1
  V  V32  1  0.24726956  0.37746832  0.62759830  1
  V  V33  1  0.12494759  0.87507948  0.24888453  1
  V  V34  1  0.37347100  0.24573366  0.63089758  1
  V  V35  1  0.12875155  -0.00895966  0.62580733  1
  V  V36  1  0.62407492  0.12696491  0.49962976  1
  V  V37  1  0.49605909  0.24565956  0.75337414  1
  V  V38  1  0.87521739  0.37408031  0.00101522  1
  V  V39  1  0.12641387  0.25005418  0.87332476  1
  V  V40  1  0.25175032  0.00276655  0.25008639  1
  V  V41  1  0.62384172  0.50029504  0.12780868  1
  V  V42  1  0.37539550  0.50161540  0.87495215  1
  V  V43  1  0.13118117  0.12508132  -0.00343886  1
  V  V44  1  0.50109049  0.74742260  0.74286966  1
  V  V45  1  0.74284070  0.74566387  0.50084506  1
  V  V46  1  0.37489996  0.37620058  0.50127548  1
  V  V47  1  0.49760865  -0.00297413  0.49897663  1
  V  V48  1  0.75194520  0.12532143  0.87581704  1
  V  V49  1  0.87448166  0.49961669  0.87474988  1
  V  V50  1  0.25096211  0.37491407  0.12555629  1
  V  V51  1  -0.00056511  0.24964725  0.24973545  1
  V  V52  1  0.87538464  0.12440401  0.24958532  1
  V  V53  1  0.00073884  0.37412604  0.87397184  1
  V  V54  1  0.61920136  0.51238202  0.62255072  1
  V  V55  1  0.87597125  0.24951958  0.12503864  1
  V  V56  1  0.62585004  0.74904846  0.87600004  1
  V  V57  1  0.87616657  0.12446496  0.74968130  1
  V  V58  1  0.74928006  0.87531635  0.12964728  1
  V  V59  1  0.12253209  0.62455017  0.49959750  1
  V  V60  1  0.37456508  0.62633348  0.25059889  1
  V  V61  1  0.24921837  0.24994408  0.50105100  1
  V  V62  1  0.49902427  0.36869584  0.37489830  1
  V  V63  1  0.50069654  0.51322833  0.50316700  1
  V  V64  1  0.25150950  0.75206645  -0.00115092  1
  V  V65  1  0.12620162  0.75077487  0.87371809  1
  V  V66  1  0.26164188  0.00001072  0.74677090  1
  V  V67  1  0.25021660  0.12453677  0.37414152  1
  V  V68  1  -0.00248022  0.37502155  0.37584866  1
  V  V69  1  0.62558337  0.25096073  0.87577726  1
  V  V70  1  0.74902529  0.12570282  0.37431949  1
  V  V71  1  0.49695604  0.12546794  0.62823768  1
  V  V72  1  0.61996605  0.36834942  0.25193000  1
  V  V73  1  0.12648551  0.00115235  0.12289789  1
  V  V74  1  0.62589018  -0.00253549  0.62716875  1
  V  V75  1  0.37473787  0.50162060  0.37622744  1
  V  V76  1  0.50445375  0.75849357  0.24955250  1
  V  V77  1  0.36975243  0.87485123  0.50491080  1
  V  V78  1  0.87480689  0.62375947  0.75062262  1
  V  V79  1  -0.00400794  0.49824350  0.49986756  1
  V  V80  1  0.25208640  0.62608124  0.87418435  1
  V  V81  1  0.87276724  0.24966798  0.62348612  1
  V  V82  1  0.74131732  0.62418551  0.37763474  1
  V  V83  1  0.87341563  0.74816101  0.62414758  1
  V  V84  1  0.62630284  0.62457229  0.00007570  1
  V  V85  1  0.87523627  -0.00067054  0.37502795  1
  V  V86  1  0.12194486  0.75067119  0.37265766  1
  V  V87  1  0.62737850  0.12547959  0.00208485  1
  V  V88  1  -0.00046232  0.12407134  0.62516310  1
  V  V89  1  0.00374180  0.00024018  -0.00175529  1
  V  V90  1  0.50144933  0.00019105  0.00051671  1
  V  V91  1  0.75109131  0.62400081  0.87650786  1
  V  V92  1  0.87359007  0.87363583  0.49895844  1
  Zn  Zn93  1  -0.00122216  0.75167152  0.24691382  1
  Zn  Zn94  1  -0.00219254  0.87488837  0.37141367  1
  Zn  Zn95  1  0.24842810  0.50136444  0.75064924  1
  Zn  Zn96  1  0.62670829  0.87306454  0.75190787  1
  Zn  Zn97  1  0.25001683  0.50063436  0.25085460  1
  Zn  Zn98  1  0.74870891  0.37420499  0.12761502  1
  Zn  Zn99  1  0.37943005  0.12829698  0.25515445  1
  Zn  Zn100  1  0.00233441  0.74857936  0.74685239  1
  Zn  Zn101  1  0.37437991  -0.00032468  0.37370161  1
  Zn  Zn102  1  0.74587762  0.49898609  0.75025249  1
  Zn  Zn103  1  0.50044783  0.87804588  0.37113676  1
  Zn  Zn104  1  0.87014647  0.37424484  0.49850876  1
  Zn  Zn105  1  0.26489981  0.13285451  0.86242838  1
  Zn  Zn106  1  0.62312540  0.37551796  0.75011094  1
  Zn  Zn107  1  0.00183343  0.25091630  0.74855885  1
  Zn  Zn108  1  0.00186840  0.12476543  0.12422937  1
  Zn  Zn109  1  0.74615233  0.25134177  0.49917121  1
  Zn  Zn110  1  0.38030145  0.00915621  0.87058600  1
  Zn  Zn111  1  0.75083211  0.87340271  0.62654853  1
  Zn  Zn112  1  0.13595150  0.86961368  0.74274969  1
  Zn  Zn113  1  0.37655179  0.74819319  0.62352602  1
  Zn  Zn114  1  0.74920178  -0.00526112  0.25248358  1
  Zn  Zn115  1  0.87463074  0.74975868  0.12517259  1
  Zn  Zn116  1  0.61899807  0.24639738  0.37055116  1
  Zn  Zn117  1  0.87019283  0.49732587  0.37588021  1
  Zn  Zn118  1  0.75096070  0.74882365  0.00128881  1
  Zn  Zn119  1  0.12334552  0.37731555  0.75003926  1
  Zn  Zn120  1  0.12316500  0.49957530  0.62791593  1
  Zn  Zn121  1  0.25464161  0.24924134  -0.00124833  1
  Zn  Zn122  1  0.18982608  0.18856832  0.18579070  1
  Zn  Zn123  1  0.18710969  0.18323260  0.68841185  1
  Zn  Zn124  1  0.18865430  0.68795337  0.18708830  1
  Zn  Zn125  1  0.18547016  0.68379135  0.68895187  1
  Zn  Zn126  1  0.68961740  0.18721702  0.18750794  1
  Zn  Zn127  1  0.68527015  0.18687339  0.69005941  1
  Zn  Zn128  1  0.68840878  0.69036390  0.18736964  1
  Zn  Zn129  1  0.68889962  0.68702044  0.69103641  1
  Zn  Zn130  1  0.31177842  0.31389106  0.31265827  1
  Zn  Zn131  1  0.31233777  0.31476236  0.81329851  1
  Zn  Zn132  1  0.31322014  0.81565775  0.31613231  1
  Zn  Zn133  1  0.31545841  0.81696185  0.80988519  1
  Zn  Zn134  1  0.81029264  0.31160181  0.31276198  1
  Zn  Zn135  1  0.81289865  0.31400123  0.80981745  1
  Zn  Zn136  1  0.81261965  0.81016644  0.31295852  1
  Zn  Zn137  1  0.81184779  0.81065957  0.81101248  1
  Zn  Zn138  1  0.18562242  0.43824894  0.43901288  1
  Zn  Zn139  1  0.18927675  0.43699962  0.93794155  1
  Zn  Zn140  1  0.18719417  0.93669401  0.43599548  1
  Zn  Zn141  1  0.19221187  0.94046073  0.93058832  1
  Zn  Zn142  1  0.68283480  0.43799955  0.44023442  1
  Zn  Zn143  1  0.68823953  0.43703288  0.93911166  1
  Zn  Zn144  1  0.68875035  0.93607764  0.43890078  1
  Zn  Zn145  1  0.68773021  0.93728197  0.94033805  1
  Zn  Zn146  1  0.31607943  0.06479175  0.06151582  1
  Zn  Zn147  1  0.31056864  0.06195675  0.56390968  1
  Zn  Zn148  1  0.31255903  0.56330047  0.06302483  1
  Zn  Zn149  1  0.31110548  0.56388242  0.56032915  1
  Zn  Zn150  1  0.81472595  0.06116930  0.06278618  1
  Zn  Zn151  1  0.81164230  0.06184609  0.56186859  1
  Zn  Zn152  1  0.81125511  0.56008663  0.06460113  1
  Zn  Zn153  1  0.80881378  0.56095510  0.56335438  1
  Zn  Zn154  1  0.43816694  0.43901891  0.19055198  1
  Zn  Zn155  1  0.43776155  0.43660153  0.68957799  1
  Zn  Zn156  1  0.43595679  0.94134793  0.18523890  1
  Zn  Zn157  1  0.43959376  0.93111824  0.68554355  1
  Zn  Zn158  1  0.93691732  0.43787071  0.18773132  1
  Zn  Zn159  1  0.93500597  0.43547595  0.68830348  1
  Zn  Zn160  1  0.93883811  0.93894370  0.18726862  1
  Zn  Zn161  1  0.93756119  0.93645337  0.68487489  1
  Zn  Zn162  1  0.06259091  0.06225756  0.31194093  1
  Zn  Zn163  1  0.06809040  0.06224545  0.80883432  1
  Zn  Zn164  1  0.06084052  0.56103917  0.31278499  1
  Zn  Zn165  1  0.06328730  0.56137455  0.81023616  1
  Zn  Zn166  1  0.56376266  0.06011083  0.31255296  1
  Zn  Zn167  1  0.56289584  0.06470946  0.81411303  1
  Zn  Zn168  1  0.55961987  0.56298496  0.31417156  1
  Zn  Zn169  1  0.56294987  0.56268497  0.81041563  1
  Zn  Zn170  1  0.43353615  0.18640239  0.44199523  1
  Zn  Zn171  1  0.43820391  0.18705281  0.94424213  1
  Zn  Zn172  1  0.43544786  0.69144081  0.43487352  1
  Zn  Zn173  1  0.43917009  0.68920801  0.93412519  1
  Zn  Zn174  1  0.93686214  0.18660512  0.43825814  1
  Zn  Zn175  1  0.94167849  0.18702916  0.93773006  1
  Zn  Zn176  1  0.93309532  0.68547770  0.43676419  1
  Zn  Zn177  1  0.93944839  0.68794979  0.93653827  1
  Zn  Zn178  1  0.06300089  0.31116359  0.06149785  1
  Zn  Zn179  1  0.06080887  0.31209428  0.56202962  1
  Zn  Zn180  1  0.06211745  0.81185178  0.06179927  1
  Zn  Zn181  1  0.05807639  0.81083661  0.55883768  1
  Zn  Zn182  1  0.56291047  0.31269273  0.06395099  1
  Zn  Zn183  1  0.55861907  0.31671640  0.56252249  1
  Zn  Zn184  1  0.56493836  0.81300895  0.06152282  1
  Zn  Zn185  1  0.56297908  0.81237113  0.55983614  1
  O  O186  1  0.12499703  0.11998240  0.11441071  1
  O  O187  1  0.11846115  0.11668989  0.61826976  1
  O  O188  1  0.12107154  0.62003195  0.11926571  1
  O  O189  1  0.11602340  0.62359954  0.61647949  1
  O  O190  1  0.62106251  0.11877303  0.12133186  1
  O  O191  1  0.61955851  0.11610311  0.61812833  1
  O  O192  1  0.61948580  0.62044469  0.12076524  1
  O  O193  1  0.62796732  0.61036170  0.62817737  1
  O  O194  1  0.38034884  0.38079842  0.38044597  1
  O  O195  1  0.38081740  0.38118732  0.88204393  1
  O  O196  1  0.37957168  0.87834900  0.38843662  1
  O  O197  1  0.38509921  0.87968487  0.88145545  1
  O  O198  1  0.88070701  0.37620491  0.37799900  1
  O  O199  1  0.88011288  0.37919356  0.88107568  1
  O  O200  1  0.87450798  0.88094090  0.38039452  1
  O  O201  1  0.88294253  0.87922534  0.88142836  1
  O  O202  1  0.24888476  0.00746127  0.36840257  1
  O  O203  1  0.25466424  0.00445084  0.85913941  1
  O  O204  1  0.25617557  0.50678202  0.37610282  1
  O  O205  1  0.25824643  0.50749936  0.87592820  1
  O  O206  1  0.75384034  0.00927781  0.37435761  1
  O  O207  1  0.75609565  0.00596552  0.87142682  1
  O  O208  1  0.74684549  0.50919198  0.37207805  1
  O  O209  1  0.75655158  0.50545869  0.87479883  1
  O  O210  1  0.24399500  0.49424060  0.12672193  1
  O  O211  1  0.24894023  0.48761218  0.62248315  1
  O  O212  1  0.24570608  0.99538088  0.12895454  1
  O  O213  1  0.23979410  1.00399019  0.63342919  1
  O  O214  1  0.74123168  0.49743002  0.13307942  1
  O  O215  1  0.73598520  0.49179978  0.62328504  1
  O  O216  1  0.74337039  0.99362190  0.12494344  1
  O  O217  1  0.74032818  1.00072119  0.63041420  1
  O  O218  1  0.00506804  0.36962766  0.25577226  1
  O  O219  1  0.00154394  0.37152817  0.75804393  1
  O  O220  1  0.00812927  0.87194571  0.25155267  1
  O  O221  1  -0.00059879  0.87356116  0.76240528  1
  O  O222  1  0.50874917  0.38350745  0.26346445  1
  O  O223  1  0.49974458  0.36280009  0.75778903  1
  O  O224  1  0.49301973  0.86198379  0.24977369  1
  O  O225  1  0.50356190  0.86625381  0.75719124  1
  O  O226  1  0.50052079  0.11992688  0.23648380  1
  O  O227  1  0.50500663  0.13811356  0.74459140  1
  O  O228  1  0.49392443  0.63425254  0.24450440  1
  O  O229  1  0.48982525  0.63602740  0.75860133  1
  O  O230  1  0.99396232  0.13220952  0.24919991  1
  O  O231  1  0.99331686  0.12576921  0.74321628  1
  O  O232  1  0.98987292  0.62380445  0.24512470  1
  O  O233  1  0.99257794  0.62536912  0.74265373  1
  O  O234  1  0.37614514  0.25946841  0.01293018  1
  O  O235  1  0.36903274  0.25711918  0.51065488  1
  O  O236  1  0.37143885  0.75638642  0.00492788  1
  O  O237  1  0.36556560  0.75590426  0.50027735  1
  O  O238  1  0.87210949  0.25405135  0.00456767  1
  O  O239  1  0.87101772  0.24825353  0.51325346  1
  O  O240  1  0.87575154  0.76261338  -0.00002489  1
  O  O241  1  0.86463679  0.75367507  0.50348543  1
  O  O242  1  0.12928065  0.24399885  0.49477332  1
  O  O243  1  0.12630154  0.24177894  0.99121247  1
  O  O244  1  0.12979379  0.74605502  0.49118757  1
  O  O245  1  0.13203648  0.74477955  0.99463405  1
  O  O246  1  0.62076578  0.23447840  0.50131908  1
  O  O247  1  0.63216501  0.24530545  0.99606614  1
  O  O248  1  0.63509486  0.75275574  0.49125449  1
  O  O249  1  0.62591308  0.74140559  0.99366095  1
  O  O250  1  0.49336306  0.24056169  0.12082815  1
  O  O251  1  0.49190333  0.24758223  0.63321608  1
  O  O252  1  0.49649610  0.74650768  0.13128185  1
  O  O253  1  0.50228465  0.75472718  0.63934591  1
  O  O254  1  0.99429252  0.24860234  0.13207372  1
  O  O255  1  0.98993453  0.24381676  0.62535016  1
  O  O256  1  0.99727549  0.74113037  0.12599282  1
  O  O257  1  0.99128090  0.74123174  0.62295510  1
  O  O258  1  0.00489665  0.25448944  0.37060741  1
  O  O259  1  0.00946460  0.25575793  0.87389897  1
  O  O260  1  0.01240360  0.74877947  0.37464164  1
  O  O261  1  0.00689200  0.75882666  0.87423937  1
  O  O262  1  0.49805805  0.26449325  0.38385358  1
  O  O263  1  0.50495296  0.25454318  0.87108747  1
  O  O264  1  0.50858339  0.75031958  0.36706299  1
  O  O265  1  0.50676379  0.75641431  0.86726045  1
  O  O266  1  0.24376691  0.13075601  0.49504825  1
  O  O267  1  0.23853360  0.12531010  0.99804307  1
  O  O268  1  0.24343261  0.63304997  0.49310843  1
  O  O269  1  0.24606892  0.63246127  0.99500100  1
  O  O270  1  0.73921943  0.12267078  0.49204949  1
  O  O271  1  0.74765270  0.13035597  0.99461412  1
  O  O272  1  0.75597599  0.63513237  0.48908294  1
  O  O273  1  0.74434067  0.62508685  0.99489310  1
  O  O274  1  0.25856678  0.37517373  0.00813148  1
  O  O275  1  0.25427066  0.36924406  0.50735751  1
  O  O276  1  0.25600418  0.87132118  0.00378727  1
  O  O277  1  0.25729753  0.86504009  0.49318862  1
  O  O278  1  0.75742239  0.36793386  0.00227303  1
  O  O279  1  0.74905417  0.37132953  0.51035735  1
  O  O280  1  0.76244209  0.87589753  0.00661075  1
  O  O281  1  0.75530924  0.86378169  0.50186426  1
  O  O282  1  0.12546484  0.49325526  0.24353350  1
  O  O283  1  0.13030978  0.49631985  0.74569319  1
  O  O284  1  0.13068185  0.99533288  0.24322203  1
  O  O285  1  0.13124280  0.99491519  0.73942392  1
  O  O286  1  0.62773176  0.49333669  0.24690644  1
  O  O287  1  0.62273769  0.49566612  0.73621181  1
  O  O288  1  0.62807895  1.00233445  0.23560607  1
  O  O289  1  0.62948380  1.00171609  0.74069808  1
  O  O290  1  0.36724114  0.00450864  0.25193938  1
  O  O291  1  0.36502797  -0.00232236  0.74312158  1
  O  O292  1  0.37421620  0.50837346  0.25802799  1
  O  O293  1  0.37613133  0.50903642  0.75679823  1
  O  O294  1  0.87402111  0.00719728  0.25696374  1
  O  O295  1  0.87002124  0.00481578  0.75441390  1
  O  O296  1  0.86726546  0.50888650  0.25137532  1
  O  O297  1  0.87226231  0.50584278  0.75734589  1
  O  O298  1  0.11906470  0.36890332  0.37031993  1
  O  O299  1  0.11997661  0.36556057  0.87728759  1
  O  O300  1  0.12404621  0.86535105  0.36812995  1
  O  O301  1  0.11581573  0.86992565  0.87605921  1
  O  O302  1  0.61585518  0.37264299  0.37010988  1
  O  O303  1  0.61865711  0.36874922  0.87525558  1
  O  O304  1  0.62366178  0.86276691  0.37660498  1
  O  O305  1  0.62001160  0.86802191  0.87659319  1
  O  O306  1  0.38500239  0.13423157  0.12520112  1
  O  O307  1  0.38028970  0.13940502  0.61724460  1
  O  O308  1  0.38055840  0.63266904  0.12919198  1
  O  O309  1  0.36998058  0.62627514  0.63884004  1
  O  O310  1  0.87811541  0.13071072  0.13060389  1
  O  O311  1  0.87829848  0.13057954  0.62924860  1
  O  O312  1  0.87953325  0.62422942  0.13416526  1
  O  O313  1  0.87756744  0.62838189  0.62999410  1
  O  O314  1  0.26017471  0.25680962  0.12168404  1
  O  O315  1  0.25596832  0.25573512  0.62169892  1
  O  O316  1  0.25585083  0.75639113  0.11859779  1
  O  O317  1  0.24775171  0.74439380  0.60986823  1
  O  O318  1  0.75763082  0.25132464  0.11808060  1
  O  O319  1  0.75508012  0.25470039  0.62419025  1
  O  O320  1  0.75288965  0.75986901  0.12044177  1
  O  O321  1  0.75305636  0.74881129  0.61581966  1
  O  O322  1  0.24415808  0.24624032  0.38131755  1
  O  O323  1  0.24078203  0.25033049  0.87794657  1
  O  O324  1  0.23932255  0.74493216  0.38153190  1
  O  O325  1  0.24655955  0.74699363  0.88027754  1
  O  O326  1  0.74613969  0.23681614  0.37890885  1
  O  O327  1  0.74661130  0.24470005  0.87974528  1
  O  O328  1  0.74215096  0.74412584  0.38020290  1
  O  O329  1  0.74421222  0.74254636  0.87764763  1
  O  O330  1  0.01249057  0.11796654  -0.00035074  1
  O  O331  1  0.00503896  0.11836385  0.50518959  1
  O  O332  1  0.00632224  0.61928777  0.00453908  1
  O  O333  1  0.00160649  0.61657542  0.50319500  1
  O  O334  1  0.50934686  0.11979138  0.01203296  1
  O  O335  1  0.50581081  0.11598727  0.50601463  1
  O  O336  1  0.50544207  0.62078910  0.00513475  1
  O  O337  1  0.49217276  0.61209417  0.49630199  1
  O  O338  1  0.49327824  0.38405981  0.49297033  1
  O  O339  1  0.49554458  0.38194768  0.99600077  1
  O  O340  1  0.49350165  0.88452341  0.49921096  1
  O  O341  1  0.49642506  0.88014335  0.99562691  1
  O  O342  1  0.99788492  0.38313931  0.49501211  1
  O  O343  1  0.99478494  0.38050348  0.99464280  1
  O  O344  1  0.99124149  0.88093108  0.49486095  1
  O  O345  1  0.99402127  0.87961999  0.99041676  1
  O  O346  1  0.49479196  0.49317592  0.38435229  1
  O  O347  1  0.49573945  0.49501007  0.88111800  1
  O  O348  1  0.50053234  0.99931309  0.38760646  1
  O  O349  1  0.50313580  0.99423820  0.88253063  1
  O  O350  1  0.99735188  0.49417412  0.38436514  1
  O  O351  1  0.99481351  0.49480961  0.88147557  1
  O  O352  1  0.99345215  1.00014650  0.38241088  1
  O  O353  1  0.99728464  0.99188205  0.87800035  1
  O  O354  1  0.00899521  0.00082125  0.11627540  1
  O  O355  1  0.00639299  0.00523532  0.61889445  1
  O  O356  1  0.00632422  0.50495693  0.11889769  1
  O  O357  1  -0.00182016  0.50371644  0.61479745  1
  O  O358  1  0.50927631  0.00629820  0.12024805  1
  O  O359  1  0.50709600  0.00467410  0.61824694  1
  O  O360  1  0.50384349  0.50764944  0.12032460  1
  O  O361  1  0.51129336  0.49289675  0.61854133  1
  O  O362  1  0.24246730  0.37749641  0.24422479  1
  O  O363  1  0.25031067  0.37747941  0.73848589  1
  O  O364  1  0.24532996  0.88105209  0.24358327  1
  O  O365  1  0.24965529  0.89097887  0.75200983  1
  O  O366  1  0.73861152  0.38174069  0.25185052  1
  O  O367  1  0.74664042  0.37744800  0.73867414  1
  O  O368  1  0.75873543  0.87583493  0.23431913  1
  O  O369  1  0.74689413  0.88291197  0.74734036  1
  O  O370  1  0.25022993  0.12013057  0.25658473  1
  O  O371  1  0.24623772  0.10804839  0.74852753  1
  O  O372  1  0.25659289  0.62446653  0.25601263  1
  O  O373  1  0.26036835  0.62512258  0.75712790  1
  O  O374  1  0.75526283  0.12326337  0.26035013  1
  O  O375  1  0.75561968  0.11903059  0.75657435  1
  O  O376  1  0.75557460  0.62047909  0.25693971  1
  O  O377  1  0.75709212  0.62147347  0.75853236  1
  O  O378  1  0.36685356  0.12320483  0.37451583  1
  O  O379  1  0.37562504  0.12197360  0.88161405  1
  O  O380  1  0.36877534  0.62124998  0.36973159  1
  O  O381  1  0.37053743  0.62111028  0.86807743  1
  O  O382  1  0.86641343  0.12013611  0.37173019  1
  O  O383  1  0.87162354  0.11955519  0.87041888  1
  O  O384  1  0.86311515  0.62337179  0.36544577  1
  O  O385  1  0.87162964  0.61909414  0.87152689  1
  O  O386  1  0.13011092  0.37958295  0.12932295  1
  O  O387  1  0.13614262  0.37289164  0.62517190  1
  O  O388  1  0.13191462  0.88054541  0.12787122  1
  O  O389  1  0.11654390  0.88693347  0.62317098  1
  O  O390  1  0.62293497  0.38193034  0.13531177  1
  O  O391  1  0.63270241  0.37719390  0.62680819  1
  O  O392  1  0.63729445  0.88537615  0.11484544  1
  O  O393  1  0.62592778  0.88891625  0.62479255  1
  O  O394  1  0.11965671  0.25525584  0.25541910  1
  O  O395  1  0.12432637  0.25064737  0.76176326  1
  O  O396  1  0.12524177  0.75496919  0.25804637  1
  O  O397  1  0.12282833  0.75285657  0.75648819  1
  O  O398  1  0.62833531  0.26382045  0.25048096  1
  O  O399  1  0.61481071  0.25122168  0.75775106  1
  O  O400  1  0.61444830  0.74599481  0.25743341  1
  O  O401  1  0.61780345  0.74977469  0.75706875  1
  O  O402  1  0.37232183  0.24975026  0.23699292  1
  O  O403  1  0.38314967  0.25440681  0.74123465  1
  O  O404  1  0.38189034  0.74591416  0.24512900  1
  O  O405  1  0.38333683  0.74364875  0.74834331  1
  O  O406  1  0.87965056  0.24438144  0.24529153  1
  O  O407  1  0.87466990  0.24292991  0.73865222  1
  O  O408  1  0.87648581  0.73652892  0.24887479  1
  O  O409  1  0.87659524  0.74224436  0.74254085  1
  O  O410  1  0.38115791  0.49497777  0.49633894  1
  O  O411  1  0.38225852  0.49695071  0.99576763  1
  O  O412  1  0.38308521  0.99407765  0.50210785  1
  O  O413  1  0.38479610  0.99259611  1.00317548  1
  O  O414  1  0.88465602  0.49855003  0.49844090  1
  O  O415  1  0.88107663  0.49431568  0.99563216  1
  O  O416  1  0.87876673  0.99455206  0.49516699  1
  O  O417  1  0.88229664  0.99197973  0.99325074  1
  O  O418  1  0.12372194  0.00663558  0.00195071  1
  O  O419  1  0.12065361  0.00416991  0.50619407  1
  O  O420  1  0.12004449  0.50597572  0.00503941  1
  O  O421  1  0.11240266  0.50586341  0.50081459  1
  O  O422  1  0.62185058  0.00706777  0.00948504  1
  O  O423  1  0.61775356  0.00708542  0.50694738  1
  O  O424  1  0.61915088  0.50467007  0.00698762  1
  O  O425  1  0.61503952  0.49677202  0.51366741  1
  O  O426  1  0.37301509  0.37029855  0.12296630  1
  O  O427  1  0.36746479  0.36636717  0.62123306  1
  O  O428  1  0.36994023  0.86995438  0.11823440  1
  O  O429  1  0.37909345  0.86956032  0.60920852  1
  O  O430  1  0.87363453  0.36834043  0.11907981  1
  O  O431  1  0.86381311  0.36575363  0.62427286  1
  O  O432  1  0.86992509  0.87678697  0.11415722  1
  O  O433  1  0.87332415  0.86712981  0.61759474  1
  O  O434  1  0.12958556  0.13120993  0.38094588  1
  O  O435  1  0.12587812  0.13370856  0.88204894  1
  O  O436  1  0.12848654  0.63217293  0.37907303  1
  O  O437  1  0.13097630  0.63043776  0.88084569  1
  O  O438  1  0.63028021  0.12465114  0.38224029  1
  O  O439  1  0.63221671  0.13105649  0.88231592  1
  O  O440  1  0.63587591  0.63518806  0.36961695  1
  O  O441  1  0.63067429  0.62800004  0.88094533  1
