# generated using pymatgen
data_V93Zn93O256
_symmetry_space_group_name_H-M   'P 1'
_cell_length_a   17.05294398
_cell_length_b   17.05325202
_cell_length_c   17.05267008
_cell_angle_alpha   89.97658553
_cell_angle_beta   90.02062556
_cell_angle_gamma   90.00037340
_symmetry_Int_Tables_number   1
_chemical_formula_structural   V93Zn93O256
_chemical_formula_sum   'V93 Zn93 O256'
_cell_volume   4959.05472541
_cell_formula_units_Z   1
loop_
 _symmetry_equiv_pos_site_id
 _symmetry_equiv_pos_as_xyz
  1  'x, y, z'
loop_
 _atom_site_type_symbol
 _atom_site_label
 _atom_site_symmetry_multiplicity
 _atom_site_fract_x
 _atom_site_fract_y
 _atom_site_fract_z
 _atom_site_occupancy
  V  V0  1  0.00008896  0.12521347  0.12483384  1
  V  V1  1  0.87296200  0.37431275  0.00175349  1
  V  V2  1  0.12405705  0.25002883  0.87462741  1
  V  V3  1  0.37517420  0.24404455  0.13172135  1
  V  V4  1  0.37638370  0.87724594  0.49847376  1
  V  V5  1  0.24958780  0.24908474  0.00047804  1
  V  V6  1  0.12411970  0.75047103  0.87354686  1
  V  V7  1  0.50112904  0.87516731  0.37456213  1
  V  V8  1  0.00134234  0.88124057  0.37666982  1
  V  V9  1  0.00038837  0.62584337  0.12573462  1
  V  V10  1  -0.00021761  0.37495677  0.87516941  1
  V  V11  1  0.49885458  0.74773020  0.24862560  1
  V  V12  1  0.37372858  0.12434073  0.74942701  1
  V  V13  1  0.87635800  0.37171249  0.50802098  1
  V  V14  1  0.12397376  0.12498027  -0.00014347  1
  V  V15  1  0.75016241  0.75485541  0.50072266  1
  V  V16  1  0.25004700  0.37389187  0.12563060  1
  V  V17  1  0.87464299  0.50241349  0.37619335  1
  V  V18  1  0.24938382  0.00057151  0.74848234  1
  V  V19  1  0.49983645  0.24901219  0.75046970  1
  V  V20  1  0.87445898  0.87481375  -0.00038407  1
  V  V21  1  0.62644535  0.62357744  0.50046650  1
  V  V22  1  0.00020207  0.62677615  0.62427096  1
  V  V23  1  0.87609962  0.12438015  0.25065950  1
  V  V24  1  -0.00674545  0.24819819  0.74119946  1
  V  V25  1  0.49785510  -0.00203755  -0.00000484  1
  V  V26  1  0.12652223  0.75724955  0.37202641  1
  V  V27  1  0.00394904  0.75590418  0.24991632  1
  V  V28  1  0.12408477  0.87694217  0.74816164  1
  V  V29  1  0.24921086  0.12460850  0.87461122  1
  V  V30  1  0.62334251  0.12400004  0.00028459  1
  V  V31  1  0.37402156  0.75074781  0.62500481  1
  V  V32  1  0.24928449  0.74992130  -0.00028537  1
  V  V33  1  0.87404911  0.62603645  0.74977091  1
  V  V34  1  0.49769285  0.49926590  -0.00086718  1
  V  V35  1  0.12484853  -0.00374564  0.13056162  1
  V  V36  1  -0.00119700  0.50073367  0.00047773  1
  V  V37  1  0.75043114  0.87340401  0.12432858  1
  V  V38  1  0.24595520  0.87331985  0.12969679  1
  V  V39  1  0.62444177  -0.00072570  0.12500924  1
  V  V40  1  0.25086540  0.50080915  0.25138061  1
  V  V41  1  0.87742836  0.88144702  0.50001543  1
  V  V42  1  0.12471886  0.62504568  -0.00107301  1
  V  V43  1  0.25090265  0.38319931  0.62742340  1
  V  V44  1  0.87026461  0.75701320  0.62458559  1
  V  V45  1  0.12685322  0.25056842  0.37508812  1
  V  V46  1  0.00379393  0.50288539  0.50317794  1
  V  V47  1  0.37383708  -0.00127489  0.87454541  1
  V  V48  1  0.24917508  0.61835352  0.87014042  1
  V  V49  1  0.12547034  0.49998546  0.12495647  1
  V  V50  1  0.62729172  0.12396216  0.50054344  1
  V  V51  1  0.62638437  0.87339980  0.74574469  1
  V  V52  1  0.87425121  0.25095802  0.12453439  1
  V  V53  1  0.25027944  0.75219432  0.49812292  1
  V  V54  1  0.74952295  -0.00389544  0.74753178  1
  V  V55  1  0.87388057  0.50073343  0.87608161  1
  V  V56  1  -0.00077775  -0.00029148  -0.00085453  1
  V  V57  1  0.62795774  0.24943856  0.37396813  1
  V  V58  1  0.11711473  0.00340198  0.61993039  1
  V  V59  1  0.62472608  0.49743988  0.12640160  1
  V  V60  1  0.00226941  0.37682180  0.37586234  1
  V  V61  1  0.50066475  -0.00102330  0.49933438  1
  V  V62  1  0.75498760  0.24938995  0.50858408  1
  V  V63  1  0.62612088  0.87323806  0.25053160  1
  V  V64  1  0.25211121  0.62551394  0.37382299  1
  V  V65  1  0.75003601  0.12336566  0.87553251  1
  V  V66  1  0.25762007  0.00215217  0.24871014  1
  V  V67  1  -0.00070749  0.87623393  0.87501905  1
  V  V68  1  0.24929858  0.87688566  0.62301008  1
  V  V69  1  0.62482719  0.37476003  0.74942298  1
  V  V70  1  0.49554081  0.12318387  0.13290729  1
  V  V71  1  0.12494271  0.37626618  0.25046318  1
  V  V72  1  0.12101219  0.12357036  0.49890229  1
  V  V73  1  0.74910237  0.49906994  0.75034531  1
  V  V74  1  0.49891429  0.12376152  0.62445639  1
  V  V75  1  0.75344219  -0.00002975  0.25402725  1
  V  V76  1  -0.00130524  0.75203247  0.74872933  1
  V  V77  1  0.37209433  0.25126218  0.62288499  1
  V  V78  1  0.25728448  0.12619781  0.36999412  1
  V  V79  1  0.74871577  0.74987976  -0.00026057  1
  V  V80  1  0.37269941  0.87374234  -0.00139837  1
  V  V81  1  0.00021984  0.25069062  0.25018267  1
  V  V82  1  0.62298013  0.24822860  0.87518444  1
  V  V83  1  0.62368503  0.74877604  0.87450341  1
  V  V84  1  0.37450784  0.37401379  -0.00025193  1
  V  V85  1  0.74839983  0.62545404  0.87565217  1
  V  V86  1  0.87464162  0.62527818  0.25126490  1
  V  V87  1  0.49882147  0.74916942  0.75076427  1
  V  V88  1  0.50034466  0.62421218  0.62403895  1
  V  V89  1  0.62607658  -0.00298967  0.62556094  1
  V  V90  1  0.50030266  0.37475055  0.37638599  1
  V  V91  1  0.36996098  0.61749308  0.74889918  1
  V  V92  1  0.12910372  0.38067498  0.74963187  1
  Zn  Zn93  1  0.74763948  0.25097233  0.00222434  1
  Zn  Zn94  1  0.37428817  0.37956095  0.49954501  1
  Zn  Zn95  1  0.74930479  0.37300291  0.12820234  1
  Zn  Zn96  1  0.74921186  0.62563705  0.37497597  1
  Zn  Zn97  1  0.49582786  0.37390094  0.87424237  1
  Zn  Zn98  1  0.12613936  0.62766621  0.50212119  1
  Zn  Zn99  1  0.75492935  0.37353014  0.62889077  1
  Zn  Zn100  1  0.62221775  0.62460850  0.00092868  1
  Zn  Zn101  1  0.88337302  0.00369731  0.38107441  1
  Zn  Zn102  1  0.62766118  0.37395330  0.25037735  1
  Zn  Zn103  1  0.37501353  0.74706381  0.12378544  1
  Zn  Zn104  1  0.49769618  0.62415222  0.12470949  1
  Zn  Zn105  1  0.87395520  0.74932026  0.12575725  1
  Zn  Zn106  1  0.87043085  0.12812447  0.74385738  1
  Zn  Zn107  1  0.49817912  0.87340552  0.87526486  1
  Zn  Zn108  1  0.37659152  0.62253461  0.24715302  1
  Zn  Zn109  1  0.37944988  0.00528461  0.36991445  1
  Zn  Zn110  1  0.37098943  0.49510798  0.87104873  1
  Zn  Zn111  1  0.74862518  0.49801768  0.24940854  1
  Zn  Zn112  1  0.13232409  0.50679448  0.63147496  1
  Zn  Zn113  1  0.62633131  0.49860439  0.62500879  1
  Zn  Zn114  1  0.87569940  0.00171197  0.87344845  1
  Zn  Zn115  1  0.50065384  0.49846562  0.50037589  1
  Zn  Zn116  1  0.25073104  0.25133156  0.49826276  1
  Zn  Zn117  1  0.62769864  0.74856242  0.37379226  1
  Zn  Zn118  1  -0.00953883  0.12745096  0.61345527  1
  Zn  Zn119  1  0.49914252  0.24700247  0.25253908  1
  Zn  Zn120  1  0.37884087  0.49920592  0.37462463  1
  Zn  Zn121  1  0.75498006  0.12542594  0.37767452  1
  Zn  Zn122  1  0.18689377  0.18612762  0.18849738  1
  Zn  Zn123  1  0.18493433  0.19054923  0.68655870  1
  Zn  Zn124  1  0.18660449  0.68720991  0.18854949  1
  Zn  Zn125  1  0.18727768  0.68892035  0.68661965  1
  Zn  Zn126  1  0.68853544  0.18555959  0.18724430  1
  Zn  Zn127  1  0.68667626  0.18509130  0.68783697  1
  Zn  Zn128  1  0.68523078  0.68400987  0.18552753  1
  Zn  Zn129  1  0.68803398  0.68744422  0.68631351  1
  Zn  Zn130  1  0.31402794  0.31316385  0.31211982  1
  Zn  Zn131  1  0.31094086  0.31244472  0.81117877  1
  Zn  Zn132  1  0.31578279  0.81535443  0.31078215  1
  Zn  Zn133  1  0.31088589  0.80991588  0.81173246  1
  Zn  Zn134  1  0.81187365  0.31455039  0.31450017  1
  Zn  Zn135  1  0.81092352  0.31274560  0.81616677  1
  Zn  Zn136  1  0.81497721  0.81235508  0.31566731  1
  Zn  Zn137  1  0.81135413  0.81377342  0.81431563  1
  Zn  Zn138  1  0.19074641  0.43741946  0.44095057  1
  Zn  Zn139  1  0.18666733  0.43665001  0.93857196  1
  Zn  Zn140  1  0.18797651  0.94085829  0.43575349  1
  Zn  Zn141  1  0.18622512  0.93765744  0.93885504  1
  Zn  Zn142  1  0.68933874  0.43553073  0.43926598  1
  Zn  Zn143  1  0.68595655  0.43584430  0.93893688  1
  Zn  Zn144  1  0.68865628  0.93513057  0.43776385  1
  Zn  Zn145  1  0.68497547  0.93535713  0.93510736  1
  Zn  Zn146  1  0.31202334  0.06148057  0.06153320  1
  Zn  Zn147  1  0.30922000  0.06319654  0.55801242  1
  Zn  Zn148  1  0.31437077  0.56359913  0.06330180  1
  Zn  Zn149  1  0.31660462  0.56273858  0.55715643  1
  Zn  Zn150  1  0.81292960  0.06171728  0.06312036  1
  Zn  Zn151  1  0.81267492  0.06408590  0.56746525  1
  Zn  Zn152  1  0.80971256  0.56292518  0.06357822  1
  Zn  Zn153  1  0.81151619  0.56361841  0.56540495  1
  Zn  Zn154  1  0.43890527  0.43429853  0.19082251  1
  Zn  Zn155  1  0.44099803  0.43767588  0.68490319  1
  Zn  Zn156  1  0.43584347  0.93231167  0.18533857  1
  Zn  Zn157  1  0.43893331  0.93612465  0.68695877  1
  Zn  Zn158  1  0.93756225  0.43762202  0.18734557  1
  Zn  Zn159  1  0.94112795  0.43917631  0.68955976  1
  Zn  Zn160  1  0.93625764  0.93664655  0.18679079  1
  Zn  Zn161  1  0.93470347  0.94024977  0.68732537  1
  Zn  Zn162  1  0.06804674  0.06441381  0.31122156  1
  Zn  Zn163  1  0.06233383  0.06340135  0.81066006  1
  Zn  Zn164  1  0.06458965  0.56662163  0.31421092  1
  Zn  Zn165  1  0.05984826  0.56366121  0.81282965  1
  Zn  Zn166  1  0.56677042  0.06152231  0.31422803  1
  Zn  Zn167  1  0.56130753  0.06103257  0.81307109  1
  Zn  Zn168  1  0.56422962  0.56213335  0.31366029  1
  Zn  Zn169  1  0.55960647  0.56141831  0.81384706  1
  Zn  Zn170  1  0.43996831  0.18887393  0.43911809  1
  Zn  Zn171  1  0.43721448  0.18603135  0.94022127  1
  Zn  Zn172  1  0.43902869  0.68935241  0.43606438  1
  Zn  Zn173  1  0.43560740  0.68543864  0.93666176  1
  Zn  Zn174  1  0.93744077  0.18938560  0.43539626  1
  Zn  Zn175  1  0.93565495  0.18847607  0.93480215  1
  Zn  Zn176  1  0.93862718  0.69092586  0.43787222  1
  Zn  Zn177  1  0.93565995  0.68933848  0.93751812  1
  Zn  Zn178  1  0.06102772  0.31294187  0.06242606  1
  Zn  Zn179  1  0.06736816  0.31411443  0.56164442  1
  Zn  Zn180  1  0.06201386  0.81204075  0.06177103  1
  Zn  Zn181  1  0.06170278  0.81437051  0.55946190  1
  Zn  Zn182  1  0.56113030  0.31229876  0.06272142  1
  Zn  Zn183  1  0.56373965  0.31090147  0.56189231  1
  Zn  Zn184  1  0.56228017  0.81195022  0.06252753  1
  Zn  Zn185  1  0.56247034  0.81031384  0.56303348  1
  O  O186  1  0.11945976  0.11749949  0.11912288  1
  O  O187  1  0.12509293  0.11957856  0.61601990  1
  O  O188  1  0.12013423  0.61947135  0.11882622  1
  O  O189  1  0.11815155  0.62364971  0.62278186  1
  O  O190  1  0.61644624  0.11869972  0.11979941  1
  O  O191  1  0.61771546  0.11858641  0.61992425  1
  O  O192  1  0.62039337  0.61233926  0.12114579  1
  O  O193  1  0.61893487  0.62620271  0.61690133  1
  O  O194  1  0.38722209  0.37127522  0.37753116  1
  O  O195  1  0.37348240  0.37626744  0.88221639  1
  O  O196  1  0.38252986  0.87921638  0.38159362  1
  O  O197  1  0.37298412  0.88108442  0.87979451  1
  O  O198  1  0.88328485  0.38493490  0.38396787  1
  O  O199  1  0.88016990  0.38179628  0.88143189  1
  O  O200  1  0.88462583  0.87721693  0.38274471  1
  O  O201  1  0.88188753  0.87634162  0.88178795  1
  O  O202  1  0.25012235  0.00729466  0.36425314  1
  O  O203  1  0.25320326  0.00526392  0.86878136  1
  O  O204  1  0.24680104  0.51100781  0.37020786  1
  O  O205  1  0.24918482  0.51480523  0.88027968  1
  O  O206  1  0.75131193  -0.00010541  0.36177732  1
  O  O207  1  0.74683317  0.00863776  0.86665954  1
  O  O208  1  0.76564150  0.50222608  0.37658758  1
  O  O209  1  0.75513473  0.50538069  0.87048799  1
  O  O210  1  0.24373329  0.49380319  0.12969306  1
  O  O211  1  0.25076954  0.48800619  0.61979177  1
  O  O212  1  0.24360635  0.99448533  0.12918431  1
  O  O213  1  0.24199523  0.99577836  0.62986756  1
  O  O214  1  0.73815098  0.49767326  0.12483866  1
  O  O215  1  0.74794573  0.49708600  0.63525420  1
  O  O216  1  0.74498471  0.99463677  0.13400442  1
  O  O217  1  0.74002887  1.00568126  0.63994633  1
  O  O218  1  0.00589479  0.37103949  0.25573768  1
  O  O219  1  0.00702497  0.36614866  0.75515626  1
  O  O220  1  -0.00820950  0.86209971  0.25790713  1
  O  O221  1  0.00495632  0.87118621  0.75491143  1
  O  O222  1  0.50498820  0.36830202  0.26232406  1
  O  O223  1  0.50787850  0.36820151  0.75203479  1
  O  O224  1  0.50615221  0.86870571  0.25375699  1
  O  O225  1  0.50765968  0.86803829  0.75213985  1
  O  O226  1  0.50465977  0.12303580  0.23642187  1
  O  O227  1  0.49373549  0.12824628  0.74359210  1
  O  O228  1  0.49950066  0.63669327  0.25223602  1
  O  O229  1  0.49091876  0.63054855  0.74512245  1
  O  O230  1  0.99711166  0.13063234  0.24425493  1
  O  O231  1  1.00180025  0.14242967  0.75216813  1
  O  O232  1  0.99395180  0.63349164  0.24648739  1
  O  O233  1  0.99314641  0.63269375  0.74576893  1
  O  O234  1  0.36840179  0.25385987  0.00808961  1
  O  O235  1  0.37503899  0.25072615  0.51474104  1
  O  O236  1  0.36645427  0.75556295  -0.00033267  1
  O  O237  1  0.37018570  0.75709551  0.50531478  1
  O  O238  1  0.87517565  0.25616347  0.00648888  1
  O  O239  1  0.86737665  0.26138736  0.49190447  1
  O  O240  1  0.86776365  0.75626238  0.00224675  1
  O  O241  1  0.86918158  0.75610493  0.50682250  1
  O  O242  1  0.12854274  0.24334738  0.49260660  1
  O  O243  1  0.12941242  0.24472405  0.99561903  1
  O  O244  1  0.13177776  0.75007923  0.49028855  1
  O  O245  1  0.12833566  0.74392327  0.99289813  1
  O  O246  1  0.63370241  0.24399858  0.49358444  1
  O  O247  1  0.62458506  0.24196321  0.99348987  1
  O  O248  1  0.63504821  0.74360924  0.50159400  1
  O  O249  1  0.63043449  0.74935023  0.99254258  1
  O  O250  1  0.49207550  0.23985735  0.12529362  1
  O  O251  1  0.49191723  0.24386105  0.63048945  1
  O  O252  1  0.49958788  0.74951317  0.13611143  1
  O  O253  1  0.49278480  0.74414349  0.63077461  1
  O  O254  1  0.99591897  0.24453168  0.13106499  1
  O  O255  1  1.00597375  0.25222233  0.63928386  1
  O  O256  1  1.00066279  0.74485472  0.13397889  1
  O  O257  1  0.99199325  0.74646674  0.62935798  1
  O  O258  1  0.00694898  0.25759270  0.36878157  1
  O  O259  1  0.00618755  0.25660001  0.86875958  1
  O  O260  1  0.00801692  0.75690590  0.36865199  1
  O  O261  1  0.00477077  0.75549414  0.86849364  1
  O  O262  1  0.51080857  0.25386938  0.37527344  1
  O  O263  1  0.50477699  0.24812203  0.86803209  1
  O  O264  1  0.50300168  0.75746868  0.36594850  1
  O  O265  1  0.50533688  0.74938349  0.86817037  1
  O  O266  1  0.24011039  0.12804498  0.48928030  1
  O  O267  1  0.24370493  0.12934707  0.99440987  1
  O  O268  1  0.24909484  0.63348232  0.49042389  1
  O  O269  1  0.24343870  0.63040100  0.99186091  1
  O  O270  1  0.74566194  0.13233769  0.49923445  1
  O  O271  1  0.74292604  0.12244214  0.99065490  1
  O  O272  1  0.74365281  0.63473810  0.50119330  1
  O  O273  1  0.74842705  0.63173931  0.99252052  1
  O  O274  1  0.25288351  0.36838492  0.00664770  1
  O  O275  1  0.25259769  0.37014348  0.51090951  1
  O  O276  1  0.25274189  0.87004089  0.00714729  1
  O  O277  1  0.25611029  0.87206283  0.50371356  1
  O  O278  1  0.75884536  0.37171695  0.00172549  1
  O  O279  1  0.75960118  0.36772204  0.50331025  1
  O  O280  1  0.75386022  0.87036287  0.00423432  1
  O  O281  1  0.75995482  0.86261337  0.49471787  1
  O  O282  1  0.12877666  0.49562381  0.24468990  1
  O  O283  1  0.11495377  0.48521827  0.74946055  1
  O  O284  1  0.13456423  1.00387031  0.23512782  1
  O  O285  1  0.13099961  0.99644917  0.74181075  1
  O  O286  1  0.62610437  0.49910354  0.23937725  1
  O  O287  1  0.62994925  0.48995253  0.75252632  1
  O  O288  1  0.63440579  0.99432674  0.24456599  1
  O  O289  1  0.62835001  0.99175866  0.74659954  1
  O  O290  1  0.36202321  -0.00244925  0.24863274  1
  O  O291  1  0.36908802  0.00481123  0.75340258  1
  O  O292  1  0.36592524  0.50005840  0.25448344  1
  O  O293  1  0.37940706  0.51421643  0.74997419  1
  O  O294  1  0.86681182  0.00526393  0.24931793  1
  O  O295  1  0.86134157  -0.00244355  0.75389265  1
  O  O296  1  0.88080235  0.50940073  0.26043608  1
  O  O297  1  0.87083507  0.50554400  0.75670063  1
  O  O298  1  0.12164348  0.37133544  0.37013193  1
  O  O299  1  0.12097732  0.37032099  0.86909004  1
  O  O300  1  0.11816657  0.86455006  0.38063555  1
  O  O301  1  0.11997960  0.87035237  0.86876415  1
  O  O302  1  0.61932464  0.36432845  0.37784231  1
  O  O303  1  0.62416658  0.36687216  0.86431361  1
  O  O304  1  0.61876633  0.87317371  0.36791334  1
  O  O305  1  0.62057936  0.86792875  0.86400120  1
  O  O306  1  0.38395435  0.13253042  0.11688076  1
  O  O307  1  0.37776080  0.13162232  0.62964321  1
  O  O308  1  0.37804827  0.62969873  0.12959250  1
  O  O309  1  0.37777496  0.63155445  0.63135677  1
  O  O310  1  0.88196952  0.12989525  0.13034890  1
  O  O311  1  0.88125013  0.12107713  0.63201776  1
  O  O312  1  0.88195839  0.62443849  0.13510454  1
  O  O313  1  0.88048832  0.63554494  0.63091451  1
  O  O314  1  0.25550981  0.25245449  0.12028032  1
  O  O315  1  0.25939950  0.25790465  0.62577930  1
  O  O316  1  0.24533386  0.75930517  0.11924723  1
  O  O317  1  0.25390848  0.75755048  0.61849104  1
  O  O318  1  0.75887704  0.24938412  0.12238873  1
  O  O319  1  0.74529123  0.25140822  0.61221710  1
  O  O320  1  0.75011135  0.75573269  0.11858277  1
  O  O321  1  0.76263672  0.74637781  0.61735132  1
  O  O322  1  0.24442915  0.24240369  0.37218257  1
  O  O323  1  0.24418106  0.24360819  0.88069903  1
  O  O324  1  0.24387882  0.74707485  0.37653712  1
  O  O325  1  0.24226907  0.74150013  0.87943034  1
  O  O326  1  0.74284963  0.24933335  0.38647290  1
  O  O327  1  0.74288328  0.23775535  0.87564759  1
  O  O328  1  0.75034375  0.74600275  0.38630093  1
  O  O329  1  0.74399407  0.74474158  0.87949605  1
  O  O330  1  0.00429930  0.12020164  0.00475626  1
  O  O331  1  0.01587880  0.13149999  0.49697599  1
  O  O332  1  0.00477417  0.62089473  0.00442739  1
  O  O333  1  -0.00023765  0.61821204  0.50483262  1
  O  O334  1  0.50436088  0.11708516  0.00897956  1
  O  O335  1  0.50689114  0.11876352  0.50569891  1
  O  O336  1  0.49950563  0.61224280  0.00065263  1
  O  O337  1  0.51110577  0.62878531  0.50512435  1
  O  O338  1  0.50022869  0.37399825  0.49008699  1
  O  O339  1  0.49249215  0.38155692  0.99776432  1
  O  O340  1  0.49672764  0.87946879  0.49519835  1
  O  O341  1  0.49149968  0.88053746  0.99919182  1
  O  O342  1  0.99539169  0.38269641  0.49616826  1
  O  O343  1  0.99515736  0.38151508  0.99476338  1
  O  O344  1  0.98932747  0.86827179  0.48797859  1
  O  O345  1  0.99559319  0.87979159  0.99440227  1
  O  O346  1  0.50261722  0.48694203  0.37652837  1
  O  O347  1  0.49566129  0.49641560  0.88617873  1
  O  O348  1  0.49982368  0.99492372  0.38089247  1
  O  O349  1  0.49139666  0.99924444  0.88185743  1
  O  O350  1  0.99434809  0.49781609  0.38333163  1
  O  O351  1  0.99335876  0.49571592  0.88109579  1
  O  O352  1  1.00412306  0.98508193  0.36470995  1
  O  O353  1  1.00040604  0.99429686  0.88058428  1
  O  O354  1  0.00743320  0.00379971  0.12084638  1
  O  O355  1  0.01509425  0.00315868  0.63209609  1
  O  O356  1  0.00624085  0.50575203  0.11990623  1
  O  O357  1  -0.00035756  0.50808703  0.61653377  1
  O  O358  1  0.50351133  0.00460588  0.12049955  1
  O  O359  1  0.50559469  0.00477033  0.61935327  1
  O  O360  1  0.50635675  0.49753194  0.11660023  1
  O  O361  1  0.50515603  0.50919179  0.62171191  1
  O  O362  1  0.24338096  0.38030567  0.24493229  1
  O  O363  1  0.23921843  0.36956861  0.74160348  1
  O  O364  1  0.25199598  0.88294449  0.23706869  1
  O  O365  1  0.24336398  0.87975536  0.74317599  1
  O  O366  1  0.74756683  0.38021873  0.24805223  1
  O  O367  1  0.74207689  0.37883190  0.75046913  1
  O  O368  1  0.74771698  0.88085688  0.24526451  1
  O  O369  1  0.73760415  0.88394988  0.75741633  1
  O  O370  1  0.24406987  0.11568827  0.25917171  1
  O  O371  1  0.25367326  0.12070430  0.75494960  1
  O  O372  1  0.24866434  0.61988307  0.25891487  1
  O  O373  1  0.25775176  0.63206805  0.75822909  1
  O  O374  1  0.75689222  0.11464545  0.25068722  1
  O  O375  1  0.74591506  0.11565852  0.76022493  1
  O  O376  1  0.76377115  0.62318897  0.25202527  1
  O  O377  1  0.75563530  0.62039279  0.75552187  1
  O  O378  1  0.36177833  0.12464478  0.38233370  1
  O  O379  1  0.36834019  0.11957169  0.86949056  1
  O  O380  1  0.36128389  0.62763248  0.37215644  1
  O  O381  1  0.36456362  0.62461305  0.86544996  1
  O  O382  1  0.87533892  0.12029258  0.36774698  1
  O  O383  1  0.86282335  0.12331078  0.87016389  1
  O  O384  1  0.87853336  0.61785871  0.36803347  1
  O  O385  1  0.86963539  0.62070660  0.86900968  1
  O  O386  1  0.13000540  0.37983554  0.13013134  1
  O  O387  1  0.13414416  0.37751609  0.63288072  1
  O  O388  1  0.13418487  0.88604648  0.11609917  1
  O  O389  1  0.12899851  0.88331485  0.62745821  1
  O  O390  1  0.62524122  0.38351985  0.12700308  1
  O  O391  1  0.62589587  0.37430444  0.63936255  1
  O  O392  1  0.63097646  0.88088484  0.13055548  1
  O  O393  1  0.61902320  0.87959382  0.63807762  1
  O  O394  1  0.11962943  0.25676911  0.25416744  1
  O  O395  1  0.11643047  0.25974795  0.75584212  1
  O  O396  1  0.11441504  0.74538286  0.25988646  1
  O  O397  1  0.11852091  0.75752313  0.75343473  1
  O  O398  1  0.62602386  0.24748390  0.26397838  1
  O  O399  1  0.61945703  0.25537971  0.75456126  1
  O  O400  1  0.61794719  0.75532139  0.25084820  1
  O  O401  1  0.62076008  0.75620746  0.75322287  1
  O  O402  1  0.37550532  0.25174547  0.23457750  1
  O  O403  1  0.37915660  0.24359911  0.74215526  1
  O  O404  1  0.38734686  0.75116266  0.24748826  1
  O  O405  1  0.37868857  0.74244157  0.74377301  1
  O  O406  1  0.88187334  0.24484779  0.24662745  1
  O  O407  1  0.89091942  0.25435576  0.75522594  1
  O  O408  1  0.88470470  0.74019439  0.25092082  1
  O  O409  1  0.87816513  0.74798884  0.74257182  1
  O  O410  1  0.38203441  0.49750021  0.49229585  1
  O  O411  1  0.38198197  0.49175731  1.00066274  1
  O  O412  1  0.38299467  0.99418085  0.49992414  1
  O  O413  1  0.37743307  0.99396598  0.99351056  1
  O  O414  1  0.88413145  0.49550939  0.49389862  1
  O  O415  1  0.88053983  0.49617179  0.99560354  1
  O  O416  1  0.86512994  0.98496151  0.49967296  1
  O  O417  1  0.88206774  0.99370515  0.99848592  1
  O  O418  1  0.11971119  0.00616367  0.00838784  1
  O  O419  1  0.13189423  0.01021173  0.50935601  1
  O  O420  1  0.11842831  0.50535182  0.00520142  1
  O  O421  1  0.11164334  0.50162825  0.50093386  1
  O  O422  1  0.61845409  0.00276239  0.00597288  1
  O  O423  1  0.62152591  0.00316696  0.50552419  1
  O  O424  1  0.61408656  0.49823895  0.00668565  1
  O  O425  1  0.62754606  0.51196211  0.50298236  1
  O  O426  1  0.36898594  0.36467798  0.11958481  1
  O  O427  1  0.36828174  0.36618421  0.62878603  1
  O  O428  1  0.36176039  0.87285425  0.11652222  1
  O  O429  1  0.36916193  0.87043007  0.61962662  1
  O  O430  1  0.87660896  0.36886082  0.11897137  1
  O  O431  1  0.87714159  0.38143478  0.61114717  1
  O  O432  1  0.86828890  0.87251713  0.11771342  1
  O  O433  1  0.88394432  0.86413969  0.61560080  1
  O  O434  1  0.13358994  0.13023506  0.38051135  1
  O  O435  1  0.13036757  0.12948237  0.88054423  1
  O  O436  1  0.13457665  0.63718309  0.37738858  1
  O  O437  1  0.12994365  0.63050205  0.87771926  1
  O  O438  1  0.62821778  0.13290022  0.38254092  1
  O  O439  1  0.63056802  0.12814200  0.88002074  1
  O  O440  1  0.62862748  0.62734195  0.38726999  1
  O  O441  1  0.63145241  0.63108380  0.87477816  1
