# generated using pymatgen
data_V93Zn93O256
_symmetry_space_group_name_H-M   'P 1'
_cell_length_a   17.04517167
_cell_length_b   17.04799583
_cell_length_c   17.04694065
_cell_angle_alpha   89.95680731
_cell_angle_beta   90.05498605
_cell_angle_gamma   90.01462612
_symmetry_Int_Tables_number   1
_chemical_formula_structural   V93Zn93O256
_chemical_formula_sum   'V93 Zn93 O256'
_cell_volume   4953.59871234
_cell_formula_units_Z   1
loop_
 _symmetry_equiv_pos_site_id
 _symmetry_equiv_pos_as_xyz
  1  'x, y, z'
loop_
 _atom_site_type_symbol
 _atom_site_label
 _atom_site_symmetry_multiplicity
 _atom_site_fract_x
 _atom_site_fract_y
 _atom_site_fract_z
 _atom_site_occupancy
  V  V0  1  0.37348913  0.37222509  0.50224275  1
  V  V1  1  0.50602951  0.12206709  0.11842381  1
  V  V2  1  0.12612518  0.75241967  0.37517688  1
  V  V3  1  0.62638242  0.75019768  0.37457712  1
  V  V4  1  0.50059636  0.37307607  0.87183249  1
  V  V5  1  0.62915514  0.24866316  0.37695952  1
  V  V6  1  0.38104751  0.87801879  0.50232107  1
  V  V7  1  0.62522007  0.50045467  0.12287194  1
  V  V8  1  0.75447047  0.74816475  0.50230626  1
  V  V9  1  -0.00072115  0.62569449  0.12503395  1
  V  V10  1  -0.00339201  0.62743705  0.62538534  1
  V  V11  1  0.12288459  0.87397340  0.75105050  1
  V  V12  1  0.87308239  0.12330372  0.74921564  1
  V  V13  1  0.74799279  0.24777492  -0.00108309  1
  V  V14  1  0.25034088  0.50114537  0.24929178  1
  V  V15  1  0.37380711  0.37587350  -0.00047781  1
  V  V16  1  0.50127732  0.50098716  -0.00039597  1
  V  V17  1  0.37522854  0.12567523  0.25182660  1
  V  V18  1  0.25100110  0.75098210  0.50158873  1
  V  V19  1  0.62531443  0.86418495  0.75477548  1
  V  V20  1  0.87312287  -0.00586059  0.88207568  1
  V  V21  1  0.25112107  0.62657298  0.37532527  1
  V  V22  1  -0.00187347  0.24837381  0.75017309  1
  V  V23  1  0.12236348  0.25018373  0.87527563  1
  V  V24  1  0.74832712  0.37397665  0.62503841  1
  V  V25  1  0.87365412  0.37759077  -0.00399018  1
  V  V26  1  0.50360423  0.86702258  0.87595388  1
  V  V27  1  0.37640100  0.62753463  0.24938860  1
  V  V28  1  0.12461510  0.24993126  0.37486823  1
  V  V29  1  0.87421621  0.12567449  0.25014495  1
  V  V30  1  0.12551075  0.00146119  0.12474578  1
  V  V31  1  0.00003894  0.25228549  0.24912273  1
  V  V32  1  0.75729969  0.87302720  0.12094321  1
  V  V33  1  0.50018791  0.62513529  0.62631652  1
  V  V34  1  0.37716203  0.87634809  0.00185107  1
  V  V35  1  0.62501976  0.63121098  -0.00581376  1
  V  V36  1  0.87468510  0.62297451  0.74896478  1
  V  V37  1  0.75376730  0.86740492  0.62688885  1
  V  V38  1  -0.00614465  0.75056504  0.74598733  1
  V  V39  1  0.37636916  0.75318269  0.12674326  1
  V  V40  1  0.50118492  0.37620148  0.37459268  1
  V  V41  1  0.25098431  0.87432918  0.62683989  1
  V  V42  1  0.62639008  0.62415418  0.49965010  1
  V  V43  1  0.25115748  0.87694767  0.12428238  1
  V  V44  1  0.24845264  0.12431824  0.87536397  1
  V  V45  1  0.62562865  0.37643995  0.24845956  1
  V  V46  1  0.75408422  0.49665063  0.75538259  1
  V  V47  1  0.24986004  0.62503060  0.87396804  1
  V  V48  1  0.50030127  0.25085669  0.24930159  1
  V  V49  1  -0.00697881  0.50176736  -0.00665011  1
  V  V50  1  0.24994987  0.37673239  0.12534887  1
  V  V51  1  0.74600499  -0.00253339  0.74828069  1
  V  V52  1  0.62002270  0.11645869  0.50338604  1
  V  V53  1  0.38176194  0.00140015  0.38065230  1
  V  V54  1  0.12423031  0.12526444  0.49965458  1
  V  V55  1  0.87441341  0.37364053  0.49956740  1
  V  V56  1  0.12282462  0.37604640  0.74930650  1
  V  V57  1  0.87544160  0.50143646  0.37465130  1
  V  V58  1  0.12498369  -0.00030837  0.62558349  1
  V  V59  1  0.12502107  0.62528033  0.50068707  1
  V  V60  1  0.25056502  0.12567960  0.37622117  1
  V  V61  1  0.00009139  0.12609211  0.12353618  1
  V  V62  1  0.74877762  0.37533053  0.12280968  1
  V  V63  1  0.12231508  0.12514407  0.00081317  1
  V  V64  1  0.75553925  0.75206940  -0.00292566  1
  V  V65  1  0.50236291  0.87803208  0.37967732  1
  V  V66  1  0.37627373  0.74953059  0.62680907  1
  V  V67  1  -0.00561769  0.37658321  0.87471385  1
  V  V68  1  0.37608304  0.50116631  0.37428446  1
  V  V69  1  0.87444032  0.25147335  0.12398127  1
  V  V70  1  0.87491731  0.62831649  0.24861950  1
  V  V71  1  0.37437005  0.25011685  0.12527600  1
  V  V72  1  0.37385043  0.50057405  0.87462520  1
  V  V73  1  0.12518056  0.37623590  0.25026403  1
  V  V74  1  0.12517912  0.87621896  0.25124796  1
  V  V75  1  0.87655857  0.87102649  0.50291712  1
  V  V76  1  0.12488759  0.49881991  0.62582039  1
  V  V77  1  0.75115344  0.00061508  0.25028044  1
  V  V78  1  0.50097781  0.50060713  0.49944855  1
  V  V79  1  0.24777764  0.25137733  0.00000864  1
  V  V80  1  -0.00159059  0.12365401  0.62614249  1
  V  V81  1  0.12510638  0.62599118  -0.00060604  1
  V  V82  1  0.50105506  0.75159374  0.25009605  1
  V  V83  1  -0.00042251  0.50123835  0.49978749  1
  V  V84  1  0.75058162  0.62538622  0.87404967  1
  V  V85  1  0.62711860  0.87546918  0.24851391  1
  V  V86  1  0.62311081  0.24677967  0.87721962  1
  V  V87  1  -0.00102429  -0.00171698  0.50035321  1
  V  V88  1  0.75136000  0.62511563  0.37469647  1
  V  V89  1  -0.00449841  0.87343976  0.88192638  1
  V  V90  1  0.74261681  0.12159201  0.88046560  1
  V  V91  1  0.37498181  -0.00073202  0.87545938  1
  V  V92  1  0.24880613  -0.00045910  0.75191505  1
  Zn  Zn93  1  0.87767621  0.00082100  0.37559192  1
  Zn  Zn94  1  0.00011591  0.37609845  0.37388608  1
  Zn  Zn95  1  0.37611943  0.12776015  0.74852316  1
  Zn  Zn96  1  0.25123892  0.75104623  -0.00027347  1
  Zn  Zn97  1  0.25120947  0.00189858  0.25079704  1
  Zn  Zn98  1  0.50259225  0.74444914  0.75502300  1
  Zn  Zn99  1  0.75265838  0.12374240  0.37802524  1
  Zn  Zn100  1  0.37495641  0.62453818  0.75073233  1
  Zn  Zn101  1  0.12536209  0.50064569  0.12555851  1
  Zn  Zn102  1  0.87379556  0.24726741  0.62413470  1
  Zn  Zn103  1  0.24835152  0.25107409  0.50302581  1
  Zn  Zn104  1  -0.00118359  0.87527690  0.37498571  1
  Zn  Zn105  1  0.62446449  0.37367230  0.74777067  1
  Zn  Zn106  1  0.61516228  -0.00929146  0.61681519  1
  Zn  Zn107  1  0.75036827  0.50080946  0.24793010  1
  Zn  Zn108  1  0.37326228  0.24668907  0.62899848  1
  Zn  Zn109  1  0.50190504  0.62761536  0.12370852  1
  Zn  Zn110  1  0.25013042  0.49912930  0.74839310  1
  Zn  Zn111  1  0.49281185  0.11880259  0.62694446  1
  Zn  Zn112  1  0.24982802  0.37398644  0.62711214  1
  Zn  Zn113  1  0.75106291  0.24515229  0.50301235  1
  Zn  Zn114  1  0.49820341  0.24603431  0.74512330  1
  Zn  Zn115  1  0.00099728  0.75133410  0.25077499  1
  Zn  Zn116  1  0.62474746  0.49845169  0.62606317  1
  Zn  Zn117  1  0.87990998  0.75532431  0.11902421  1
  Zn  Zn118  1  0.63059925  0.00308557  0.11761267  1
  Zn  Zn119  1  -0.00376253  -0.00459205  0.00248651  1
  Zn  Zn120  1  0.12518567  0.75148598  0.87486242  1
  Zn  Zn121  1  0.51108384  0.00377172  -0.00697445  1
  Zn  Zn122  1  0.18802187  0.18841252  0.18901709  1
  Zn  Zn123  1  0.19014486  0.18935942  0.68644862  1
  Zn  Zn124  1  0.18889049  0.69029306  0.18675842  1
  Zn  Zn125  1  0.18427598  0.68773656  0.68926577  1
  Zn  Zn126  1  0.68791773  0.18932306  0.18868862  1
  Zn  Zn127  1  0.68444943  0.18853132  0.68917901  1
  Zn  Zn128  1  0.68838619  0.68861256  0.18336705  1
  Zn  Zn129  1  0.68805861  0.68535481  0.68646819  1
  Zn  Zn130  1  0.31153478  0.31251059  0.31470597  1
  Zn  Zn131  1  0.31033976  0.31224239  0.81005851  1
  Zn  Zn132  1  0.31284500  0.81582875  0.31344849  1
  Zn  Zn133  1  0.31470844  0.80990778  0.81257603  1
  Zn  Zn134  1  0.81219628  0.31443731  0.31099264  1
  Zn  Zn135  1  0.81256184  0.30937857  0.81275366  1
  Zn  Zn136  1  0.81369411  0.81350135  0.31406779  1
  Zn  Zn137  1  0.81320154  0.80813860  0.81468500  1
  Zn  Zn138  1  0.18788287  0.43806478  0.43654341  1
  Zn  Zn139  1  0.18307124  0.43964516  0.93661310  1
  Zn  Zn140  1  0.19180234  0.94007189  0.43788382  1
  Zn  Zn141  1  0.18523979  0.93691994  0.93913636  1
  Zn  Zn142  1  0.68877141  0.43871150  0.43683023  1
  Zn  Zn143  1  0.68628097  0.43820930  0.93662885  1
  Zn  Zn144  1  0.69158241  0.93558793  0.43568358  1
  Zn  Zn145  1  0.68361312  0.93575565  0.94044746  1
  Zn  Zn146  1  0.31390287  0.06285347  0.06194913  1
  Zn  Zn147  1  0.31225822  0.06289343  0.56250382  1
  Zn  Zn148  1  0.31416689  0.56409461  0.06276118  1
  Zn  Zn149  1  0.31233804  0.56008763  0.56290967  1
  Zn  Zn150  1  0.81214922  0.06241103  0.06355684  1
  Zn  Zn151  1  0.80855755  0.05931157  0.56142379  1
  Zn  Zn152  1  0.81138327  0.56331316  0.06207835  1
  Zn  Zn153  1  0.81303345  0.55985104  0.56579709  1
  Zn  Zn154  1  0.43847515  0.43913695  0.18645329  1
  Zn  Zn155  1  0.43536479  0.43971799  0.68810797  1
  Zn  Zn156  1  0.43808027  0.94004931  0.19265598  1
  Zn  Zn157  1  0.44103455  0.93919850  0.68943959  1
  Zn  Zn158  1  0.93735989  0.44008859  0.18460760  1
  Zn  Zn159  1  0.93622131  0.43850004  0.68649422  1
  Zn  Zn160  1  0.93850011  0.94008874  0.18781567  1
  Zn  Zn161  1  0.93513144  0.93737088  0.68927245  1
  Zn  Zn162  1  0.06127236  0.06218595  0.31292735  1
  Zn  Zn163  1  0.06081587  0.06059257  0.81379025  1
  Zn  Zn164  1  0.06307679  0.56260753  0.31322695  1
  Zn  Zn165  1  0.06251830  0.56247840  0.81251529  1
  Zn  Zn166  1  0.56441194  0.06344711  0.30997349  1
  Zn  Zn167  1  0.55989248  0.05797680  0.80735749  1
  Zn  Zn168  1  0.56339863  0.56363800  0.31073053  1
  Zn  Zn169  1  0.56679563  0.55872485  0.81174081  1
  Zn  Zn170  1  0.44072700  0.18880514  0.43831139  1
  Zn  Zn171  1  0.43473955  0.18795305  0.93611352  1
  Zn  Zn172  1  0.43855303  0.69064117  0.43867273  1
  Zn  Zn173  1  0.43501564  0.68808700  0.94088689  1
  Zn  Zn174  1  0.93838865  0.18707349  0.43581506  1
  Zn  Zn175  1  0.93299220  0.18582796  0.93633696  1
  Zn  Zn176  1  0.93956056  0.69032050  0.43606428  1
  Zn  Zn177  1  0.93448662  0.68637113  0.93149162  1
  Zn  Zn178  1  0.06185093  0.31520817  0.06293280  1
  Zn  Zn179  1  0.06055314  0.31144473  0.56337563  1
  Zn  Zn180  1  0.06513660  0.81119606  0.06380404  1
  Zn  Zn181  1  0.06265108  0.81165951  0.56434693  1
  Zn  Zn182  1  0.56246704  0.31077010  0.05962873  1
  Zn  Zn183  1  0.56002904  0.30675877  0.56319745  1
  Zn  Zn184  1  0.56614383  0.81519967  0.06231005  1
  Zn  Zn185  1  0.56537785  0.81095101  0.56393588  1
  O  O186  1  0.11990190  0.12190329  0.12072736  1
  O  O187  1  0.11881994  0.11842182  0.62031315  1
  O  O188  1  0.11705568  0.62512063  0.11738889  1
  O  O189  1  0.11823842  0.61944207  0.61924559  1
  O  O190  1  0.60828288  0.12852229  0.13056542  1
  O  O191  1  0.62943832  0.12498859  0.60859543  1
  O  O192  1  0.62490419  0.61877473  0.11394943  1
  O  O193  1  0.61626027  0.62455259  0.61768888  1
  O  O194  1  0.38154658  0.38190119  0.37994929  1
  O  O195  1  0.38165963  0.37982408  0.88145777  1
  O  O196  1  0.38120734  0.88273187  0.38059615  1
  O  O197  1  0.38046638  0.88207035  0.88064971  1
  O  O198  1  0.87448940  0.38165471  0.38394375  1
  O  O199  1  0.88176418  0.36800105  0.88380303  1
  O  O200  1  0.87660751  0.87797519  0.38759289  1
  O  O201  1  0.88319773  0.88337635  0.86802375  1
  O  O202  1  0.26138591  0.00737654  0.37292973  1
  O  O203  1  0.25580222  0.00346204  0.87222624  1
  O  O204  1  0.25634238  0.50764008  0.36905488  1
  O  O205  1  0.25467873  0.50940287  0.87674457  1
  O  O206  1  0.75293914  -0.00080903  0.35956447  1
  O  O207  1  0.75479677  0.00291936  0.86875256  1
  O  O208  1  0.75710037  0.50790810  0.37211990  1
  O  O209  1  0.74590547  0.50978550  0.86551674  1
  O  O210  1  0.25020864  0.49468750  0.13144829  1
  O  O211  1  0.23981832  0.49776889  0.62677003  1
  O  O212  1  0.24399005  0.99540479  0.12746462  1
  O  O213  1  0.24382091  0.99276861  0.63158393  1
  O  O214  1  0.74300524  0.49281374  0.12408503  1
  O  O215  1  0.74853594  0.49003364  0.63391083  1
  O  O216  1  0.75196617  0.99229827  0.13338150  1
  O  O217  1  0.74676564  0.98824083  0.63612442  1
  O  O218  1  0.00568504  0.37054493  0.24901802  1
  O  O219  1  0.00184189  0.36927847  0.75494017  1
  O  O220  1  0.01309181  0.87370230  0.24979560  1
  O  O221  1  0.00216245  0.86742215  0.75565829  1
  O  O222  1  0.50560684  0.37050435  0.25441440  1
  O  O223  1  0.50053058  0.37607705  0.76381504  1
  O  O224  1  0.50729929  0.87048509  0.25752573  1
  O  O225  1  0.50988533  0.87141167  0.75809186  1
  O  O226  1  0.49403087  0.13243336  0.24215365  1
  O  O227  1  0.49558992  0.12806309  0.75047575  1
  O  O228  1  0.49414112  0.63324158  0.24869040  1
  O  O229  1  0.50195306  0.62438563  0.73923897  1
  O  O230  1  0.99494656  0.13163826  0.24276046  1
  O  O231  1  0.99396933  0.12796995  0.74588521  1
  O  O232  1  0.99399303  0.62472298  0.24070508  1
  O  O233  1  0.99280943  0.63053860  0.74784917  1
  O  O234  1  0.36698190  0.25657205  0.00465297  1
  O  O235  1  0.37488557  0.26407271  0.49540590  1
  O  O236  1  0.37422607  0.75850338  0.00950085  1
  O  O237  1  0.36911230  0.75643264  0.50641510  1
  O  O238  1  0.86829953  0.25624391  0.00562237  1
  O  O239  1  0.87351483  0.26163976  0.50029838  1
  O  O240  1  0.86067992  0.74037767  0.00138981  1
  O  O241  1  0.86933062  0.76093798  0.49564464  1
  O  O242  1  0.12189857  0.24292458  0.49246478  1
  O  O243  1  0.12867085  0.24587231  0.99526332  1
  O  O244  1  0.13175550  0.74521676  0.49642160  1
  O  O245  1  0.12643986  0.73658508  0.99771472  1
  O  O246  1  0.62786936  0.24264612  0.48889731  1
  O  O247  1  0.63238496  0.25417906  0.98648778  1
  O  O248  1  0.63349919  0.74370868  0.49357235  1
  O  O249  1  0.63592360  0.73739569  1.00595044  1
  O  O250  1  0.49422601  0.24262288  0.12863557  1
  O  O251  1  0.49468583  0.24240280  0.62714350  1
  O  O252  1  0.49491985  0.75189543  0.13287265  1
  O  O253  1  0.49540711  0.73885442  0.62467493  1
  O  O254  1  0.99405828  0.24625475  0.12950799  1
  O  O255  1  0.99738849  0.24118989  0.63250316  1
  O  O256  1  0.99814264  0.73802364  0.12545679  1
  O  O257  1  1.00518615  0.74291806  0.63752651  1
  O  O258  1  0.00622489  0.25243673  0.36622336  1
  O  O259  1  0.00375388  0.25421975  0.86995636  1
  O  O260  1  0.01115084  0.75422863  0.37240032  1
  O  O261  1  -0.00019975  0.75731869  0.86542280  1
  O  O262  1  0.51027057  0.25640852  0.36881320  1
  O  O263  1  0.50713381  0.25861085  0.87959478  1
  O  O264  1  0.50705616  0.75631515  0.36950626  1
  O  O265  1  0.49157818  0.76310656  0.87374849  1
  O  O266  1  0.24077530  0.12565661  0.49283444  1
  O  O267  1  0.24291315  0.13177970  0.99580924  1
  O  O268  1  0.24512346  0.63075972  0.49492616  1
  O  O269  1  0.24083440  0.62423835  0.99325492  1
  O  O270  1  0.74159335  0.12774218  0.49589573  1
  O  O271  1  0.75712167  0.13128634  0.98737351  1
  O  O272  1  0.74746138  0.62844055  0.49591230  1
  O  O273  1  0.74438243  0.62870640  0.99183598  1
  O  O274  1  0.25326777  0.37134523  0.00452082  1
  O  O275  1  0.26213540  0.37613814  0.49853233  1
  O  O276  1  0.25686593  0.87417664  0.00661609  1
  O  O277  1  0.25740337  0.86999842  0.50751493  1
  O  O278  1  0.75424814  0.36926402  0.00332405  1
  O  O279  1  0.75883559  0.37624096  0.50804608  1
  O  O280  1  0.74417876  0.86260174  0.00808886  1
  O  O281  1  0.75639847  0.86979381  0.50836372  1
  O  O282  1  0.13274721  0.49538070  0.24908470  1
  O  O283  1  0.12197829  0.49350470  0.74293973  1
  O  O284  1  0.12682657  0.99205655  0.24406816  1
  O  O285  1  0.12870808  0.99370471  0.74515328  1
  O  O286  1  0.62605110  0.49403696  0.24235984  1
  O  O287  1  0.63879315  0.49519866  0.74653988  1
  O  O288  1  0.63551281  0.99495969  0.24516601  1
  O  O289  1  0.63793188  0.98751597  0.75241095  1
  O  O290  1  0.37274338  0.00673017  0.26228206  1
  O  O291  1  0.36618903  -0.00380674  0.76390182  1
  O  O292  1  0.37098240  0.50649787  0.25517169  1
  O  O293  1  0.37118212  0.50404524  0.75942767  1
  O  O294  1  0.86717143  0.00683172  0.24997607  1
  O  O295  1  0.86335785  0.00252262  0.75836783  1
  O  O296  1  0.87487258  0.51161635  0.25461831  1
  O  O297  1  0.86399947  0.50797263  0.74706662  1
  O  O298  1  0.12334376  0.36941474  0.36807138  1
  O  O299  1  0.11535226  0.36931448  0.87089532  1
  O  O300  1  0.12820015  0.87157125  0.36637209  1
  O  O301  1  0.11436448  0.87510394  0.86838879  1
  O  O302  1  0.62085850  0.36883545  0.37006932  1
  O  O303  1  0.61564356  0.36724973  0.87498368  1
  O  O304  1  0.62265681  0.86900710  0.36956125  1
  O  O305  1  0.61456062  0.87834111  0.86653509  1
  O  O306  1  0.38178386  0.13159921  0.13146113  1
  O  O307  1  0.37357989  0.12673599  0.62894915  1
  O  O308  1  0.37753494  0.63342171  0.13163172  1
  O  O309  1  0.38514291  0.62934157  0.62343553  1
  O  O310  1  0.88001659  0.13229694  0.12960566  1
  O  O311  1  0.87978302  0.12260485  0.63157883  1
  O  O312  1  0.88282968  0.62507475  0.13301929  1
  O  O313  1  0.88117317  0.62029012  0.63838454  1
  O  O314  1  0.25505940  0.25648655  0.11987007  1
  O  O315  1  0.25248701  0.25672070  0.61954094  1
  O  O316  1  0.25821275  0.75876830  0.12393195  1
  O  O317  1  0.25460523  0.75436620  0.62110793  1
  O  O318  1  0.75437015  0.25524772  0.11897469  1
  O  O319  1  0.75301435  0.26162884  0.62594679  1
  O  O320  1  0.75444864  0.75679033  0.11697528  1
  O  O321  1  0.74721811  0.75985338  0.61938710  1
  O  O322  1  0.24251261  0.24332019  0.37733341  1
  O  O323  1  0.24156028  0.24511110  0.88160510  1
  O  O324  1  0.24656427  0.74570472  0.38182951  1
  O  O325  1  0.24838387  0.73872683  0.87863003  1
  O  O326  1  0.73800081  0.25040704  0.37355751  1
  O  O327  1  0.74293585  0.24040889  0.87841245  1
  O  O328  1  0.74522617  0.74408564  0.38102950  1
  O  O329  1  0.75245074  0.73680285  0.88227160  1
  O  O330  1  0.00474992  0.12521441  0.00622770  1
  O  O331  1  0.00400225  0.11838783  0.50625619  1
  O  O332  1  0.00383572  0.62011876  0.00379644  1
  O  O333  1  0.00486581  0.62163066  0.50520251  1
  O  O334  1  0.49288869  0.12599712  0.01584023  1
  O  O335  1  0.51806725  0.12775035  0.49687190  1
  O  O336  1  0.50956805  0.62039615  -0.00105817  1
  O  O337  1  0.50546364  0.62100572  0.50647930  1
  O  O338  1  0.49393048  0.38126587  0.49340367  1
  O  O339  1  0.49411626  0.37992290  0.99146054  1
  O  O340  1  0.49419895  0.86687436  0.49204177  1
  O  O341  1  0.49553551  0.87663452  0.99224921  1
  O  O342  1  0.98888941  0.38177981  0.49960705  1
  O  O343  1  0.99477643  0.38376021  0.99607034  1
  O  O344  1  0.99117829  0.87914548  0.50383666  1
  O  O345  1  1.00481153  0.87361590  0.98612166  1
  O  O346  1  0.49552314  0.49608809  0.37889687  1
  O  O347  1  0.49598062  0.49183404  0.88020899  1
  O  O348  1  0.49015808  0.99409273  0.36821810  1
  O  O349  1  0.48959644  0.98950584  0.87408741  1
  O  O350  1  0.99357907  0.49954489  0.38216500  1
  O  O351  1  1.00391097  0.49440278  0.88664681  1
  O  O352  1  0.99924518  0.99609253  0.38467039  1
  O  O353  1  0.98970465  0.99078846  0.87429366  1
  O  O354  1  0.00588958  0.00755768  0.12234459  1
  O  O355  1  0.00549259  0.00403173  0.62169149  1
  O  O356  1  0.00219733  0.51150720  0.11495413  1
  O  O357  1  0.00476329  0.50726725  0.61888998  1
  O  O358  1  0.49870699  0.01598457  0.12776197  1
  O  O359  1  0.50506788  0.00423029  0.62770206  1
  O  O360  1  0.50647879  0.50198333  0.11676920  1
  O  O361  1  0.50129918  0.50979281  0.61891339  1
  O  O362  1  0.24613989  0.38109507  0.24501252  1
  O  O363  1  0.23718936  0.37907618  0.75080672  1
  O  O364  1  0.24032254  0.87728061  0.24419070  1
  O  O365  1  0.24335889  0.87871000  0.74651084  1
  O  O366  1  0.74368453  0.37729874  0.24081282  1
  O  O367  1  0.75359094  0.38153702  0.74296689  1
  O  O368  1  0.74719209  0.88111572  0.24313836  1
  O  O369  1  0.74616430  0.87711717  0.74588133  1
  O  O370  1  0.25757702  0.12580469  0.25744950  1
  O  O371  1  0.24694263  0.11619079  0.75945263  1
  O  O372  1  0.25614989  0.62166021  0.25545956  1
  O  O373  1  0.24826798  0.62268280  0.76285208  1
  O  O374  1  0.75533727  0.11585020  0.24772297  1
  O  O375  1  0.75173151  0.11432970  0.75731236  1
  O  O376  1  0.75928328  0.62484672  0.25455867  1
  O  O377  1  0.75492329  0.61867803  0.75442199  1
  O  O378  1  0.37302288  0.11944327  0.37260272  1
  O  O379  1  0.36669806  0.11358019  0.87803939  1
  O  O380  1  0.37060630  0.62167548  0.37026839  1
  O  O381  1  0.36546704  0.61937209  0.87740002  1
  O  O382  1  0.87228229  0.12326442  0.36575069  1
  O  O383  1  0.86471223  0.11565127  0.86802173  1
  O  O384  1  0.87168647  0.62155456  0.36753007  1
  O  O385  1  0.86418116  0.62394497  0.86121326  1
  O  O386  1  0.13223843  0.37748977  0.13134337  1
  O  O387  1  0.12147711  0.38249383  0.63118529  1
  O  O388  1  0.13009192  0.88022972  0.13188827  1
  O  O389  1  0.13101680  0.88006554  0.63085637  1
  O  O390  1  0.62902048  0.37888210  0.12813903  1
  O  O391  1  0.63617440  0.37490095  0.62479878  1
  O  O392  1  0.63833230  0.87490338  0.13275860  1
  O  O393  1  0.63576204  0.87427916  0.63365664  1
  O  O394  1  0.11951489  0.25630628  0.25459978  1
  O  O395  1  0.11728631  0.25495374  0.75645871  1
  O  O396  1  0.12610652  0.76027779  0.25553358  1
  O  O397  1  0.11314943  0.75538001  0.75315567  1
  O  O398  1  0.62023728  0.25639045  0.25751966  1
  O  O399  1  0.62400818  0.25399897  0.76523314  1
  O  O400  1  0.62185378  0.75452941  0.25563351  1
  O  O401  1  0.62555461  0.76072899  0.74853222  1
  O  O402  1  0.38093721  0.24682547  0.24552693  1
  O  O403  1  0.37790894  0.24730753  0.75037796  1
  O  O404  1  0.38098760  0.74723648  0.24694894  1
  O  O405  1  0.37899369  0.74521233  0.74125996  1
  O  O406  1  0.87954903  0.24683646  0.24293498  1
  O  O407  1  0.88079195  0.24065885  0.74920823  1
  O  O408  1  0.87831825  0.73778515  0.24980360  1
  O  O409  1  0.88529436  0.73971070  0.75309866  1
  O  O410  1  0.38120973  0.49395667  0.49254701  1
  O  O411  1  0.38104154  0.49510577  0.99482582  1
  O  O412  1  0.37025320  0.99347716  0.48792808  1
  O  O413  1  0.37741359  0.99465491  0.98958890  1
  O  O414  1  0.87973323  0.49327419  0.49510617  1
  O  O415  1  0.88578195  0.49501724  1.00500713  1
  O  O416  1  0.87983737  0.98896853  0.49980354  1
  O  O417  1  0.87542796  1.00328156  0.98563585  1
  O  O418  1  0.12174439  0.00763382  0.00678126  1
  O  O419  1  0.11997887  0.00427037  0.50659849  1
  O  O420  1  0.11418164  0.51091457  0.00286153  1
  O  O421  1  0.11912293  0.50625242  0.50392566  1
  O  O422  1  0.62284527  0.00152340  0.00547368  1
  O  O423  1  0.63243668  0.01309502  0.49643166  1
  O  O424  1  0.62046710  0.50868427  0.00365898  1
  O  O425  1  0.61869974  0.50677055  0.50029793  1
  O  O426  1  0.37016436  0.37008036  0.11946901  1
  O  O427  1  0.37471383  0.37804711  0.61148429  1
  O  O428  1  0.37143377  0.87362829  0.12241976  1
  O  O429  1  0.36995277  0.86956402  0.62205957  1
  O  O430  1  0.86906739  0.37035132  0.11785913  1
  O  O431  1  0.86700838  0.37511547  0.61491365  1
  O  O432  1  0.86262558  0.87334265  0.13047511  1
  O  O433  1  0.86399333  0.87906332  0.61691008  1
  O  O434  1  0.12966696  0.12983992  0.37948165  1
  O  O435  1  0.12788827  0.12998927  0.88105191  1
  O  O436  1  0.13174570  0.63107348  0.38080953  1
  O  O437  1  0.13190749  0.62489247  0.88379339  1
  O  O438  1  0.62727809  0.13321703  0.38108317  1
  O  O439  1  0.63583700  0.13057274  0.86924071  1
  O  O440  1  0.63145856  0.63040357  0.37959290  1
  O  O441  1  0.63462086  0.62063654  0.88491881  1
