# generated using pymatgen
data_V93Zn93O256
_symmetry_space_group_name_H-M   'P 1'
_cell_length_a   17.04647377
_cell_length_b   17.04726347
_cell_length_c   17.04171024
_cell_angle_alpha   90.01874512
_cell_angle_beta   89.94864217
_cell_angle_gamma   90.06365720
_symmetry_Int_Tables_number   1
_chemical_formula_structural   V93Zn93O256
_chemical_formula_sum   'V93 Zn93 O256'
_cell_volume   4952.24291000
_cell_formula_units_Z   1
loop_
 _symmetry_equiv_pos_site_id
 _symmetry_equiv_pos_as_xyz
  1  'x, y, z'
loop_
 _atom_site_type_symbol
 _atom_site_label
 _atom_site_symmetry_multiplicity
 _atom_site_fract_x
 _atom_site_fract_y
 _atom_site_fract_z
 _atom_site_occupancy
  V  V0  1  0.87432268  0.87437071  -0.00089189  1
  V  V1  1  0.87471475  0.62600412  0.25042472  1
  V  V2  1  0.62428217  0.37447870  0.25086822  1
  V  V3  1  0.62707348  0.75006215  0.87406683  1
  V  V4  1  0.74985139  0.24867419  0.00013368  1
  V  V5  1  0.12465720  0.12398479  0.00181091  1
  V  V6  1  0.12450103  0.62378238  0.50073007  1
  V  V7  1  0.63303308  0.50604445  0.62341377  1
  V  V8  1  -0.00505457  -0.00403401  0.50163169  1
  V  V9  1  0.74425179  0.74706235  0.49972631  1
  V  V10  1  0.12127652  0.25043867  0.37751746  1
  V  V11  1  0.74836135  0.12476307  0.37546798  1
  V  V12  1  0.63228508  0.37855700  0.74787756  1
  V  V13  1  -0.00062101  0.62628726  0.12443926  1
  V  V14  1  -0.00071727  0.87435748  0.87563173  1
  V  V15  1  0.24914648  0.12498406  0.87619888  1
  V  V16  1  0.24968872  0.37448927  0.12547225  1
  V  V17  1  0.49631951  0.12611921  0.12597695  1
  V  V18  1  0.37438214  0.37497921  0.50040220  1
  V  V19  1  0.87424963  -0.00258158  0.37777799  1
  V  V20  1  -0.00022626  0.74800118  0.74900511  1
  V  V21  1  0.75114056  0.75061039  -0.00099383  1
  V  V22  1  0.12376686  0.00007939  0.62523133  1
  V  V23  1  0.12285143  0.75069325  0.37535379  1
  V  V24  1  0.62645020  0.62504954  -0.00090246  1
  V  V25  1  0.24837813  0.87026364  0.11947159  1
  V  V26  1  0.00010069  0.37530205  0.87538225  1
  V  V27  1  0.11844271  0.37535826  0.25543541  1
  V  V28  1  0.62580419  0.00137665  0.62342104  1
  V  V29  1  0.25011460  0.62525312  0.37497915  1
  V  V30  1  -0.00494868  0.87329381  0.37838871  1
  V  V31  1  0.62545543  0.49974259  0.12419197  1
  V  V32  1  -0.00259273  0.24776653  0.75124109  1
  V  V33  1  0.12535714  0.87405499  0.75108316  1
  V  V34  1  -0.00001735  0.62456462  0.62453005  1
  V  V35  1  0.62706953  0.87525770  0.74896892  1
  V  V36  1  0.87596156  0.75248388  0.61967998  1
  V  V37  1  0.24980022  0.87553751  0.62489874  1
  V  V38  1  0.25099455  0.25013580  0.00113411  1
  V  V39  1  0.25057439  0.50142840  0.75203725  1
  V  V40  1  0.62420015  0.25054379  0.37567773  1
  V  V41  1  0.49957495  0.75090489  0.24935408  1
  V  V42  1  0.50075889  0.75009804  0.74916131  1
  V  V43  1  0.74958065  0.50043182  0.25023464  1
  V  V44  1  0.50134587  0.12416343  0.62412542  1
  V  V45  1  0.62408926  0.87284741  0.25151756  1
  V  V46  1  0.87957576  0.37361160  0.49229622  1
  V  V47  1  0.24997915  0.74973519  0.50000850  1
  V  V48  1  0.87331563  0.12451681  0.25064664  1
  V  V49  1  0.75012698  0.25048294  0.50030554  1
  V  V50  1  -0.00020922  0.49646394  0.49407299  1
  V  V51  1  0.13132163  0.74915097  0.87912674  1
  V  V52  1  0.12430230  0.50012640  0.12515160  1
  V  V53  1  0.74935731  -0.00171517  0.25049827  1
  V  V54  1  0.87278334  0.49941932  0.86700215  1
  V  V55  1  0.37594867  0.75091536  0.62488293  1
  V  V56  1  0.87464383  0.24857179  0.62726136  1
  V  V57  1  0.87544088  0.00575359  0.87153172  1
  V  V58  1  -0.00076111  0.12356631  0.12610498  1
  V  V59  1  0.37521325  -0.00097848  0.87460065  1
  V  V60  1  0.13231663  0.62836595  0.00079438  1
  V  V61  1  0.37179866  0.74973812  0.12070863  1
  V  V62  1  0.75035550  0.37518704  0.12513016  1
  V  V63  1  0.75031874  0.87387469  0.12480896  1
  V  V64  1  0.50395201  0.50729762  0.50114712  1
  V  V65  1  0.37479974  0.50056796  0.37525407  1
  V  V66  1  0.62626517  0.12538660  -0.00336838  1
  V  V67  1  0.87615464  0.37539236  0.00012110  1
  V  V68  1  -0.00205638  0.25178239  0.25444858  1
  V  V69  1  0.49941050  0.62530747  0.12437219  1
  V  V70  1  0.37476930  0.25107251  0.62478087  1
  V  V71  1  -0.00245543  0.12409406  0.62905475  1
  V  V72  1  0.87465780  0.24961715  0.12624928  1
  V  V73  1  0.37475891  0.00003509  0.37497062  1
  V  V74  1  0.50114964  0.87480889  0.87491557  1
  V  V75  1  0.74385298  0.62434727  0.37842140  1
  V  V76  1  0.12330314  -0.00091314  0.12582785  1
  V  V77  1  0.37513959  0.87591050  0.49907942  1
  V  V78  1  0.37525308  0.12573696  0.75009354  1
  V  V79  1  0.50022854  0.00003381  -0.00077995  1
  V  V80  1  0.37370493  0.62522660  0.24969635  1
  V  V81  1  0.49917575  0.49807817  -0.00312266  1
  V  V82  1  0.12591996  0.37542337  0.75089799  1
  V  V83  1  0.37337671  0.87078418  -0.00065954  1
  V  V84  1  0.49985496  0.37486679  0.37485263  1
  V  V85  1  0.25149803  0.37456214  0.62641919  1
  V  V86  1  0.24885830  0.00119294  0.25066708  1
  V  V87  1  0.75248492  0.62135964  0.86811378  1
  V  V88  1  0.50231670  0.25271565  0.75237231  1
  V  V89  1  0.24975826  0.00077551  0.74980295  1
  V  V90  1  0.75490493  0.00674557  0.74929064  1
  V  V91  1  0.75578155  0.87641951  0.61783253  1
  V  V92  1  0.37656176  0.62438705  0.74946894  1
  Zn  Zn93  1  0.62913331  0.25390277  0.87384729  1
  Zn  Zn94  1  0.37490484  0.25160942  0.12908708  1
  Zn  Zn95  1  0.37627455  0.49858723  0.87511033  1
  Zn  Zn96  1  0.00049404  0.50027202  -0.00210463  1
  Zn  Zn97  1  -0.00186214  -0.00003344  0.00033887  1
  Zn  Zn98  1  0.87611623  0.49620472  0.37350390  1
  Zn  Zn99  1  0.87369330  0.62072308  0.74654748  1
  Zn  Zn100  1  0.12588650  0.12515392  0.49930264  1
  Zn  Zn101  1  0.24923889  0.12647200  0.37889045  1
  Zn  Zn102  1  0.50020744  0.87397999  0.37649269  1
  Zn  Zn103  1  0.37447416  0.12814314  0.25225283  1
  Zn  Zn104  1  0.75472224  0.12839080  0.87045034  1
  Zn  Zn105  1  0.87539898  0.75024832  0.12384806  1
  Zn  Zn106  1  0.25419215  0.62820397  0.88009985  1
  Zn  Zn107  1  0.50149434  -0.00018139  0.49836805  1
  Zn  Zn108  1  0.50670445  0.62923593  0.61955790  1
  Zn  Zn109  1  0.37582317  0.37520940  -0.00186760  1
  Zn  Zn110  1  0.12231360  0.87308494  0.24932466  1
  Zn  Zn111  1  0.50064929  0.37573924  0.87523278  1
  Zn  Zn112  1  0.62003138  0.74604667  0.38056279  1
  Zn  Zn113  1  0.24830385  0.24905060  0.49951215  1
  Zn  Zn114  1  0.12411847  0.49944623  0.62501228  1
  Zn  Zn115  1  0.24904646  0.49906123  0.25152941  1
  Zn  Zn116  1  0.62315953  0.12473183  0.49870275  1
  Zn  Zn117  1  0.62427340  -0.00036019  0.12497229  1
  Zn  Zn118  1  -0.00107192  0.75193072  0.25107291  1
  Zn  Zn119  1  0.75475105  0.38021795  0.62732930  1
  Zn  Zn120  1  0.49637349  0.25008598  0.25062272  1
  Zn  Zn121  1  0.12464906  0.24978868  0.87564178  1
  Zn  Zn122  1  0.18564045  0.18755939  0.18988530  1
  Zn  Zn123  1  0.18546462  0.18820084  0.68734631  1
  Zn  Zn124  1  0.18622719  0.68893530  0.19031869  1
  Zn  Zn125  1  0.18737045  0.68700097  0.68775465  1
  Zn  Zn126  1  0.68437448  0.18699989  0.18705617  1
  Zn  Zn127  1  0.68637337  0.18897084  0.68552770  1
  Zn  Zn128  1  0.68740445  0.68815688  0.18746202  1
  Zn  Zn129  1  0.68913687  0.68827065  0.68665265  1
  Zn  Zn130  1  0.31001010  0.31090380  0.31238267  1
  Zn  Zn131  1  0.31566312  0.31482059  0.81593065  1
  Zn  Zn132  1  0.31114979  0.81410830  0.30964586  1
  Zn  Zn133  1  0.31328393  0.81279147  0.81161483  1
  Zn  Zn134  1  0.81016707  0.31157890  0.31311177  1
  Zn  Zn135  1  0.81286120  0.31269664  0.81343205  1
  Zn  Zn136  1  0.81263111  0.81070488  0.31424285  1
  Zn  Zn137  1  0.81389196  0.81386157  0.80905522  1
  Zn  Zn138  1  0.18788440  0.43695170  0.43828149  1
  Zn  Zn139  1  0.18536356  0.43948248  0.93746679  1
  Zn  Zn140  1  0.18412952  0.93703054  0.43778127  1
  Zn  Zn141  1  0.18622963  0.93833418  0.93892848  1
  Zn  Zn142  1  0.68994889  0.43651778  0.44023706  1
  Zn  Zn143  1  0.68778285  0.43666499  0.93496578  1
  Zn  Zn144  1  0.68684416  0.93663852  0.43808458  1
  Zn  Zn145  1  0.68888228  0.93911170  0.93643326  1
  Zn  Zn146  1  0.31259179  0.05946740  0.06309284  1
  Zn  Zn147  1  0.31167893  0.06511799  0.56041768  1
  Zn  Zn148  1  0.31290049  0.56016852  0.06467206  1
  Zn  Zn149  1  0.31414708  0.56213225  0.56391053  1
  Zn  Zn150  1  0.81203299  0.05950556  0.06208331  1
  Zn  Zn151  1  0.81320474  0.06563470  0.56182446  1
  Zn  Zn152  1  0.81349630  0.56130468  0.05825148  1
  Zn  Zn153  1  0.81574708  0.56422544  0.55970113  1
  Zn  Zn154  1  0.43650973  0.43811674  0.18743200  1
  Zn  Zn155  1  0.44186039  0.43883994  0.68514418  1
  Zn  Zn156  1  0.43645579  0.93852834  0.18666468  1
  Zn  Zn157  1  0.43838224  0.93808873  0.68714107  1
  Zn  Zn158  1  0.93772528  0.43980979  0.18722928  1
  Zn  Zn159  1  0.93965729  0.43514250  0.68406539  1
  Zn  Zn160  1  0.93652605  0.93623678  0.18968298  1
  Zn  Zn161  1  0.93706063  0.93520927  0.68991732  1
  Zn  Zn162  1  0.06264937  0.06335510  0.31313114  1
  Zn  Zn163  1  0.06215994  0.06299423  0.81375716  1
  Zn  Zn164  1  0.06286916  0.56257888  0.31269850  1
  Zn  Zn165  1  0.06197031  0.56264665  0.81343089  1
  Zn  Zn166  1  0.56184059  0.06152755  0.31201503  1
  Zn  Zn167  1  0.56492769  0.06245023  0.81097790  1
  Zn  Zn168  1  0.56113396  0.56169217  0.31133727  1
  Zn  Zn169  1  0.56510866  0.56267672  0.80921274  1
  Zn  Zn170  1  0.43703536  0.18667137  0.43840726  1
  Zn  Zn171  1  0.43646008  0.18785259  0.93824107  1
  Zn  Zn172  1  0.43675020  0.68916329  0.43551741  1
  Zn  Zn173  1  0.43830873  0.68736635  0.93679005  1
  Zn  Zn174  1  0.93954268  0.18421888  0.43945124  1
  Zn  Zn175  1  0.93821540  0.18765708  0.93972647  1
  Zn  Zn176  1  0.93394284  0.68552871  0.43865502  1
  Zn  Zn177  1  0.93991457  0.68703435  0.93735520  1
  Zn  Zn178  1  0.06260956  0.31075717  0.06441744  1
  Zn  Zn179  1  0.06309227  0.31515511  0.56375843  1
  Zn  Zn180  1  0.06134704  0.81186625  0.06106559  1
  Zn  Zn181  1  0.06276029  0.81295791  0.56095684  1
  Zn  Zn182  1  0.56343147  0.31087194  0.06358824  1
  Zn  Zn183  1  0.56341608  0.31666252  0.56271689  1
  Zn  Zn184  1  0.56221147  0.81207267  0.06315161  1
  Zn  Zn185  1  0.56299560  0.81614582  0.56288959  1
  O  O186  1  0.11882761  0.11922996  0.12173343  1
  O  O187  1  0.11366821  0.11862431  0.62584159  1
  O  O188  1  0.11880024  0.62209833  0.12005318  1
  O  O189  1  0.11880457  0.62470046  0.61746672  1
  O  O190  1  0.61600694  0.12383419  0.11395048  1
  O  O191  1  0.61852444  0.11902200  0.62354319  1
  O  O192  1  0.62000307  0.61967100  0.11935329  1
  O  O193  1  0.62461144  0.61043430  0.63137222  1
  O  O194  1  0.37939334  0.38131980  0.37968595  1
  O  O195  1  0.38250916  0.38063437  0.88016493  1
  O  O196  1  0.37365339  0.88356451  0.38018123  1
  O  O197  1  0.38107706  0.87899761  0.87841612  1
  O  O198  1  0.87224956  0.37441779  0.38773681  1
  O  O199  1  0.87937506  0.38181001  0.87997724  1
  O  O200  1  0.88562869  0.88144590  0.37067205  1
  O  O201  1  0.87974501  0.88212638  0.87901054  1
  O  O202  1  0.25543844  -0.00217525  0.36637085  1
  O  O203  1  0.25529169  0.00450909  0.86942861  1
  O  O204  1  0.25681689  0.50723636  0.37494511  1
  O  O205  1  0.25195887  0.50325616  0.86262769  1
  O  O206  1  0.75485641  0.00406916  0.37054511  1
  O  O207  1  0.75814390  -0.00021342  0.86524894  1
  O  O208  1  0.75126015  0.50782439  0.36974188  1
  O  O209  1  0.75983123  0.51052633  0.88158485  1
  O  O210  1  0.24273236  0.49006259  0.12659286  1
  O  O211  1  0.25030121  0.49453361  0.63667675  1
  O  O212  1  0.24487717  0.99159879  0.13208117  1
  O  O213  1  0.24457626  0.99499655  0.63090435  1
  O  O214  1  0.74505958  0.49506208  0.12900816  1
  O  O215  1  0.73653453  0.50027819  0.61725906  1
  O  O216  1  0.74819278  0.99231027  0.13283273  1
  O  O217  1  0.74954436  0.99415595  0.62975871  1
  O  O218  1  0.01089592  0.36869887  0.24224798  1
  O  O219  1  0.00589877  0.36688719  0.75426756  1
  O  O220  1  0.00160346  0.87303915  0.26238792  1
  O  O221  1  0.00709252  0.86843504  0.75521559  1
  O  O222  1  0.50705831  0.37642385  0.25628351  1
  O  O223  1  0.50880066  0.36541214  0.74793590  1
  O  O224  1  0.50866962  0.86978846  0.24800099  1
  O  O225  1  0.50610349  0.86990713  0.75527702  1
  O  O226  1  0.50036922  0.12501376  0.23709163  1
  O  O227  1  0.49596172  0.13275632  0.74492113  1
  O  O228  1  0.49419553  0.62973945  0.24338026  1
  O  O229  1  0.49145966  0.63155184  0.74835750  1
  O  O230  1  0.99193199  0.12983761  0.24516919  1
  O  O231  1  1.00461429  0.13517153  0.74104064  1
  O  O232  1  0.99097158  0.62412280  0.24275197  1
  O  O233  1  0.99977382  0.63111774  0.74248319  1
  O  O234  1  0.36155043  0.25077204  0.00355204  1
  O  O235  1  0.37468116  0.25796709  0.50727477  1
  O  O236  1  0.38124522  0.75743811  0.00731055  1
  O  O237  1  0.36907946  0.75505133  0.50528535  1
  O  O238  1  0.86993175  0.25495791  0.00725674  1
  O  O239  1  0.87353434  0.25567440  0.50706611  1
  O  O240  1  0.86888506  0.75638738  -0.00067407  1
  O  O241  1  0.86522024  0.74651347  0.51332450  1
  O  O242  1  0.12287477  0.25246627  0.48898293  1
  O  O243  1  0.13517174  0.24328326  0.99988103  1
  O  O244  1  0.13106776  0.74427449  0.49527995  1
  O  O245  1  0.11977891  0.74087348  0.98979824  1
  O  O246  1  0.63200612  0.25081755  0.49419508  1
  O  O247  1  0.63094218  0.24178145  0.99811265  1
  O  O248  1  0.63904106  0.75302428  0.50091822  1
  O  O249  1  0.62962894  0.74461289  0.99311855  1
  O  O250  1  0.49730392  0.23956800  0.12512976  1
  O  O251  1  0.49576732  0.24512971  0.63389946  1
  O  O252  1  0.49357730  0.74367121  0.12948230  1
  O  O253  1  0.49529166  0.74925952  0.63082131  1
  O  O254  1  0.99346421  0.24342562  0.13284104  1
  O  O255  1  0.99459469  0.24351838  0.63141414  1
  O  O256  1  0.99838790  0.73770915  0.12787387  1
  O  O257  1  0.99307104  0.74643349  0.62707082  1
  O  O258  1  0.00926309  0.24423613  0.36790689  1
  O  O259  1  -0.00153780  0.25474397  0.86574943  1
  O  O260  1  0.00266485  0.75821436  0.37918265  1
  O  O261  1  0.00894245  0.75466469  0.86888874  1
  O  O262  1  0.50635531  0.25729377  0.37525499  1
  O  O263  1  0.50174563  0.24894207  0.86190476  1
  O  O264  1  0.50204656  0.75259477  0.36619939  1
  O  O265  1  0.50750395  0.75549472  0.86909721  1
  O  O266  1  0.24317737  0.13056389  0.49891745  1
  O  O267  1  0.24543356  0.13126777  0.99697600  1
  O  O268  1  0.24583119  0.63027904  0.49570966  1
  O  O269  1  0.23664436  0.62042884  1.00042208  1
  O  O270  1  0.74923971  0.13245347  0.49261889  1
  O  O271  1  0.74054150  0.12953441  1.00171394  1
  O  O272  1  0.75584699  0.63352851  0.48878122  1
  O  O273  1  0.74524418  0.63065681  0.99125354  1
  O  O274  1  0.24628695  0.36711149  0.00867706  1
  O  O275  1  0.25706672  0.37494519  0.50840159  1
  O  O276  1  0.25680901  0.88262045  0.01192524  1
  O  O277  1  0.25390943  0.86929421  0.50619180  1
  O  O278  1  0.75517230  0.36924227  0.00588175  1
  O  O279  1  0.76123737  0.36778275  0.50375940  1
  O  O280  1  0.75372439  0.86993865  0.00429230  1
  O  O281  1  0.74870459  0.86761214  0.51172320  1
  O  O282  1  0.12513749  0.49138557  0.24527832  1
  O  O283  1  0.13460868  0.49574276  0.74882140  1
  O  O284  1  0.13276053  0.99782202  0.24470730  1
  O  O285  1  0.13003257  0.99405991  0.74551471  1
  O  O286  1  0.63001867  0.49465081  0.24312242  1
  O  O287  1  0.61661982  0.49043159  0.73425830  1
  O  O288  1  0.63097231  0.98954890  0.24887575  1
  O  O289  1  0.63440637  0.99386732  0.74452741  1
  O  O290  1  0.36578879  -0.00094462  0.25832964  1
  O  O291  1  0.36964627  0.00534400  0.75530230  1
  O  O292  1  0.37351390  0.50737847  0.25695922  1
  O  O293  1  0.36991516  0.50892824  0.74899349  1
  O  O294  1  0.86852040  0.00556884  0.25712309  1
  O  O295  1  0.86579501  -0.00680364  0.75915703  1
  O  O296  1  0.86893183  0.50851006  0.25146394  1
  O  O297  1  0.87879346  0.49828418  0.76266450  1
  O  O298  1  0.13032460  0.36782598  0.36283611  1
  O  O299  1  0.11818401  0.37291877  0.86902624  1
  O  O300  1  0.11327521  0.86879577  0.37512287  1
  O  O301  1  0.12047682  0.86839956  0.87152055  1
  O  O302  1  0.62041973  0.37107861  0.37023318  1
  O  O303  1  0.62139583  0.37475698  0.86376651  1
  O  O304  1  0.62446362  0.87173299  0.36240682  1
  O  O305  1  0.62081452  0.86975677  0.86940132  1
  O  O306  1  0.38600069  0.12440579  0.12443153  1
  O  O307  1  0.38087182  0.12996442  0.63199765  1
  O  O308  1  0.37934753  0.62984511  0.12984606  1
  O  O309  1  0.37687752  0.63247623  0.63494372  1
  O  O310  1  0.87826326  0.12981349  0.13087087  1
  O  O311  1  0.88676273  0.13634597  0.62082536  1
  O  O312  1  0.88248170  0.62353609  0.13177834  1
  O  O313  1  0.88017259  0.63382682  0.62754239  1
  O  O314  1  0.24768658  0.25773141  0.11760248  1
  O  O315  1  0.25735198  0.25729079  0.62763799  1
  O  O316  1  0.25490099  0.76290120  0.13222138  1
  O  O317  1  0.25528976  0.75625970  0.62028533  1
  O  O318  1  0.75535779  0.25557703  0.12113074  1
  O  O319  1  0.76208203  0.24727615  0.62000960  1
  O  O320  1  0.75120920  0.75521603  0.11662779  1
  O  O321  1  0.75603215  0.75630555  0.61962762  1
  O  O322  1  0.23637853  0.24806468  0.37573720  1
  O  O323  1  0.24912155  0.24412816  0.88421073  1
  O  O324  1  0.24480807  0.74552195  0.38080583  1
  O  O325  1  0.23533815  0.74891994  0.86809262  1
  O  O326  1  0.74415836  0.24414044  0.38036352  1
  O  O327  1  0.75075840  0.24541446  0.88295832  1
  O  O328  1  0.75010348  0.74324424  0.38460261  1
  O  O329  1  0.74615203  0.74404367  0.87939914  1
  O  O330  1  0.00639332  0.12441975  0.00846522  1
  O  O331  1  0.00340604  0.11526065  0.51143947  1
  O  O332  1  0.00855020  0.62422942  0.01014405  1
  O  O333  1  0.00404418  0.61794432  0.50551977  1
  O  O334  1  0.50664324  0.12062320  0.00499020  1
  O  O335  1  0.50125452  0.12212622  0.51041032  1
  O  O336  1  0.50694868  0.61846889  0.00485064  1
  O  O337  1  0.49543038  0.61206958  0.49936132  1
  O  O338  1  0.49376427  0.38457461  0.49444598  1
  O  O339  1  0.50098856  0.38684063  1.00163921  1
  O  O340  1  0.49117141  0.87804255  0.49793572  1
  O  O341  1  0.49562754  0.88011084  0.99379043  1
  O  O342  1  0.99115072  0.38505773  0.50708963  1
  O  O343  1  0.99413282  0.37351074  0.99430193  1
  O  O344  1  1.00251038  0.88516761  0.49231012  1
  O  O345  1  0.99287982  0.87654673  0.99313291  1
  O  O346  1  0.49601123  0.49552770  0.38213928  1
  O  O347  1  0.50256907  0.50255699  0.88720105  1
  O  O348  1  0.48738018  0.99685403  0.37492233  1
  O  O349  1  0.49477126  0.99429550  0.87785329  1
  O  O350  1  0.99646188  0.50693179  0.38986790  1
  O  O351  1  0.99133920  0.49365458  0.87660062  1
  O  O352  1  0.99575667  0.99375236  0.38304451  1
  O  O353  1  0.99182431  0.99302751  0.87409409  1
  O  O354  1  0.00486277  0.00601610  0.12528754  1
  O  O355  1  0.00157673  0.00489775  0.62168261  1
  O  O356  1  0.00551565  0.51132942  0.12374539  1
  O  O357  1  0.00093041  0.50677826  0.61539040  1
  O  O358  1  0.50091782  0.00810705  0.11723120  1
  O  O359  1  0.50736215  0.00699765  0.62694602  1
  O  O360  1  0.50547616  0.50584126  0.11716642  1
  O  O361  1  0.50886579  0.50299252  0.61540429  1
  O  O362  1  0.23844840  0.37499500  0.23983862  1
  O  O363  1  0.24720429  0.38297771  0.74704297  1
  O  O364  1  0.24769263  0.88503204  0.23942207  1
  O  O365  1  0.24532745  0.88132201  0.74471461  1
  O  O366  1  0.74516696  0.38092396  0.24481779  1
  O  O367  1  0.73738921  0.36870396  0.74639832  1
  O  O368  1  0.74304850  0.87754977  0.24583778  1
  O  O369  1  0.74550533  0.88271860  0.73955829  1
  O  O370  1  0.25117358  0.11069918  0.24896093  1
  O  O371  1  0.25487676  0.12020008  0.75535348  1
  O  O372  1  0.25592082  0.62310557  0.25649004  1
  O  O373  1  0.25906077  0.61753221  0.74917740  1
  O  O374  1  0.75376455  0.11906596  0.25495623  1
  O  O375  1  0.74471630  0.11040231  0.74974608  1
  O  O376  1  0.75756016  0.62027621  0.25446108  1
  O  O377  1  0.75292470  0.63108973  0.76469962  1
  O  O378  1  0.37166317  0.11262987  0.37445794  1
  O  O379  1  0.36933649  0.11862947  0.86984262  1
  O  O380  1  0.36902831  0.62066239  0.36927877  1
  O  O381  1  0.37289987  0.62588514  0.86236782  1
  O  O382  1  0.86879489  0.11902634  0.36956815  1
  O  O383  1  0.87493310  0.10993882  0.88108855  1
  O  O384  1  0.86541275  0.62340489  0.36502206  1
  O  O385  1  0.86951563  0.61684817  0.87439622  1
  O  O386  1  0.13127420  0.37900271  0.13237932  1
  O  O387  1  0.13261857  0.37682011  0.63344277  1
  O  O388  1  0.13212247  0.87934481  0.12444999  1
  O  O389  1  0.13003814  0.87946576  0.63132380  1
  O  O390  1  0.63156053  0.38013143  0.13034025  1
  O  O391  1  0.62858279  0.38462273  0.63132747  1
  O  O392  1  0.63075973  0.87574366  0.13453467  1
  O  O393  1  0.63557750  0.88101103  0.63021570  1
  O  O394  1  0.11816622  0.25683121  0.25639362  1
  O  O395  1  0.11388517  0.25604356  0.75177720  1
  O  O396  1  0.11999665  0.75129504  0.26066280  1
  O  O397  1  0.11962425  0.75490458  0.75692169  1
  O  O398  1  0.62377792  0.25770730  0.25712622  1
  O  O399  1  0.61698471  0.25758562  0.74900540  1
  O  O400  1  0.61894962  0.75871580  0.24935734  1
  O  O401  1  0.62097417  0.75561714  0.75418957  1
  O  O402  1  0.37760107  0.24568011  0.24718578  1
  O  O403  1  0.38350898  0.24547618  0.74546511  1
  O  O404  1  0.37983903  0.74494574  0.24244651  1
  O  O405  1  0.38007149  0.74399097  0.74477857  1
  O  O406  1  0.87764080  0.24466310  0.24553771  1
  O  O407  1  0.88678888  0.25824035  0.73942802  1
  O  O408  1  0.87542817  0.73677609  0.24694753  1
  O  O409  1  0.88152104  0.74855448  0.73859769  1
  O  O410  1  0.38301390  0.49503602  0.49564195  1
  O  O411  1  0.38734987  0.50198332  0.99875765  1
  O  O412  1  0.37305601  0.99356579  0.49087959  1
  O  O413  1  0.38049469  0.99295596  0.99261056  1
  O  O414  1  0.88202965  0.49051187  0.49963127  1
  O  O415  1  0.87818961  0.49261531  0.99018279  1
  O  O416  1  0.88721752  1.00589237  0.49473482  1
  O  O417  1  0.87485716  0.99208571  0.99001466  1
  O  O418  1  0.12248517  0.00679969  0.00747367  1
  O  O419  1  0.11312400  -0.00013774  0.50791467  1
  O  O420  1  0.12124422  0.50967674  0.00606125  1
  O  O421  1  0.11695652  0.50459260  0.50188849  1
  O  O422  1  0.61932878  0.00824309  0.00042325  1
  O  O423  1  0.62324467  0.00214824  0.50794345  1
  O  O424  1  0.61934110  0.50531850  0.00527618  1
  O  O425  1  0.61601691  0.49216964  0.51296197  1
  O  O426  1  0.36106269  0.37586204  0.12267047  1
  O  O427  1  0.37144146  0.37030546  0.62088887  1
  O  O428  1  0.36743429  0.87050353  0.11942005  1
  O  O429  1  0.36899606  0.87051265  0.62088727  1
  O  O430  1  0.86967556  0.36985435  0.12099340  1
  O  O431  1  0.87473720  0.36410208  0.61636369  1
  O  O432  1  0.86876835  0.87309258  0.11880889  1
  O  O433  1  0.86553261  0.86551076  0.63026442  1
  O  O434  1  0.12619078  0.13589894  0.37598679  1
  O  O435  1  0.13167816  0.12593171  0.88222810  1
  O  O436  1  0.13022609  0.63037235  0.38146051  1
  O  O437  1  0.12492299  0.63262400  0.88381453  1
  O  O438  1  0.63075381  0.13119051  0.37549884  1
  O  O439  1  0.62692219  0.12637900  0.88694474  1
  O  O440  1  0.63969885  0.62772665  0.36526430  1
  O  O441  1  0.63374893  0.62958694  0.87843314  1
