# generated using pymatgen
data_V93Zn93O256
_symmetry_space_group_name_H-M   'P 1'
_cell_length_a   17.05873946
_cell_length_b   17.05056268
_cell_length_c   17.05699229
_cell_angle_alpha   90.09273426
_cell_angle_beta   89.96015215
_cell_angle_gamma   90.04665112
_symmetry_Int_Tables_number   1
_chemical_formula_structural   V93Zn93O256
_chemical_formula_sum   'V93 Zn93 O256'
_cell_volume   4961.20631253
_cell_formula_units_Z   1
loop_
 _symmetry_equiv_pos_site_id
 _symmetry_equiv_pos_as_xyz
  1  'x, y, z'
loop_
 _atom_site_type_symbol
 _atom_site_label
 _atom_site_symmetry_multiplicity
 _atom_site_fract_x
 _atom_site_fract_y
 _atom_site_fract_z
 _atom_site_occupancy
  V  V0  1  0.62624022  0.24721743  0.37216505  1
  V  V1  1  0.37505627  0.49817560  0.37402541  1
  V  V2  1  0.25062716  0.87967314  0.13316789  1
  V  V3  1  0.00040370  0.24906828  0.24455904  1
  V  V4  1  0.37262625  0.25373087  0.12486464  1
  V  V5  1  0.75088194  0.25088531  -0.00214810  1
  V  V6  1  0.87446512  -0.00032729  0.87472542  1
  V  V7  1  0.62382143  0.25120687  0.87328366  1
  V  V8  1  0.00001481  0.37514517  0.37317114  1
  V  V9  1  0.74950668  0.12427076  0.37387814  1
  V  V10  1  -0.00007124  0.50054271  -0.00076036  1
  V  V11  1  0.63223528  0.74608604  0.87574135  1
  V  V12  1  0.12974861  0.37558954  0.24371170  1
  V  V13  1  0.25133593  0.62481239  0.37573037  1
  V  V14  1  0.36599324  -0.00338045  0.37401644  1
  V  V15  1  0.62554516  0.62089140  0.49926915  1
  V  V16  1  0.75185905  0.74769625  0.49893870  1
  V  V17  1  0.75132222  0.00020705  0.24766015  1
  V  V18  1  0.00175270  0.00720875  0.00338580  1
  V  V19  1  0.24809664  0.25719974  0.00395216  1
  V  V20  1  0.37547024  0.75158579  0.12555211  1
  V  V21  1  0.37302520  0.12810578  0.75161358  1
  V  V22  1  0.25142671  0.75188595  0.00169578  1
  V  V23  1  0.12406112  0.00026637  0.62500760  1
  V  V24  1  0.87490544  -0.00065497  0.37329894  1
  V  V25  1  0.74943371  0.12412556  0.87270208  1
  V  V26  1  0.12353696  0.25873234  0.87056024  1
  V  V27  1  0.49911592  0.37454387  0.87524726  1
  V  V28  1  0.37283081  0.25032011  0.62754224  1
  V  V29  1  0.49798601  0.24549530  0.24730805  1
  V  V30  1  0.74929142  0.87723313  0.62518613  1
  V  V31  1  -0.00018924  -0.00018118  0.50074508  1
  V  V32  1  0.37217936  0.37356181  0.49956271  1
  V  V33  1  0.12252278  0.12576088  0.49933031  1
  V  V34  1  0.37472515  0.50101407  0.87581648  1
  V  V35  1  0.74699800  0.37334325  0.62317430  1
  V  V36  1  0.37611199  0.62375787  0.25012170  1
  V  V37  1  0.24595222  0.25075994  0.49968597  1
  V  V38  1  -0.00029699  0.74977259  0.75029941  1
  V  V39  1  0.75117052  0.87294678  0.12203773  1
  V  V40  1  0.74801498  0.50297572  0.75152823  1
  V  V41  1  0.87478809  0.49919655  0.37405300  1
  V  V42  1  0.12484094  0.25014895  0.37405573  1
  V  V43  1  0.49918342  -0.00005665  0.00167642  1
  V  V44  1  0.75124335  0.62295378  0.37354854  1
  V  V45  1  0.63175773  0.62485709  -0.00366963  1
  V  V46  1  0.49957514  0.49560114  0.49953843  1
  V  V47  1  0.87621852  0.37587865  -0.00208339  1
  V  V48  1  0.62573686  0.87550037  0.75044198  1
  V  V49  1  0.00084425  0.50038196  0.50005888  1
  V  V50  1  0.50148899  0.62545915  0.12442966  1
  V  V51  1  0.87508209  0.37406327  0.49861820  1
  V  V52  1  0.86985647  0.50487758  0.87536235  1
  V  V53  1  0.00135462  0.87716065  0.87555456  1
  V  V54  1  0.62423300  0.49451033  0.62411412  1
  V  V55  1  0.12599352  0.62330806  0.50193212  1
  V  V56  1  0.75069786  0.24779917  0.49706002  1
  V  V57  1  0.37535686  0.62713071  0.74746059  1
  V  V58  1  0.75132864  0.49811264  0.24956267  1
  V  V59  1  0.87411431  0.24788485  0.62492279  1
  V  V60  1  0.00202064  0.87198876  0.37212546  1
  V  V61  1  0.37261684  0.00150467  0.87950977  1
  V  V62  1  0.87914968  0.24739110  0.12201632  1
  V  V63  1  0.62553596  0.74894921  0.37385096  1
  V  V64  1  0.49987456  0.50151436  0.00037309  1
  V  V65  1  0.00131393  0.25629162  0.74872317  1
  V  V66  1  0.12594090  0.00710627  0.13204654  1
  V  V67  1  0.87648357  0.74865761  0.62633080  1
  V  V68  1  0.87778450  0.75010947  0.12615307  1
  V  V69  1  0.87532116  0.87404348  0.49959124  1
  V  V70  1  0.49992557  0.87392748  0.87642326  1
  V  V71  1  0.50195049  0.74910402  0.25163977  1
  V  V72  1  0.87249572  0.62533455  0.75178411  1
  V  V73  1  0.49869394  0.62179930  0.62484792  1
  V  V74  1  0.49872986  0.37189621  0.37298677  1
  V  V75  1  0.88118847  0.12478486  0.24247499  1
  V  V76  1  0.25753267  0.75114600  0.50163506  1
  V  V77  1  0.12592499  0.87570393  0.74969959  1
  V  V78  1  0.00154799  0.62672575  0.12578215  1
  V  V79  1  0.25045454  0.62712595  0.87532936  1
  V  V80  1  0.12539373  0.75208971  0.87607754  1
  V  V81  1  0.12603057  0.62655006  0.00136673  1
  V  V82  1  0.75093763  0.37460647  0.12410064  1
  V  V83  1  0.62446120  0.00008259  0.12465718  1
  V  V84  1  0.25064138  0.49777439  0.24628174  1
  V  V85  1  0.37289382  0.37670282  0.00187405  1
  V  V86  1  0.25555793  0.87657872  0.62167562  1
  V  V87  1  0.24128853  0.37704416  0.62976054  1
  V  V88  1  0.50041983  0.88025618  0.38223836  1
  V  V89  1  0.24173984  0.49821937  0.75069647  1
  V  V90  1  0.24515618  0.12594291  0.87883314  1
  V  V91  1  0.62582778  0.37403055  0.24681832  1
  V  V92  1  0.12875038  0.49941738  0.12457766  1
  Zn  Zn93  1  0.87566788  0.12490318  0.74755647  1
  Zn  Zn94  1  0.00054880  0.62332505  0.62622816  1
  Zn  Zn95  1  0.36583013  0.11539529  0.24450901  1
  Zn  Zn96  1  0.00288800  0.38009138  0.86869945  1
  Zn  Zn97  1  0.13035646  0.87620785  0.25332096  1
  Zn  Zn98  1  0.62390160  0.12518966  -0.00082260  1
  Zn  Zn99  1  0.49894117  0.25061461  0.75276152  1
  Zn  Zn100  1  0.44290364  0.94150296  0.54189661  1
  Zn  Zn101  1  0.74880694  0.00119596  0.74861427  1
  Zn  Zn102  1  0.12798592  0.75099228  0.37353342  1
  Zn  Zn103  1  0.11885166  0.49701657  0.63153959  1
  Zn  Zn104  1  0.87763452  0.87348814  -0.00035816  1
  Zn  Zn105  1  -0.00220575  0.12430724  0.62679550  1
  Zn  Zn106  1  0.11701828  0.13199729  0.00600856  1
  Zn  Zn107  1  0.62077465  0.37452715  0.74666661  1
  Zn  Zn108  1  0.49862189  0.12392557  0.12437297  1
  Zn  Zn109  1  0.61480619  -0.00206034  0.61872065  1
  Zn  Zn110  1  0.75506040  0.74464411  -0.00315083  1
  Zn  Zn111  1  0.24719692  0.11999884  0.36946519  1
  Zn  Zn112  1  0.24651623  -0.00029375  0.75236247  1
  Zn  Zn113  1  0.37372477  0.87549834  0.00124455  1
  Zn  Zn114  1  0.49795761  0.11610275  0.62087466  1
  Zn  Zn115  1  0.62662150  0.50052818  0.12309221  1
  Zn  Zn116  1  0.38192629  0.75847337  0.62324894  1
  Zn  Zn117  1  0.87798854  0.62414296  0.25045760  1
  Zn  Zn118  1  0.61649918  0.11492058  0.49929250  1
  Zn  Zn119  1  0.62544463  0.87427253  0.25179419  1
  Zn  Zn120  1  0.00562048  0.74848354  0.25033267  1
  Zn  Zn121  1  0.50195348  0.74677068  0.75051145  1
  Zn  Zn122  1  0.18881961  0.18801908  0.18893337  1
  Zn  Zn123  1  0.18454668  0.18727843  0.68864893  1
  Zn  Zn124  1  0.18777906  0.69006606  0.19010659  1
  Zn  Zn125  1  0.18846243  0.68905089  0.68570053  1
  Zn  Zn126  1  0.69013763  0.18609291  0.18574135  1
  Zn  Zn127  1  0.68545371  0.18505714  0.68550611  1
  Zn  Zn128  1  0.68863929  0.68546652  0.18686666  1
  Zn  Zn129  1  0.68662901  0.68627235  0.68635018  1
  Zn  Zn130  1  0.31010708  0.30826492  0.31111414  1
  Zn  Zn131  1  0.30890221  0.31524558  0.81507120  1
  Zn  Zn132  1  0.31687413  0.81314526  0.31582364  1
  Zn  Zn133  1  0.31245906  0.81414167  0.81203082  1
  Zn  Zn134  1  0.81365421  0.31109265  0.31015382  1
  Zn  Zn135  1  0.81383551  0.31619092  0.80957637  1
  Zn  Zn136  1  0.81340271  0.81187423  0.30955536  1
  Zn  Zn137  1  0.81297058  0.81357513  0.81236618  1
  Zn  Zn138  1  0.18696523  0.43711531  0.43606358  1
  Zn  Zn139  1  0.18742388  0.43914607  0.93742757  1
  Zn  Zn140  1  0.18712440  0.93641945  0.44079583  1
  Zn  Zn141  1  0.18607702  0.93857432  0.94499560  1
  Zn  Zn142  1  0.68673758  0.43307520  0.43526916  1
  Zn  Zn143  1  0.68692110  0.43728430  0.93691213  1
  Zn  Zn144  1  0.68502968  0.93826696  0.43823198  1
  Zn  Zn145  1  0.68674528  0.93519796  0.93857227  1
  Zn  Zn146  1  0.30987533  0.06673717  0.06461442  1
  Zn  Zn147  1  0.30778304  0.06517417  0.55848171  1
  Zn  Zn148  1  0.31247035  0.56405792  0.06421195  1
  Zn  Zn149  1  0.31132736  0.56050659  0.56376275  1
  Zn  Zn150  1  0.81191781  0.06263882  0.05857157  1
  Zn  Zn151  1  0.81096585  0.06301119  0.56000559  1
  Zn  Zn152  1  0.81382593  0.56225170  0.06478511  1
  Zn  Zn153  1  0.81333511  0.56135782  0.56401379  1
  Zn  Zn154  1  0.43857182  0.43623909  0.18553548  1
  Zn  Zn155  1  0.43347515  0.43594829  0.68890883  1
  Zn  Zn156  1  0.43790550  0.93351814  0.19360617  1
  Zn  Zn157  1  0.43601243  0.94013820  0.70431047  1
  Zn  Zn158  1  0.93956800  0.43680139  0.18566657  1
  Zn  Zn159  1  0.93470506  0.43674384  0.68582665  1
  Zn  Zn160  1  0.94055218  0.93765030  0.18604177  1
  Zn  Zn161  1  0.93760003  0.93666559  0.68836826  1
  Zn  Zn162  1  0.06173053  0.06245332  0.31373353  1
  Zn  Zn163  1  0.06095202  0.06713672  0.81138064  1
  Zn  Zn164  1  0.06340780  0.56338943  0.31262005  1
  Zn  Zn165  1  0.05882221  0.56677109  0.81584145  1
  Zn  Zn166  1  0.56079660  0.06019345  0.31276803  1
  Zn  Zn167  1  0.56055205  0.06239980  0.81091494  1
  Zn  Zn168  1  0.56412704  0.56016425  0.31148698  1
  Zn  Zn169  1  0.56258781  0.56158161  0.81336609  1
  Zn  Zn170  1  0.43412597  0.17675956  0.43818950  1
  Zn  Zn171  1  0.43629317  0.18674520  0.93979749  1
  Zn  Zn172  1  0.43972365  0.68712179  0.43754312  1
  Zn  Zn173  1  0.44067165  0.68893265  0.93770803  1
  Zn  Zn174  1  0.93797964  0.18619406  0.43416261  1
  Zn  Zn175  1  0.93740924  0.18828108  0.93322756  1
  Zn  Zn176  1  0.93850985  0.68638485  0.43783045  1
  Zn  Zn177  1  0.93784339  0.68710850  0.93851322  1
  Zn  Zn178  1  0.06059328  0.31432299  0.06070865  1
  Zn  Zn179  1  0.05954152  0.31184646  0.56280461  1
  Zn  Zn180  1  0.06439417  0.81881372  0.06322529  1
  Zn  Zn181  1  0.06570042  0.81118858  0.56176219  1
  Zn  Zn182  1  0.56191122  0.31322085  0.06103614  1
  Zn  Zn183  1  0.55155708  0.28784427  0.55095291  1
  Zn  Zn184  1  0.56365662  0.81164532  0.06151400  1
  Zn  Zn185  1  0.56646219  0.80465185  0.56405072  1
  O  O186  1  0.13118234  0.11112891  0.12307801  1
  O  O187  1  0.12355288  0.11830095  0.61764472  1
  O  O188  1  0.12112129  0.62059923  0.11917234  1
  O  O189  1  0.12473015  0.62228512  0.61351978  1
  O  O190  1  0.62557849  0.11176020  0.12131310  1
  O  O191  1  0.61862536  0.11762163  0.62687944  1
  O  O192  1  0.61863799  0.62395106  0.11544973  1
  O  O193  1  0.61940710  0.61602775  0.61834081  1
  O  O194  1  0.37884274  0.37858516  0.37924733  1
  O  O195  1  0.37893126  0.38154112  0.88190510  1
  O  O196  1  0.38463391  0.88667379  0.37414039  1
  O  O197  1  0.38063602  0.88261922  0.87632811  1
  O  O198  1  0.88054068  0.37911385  0.37892453  1
  O  O199  1  0.87634051  0.38714084  0.88043704  1
  O  O200  1  0.88085779  0.87938268  0.37992074  1
  O  O201  1  0.88068672  0.88385887  0.87675052  1
  O  O202  1  0.26248911  -0.00569448  0.37524178  1
  O  O203  1  0.25276396  0.01116680  0.88004592  1
  O  O204  1  0.25677539  0.50442302  0.36831948  1
  O  O205  1  0.25465739  0.50694115  0.86928753  1
  O  O206  1  0.75672646  0.00262588  0.36673854  1
  O  O207  1  0.75696909  0.00644824  0.87709472  1
  O  O208  1  0.75519340  0.50290750  0.36996233  1
  O  O209  1  0.75861621  0.49435940  0.86406436  1
  O  O210  1  0.24201216  0.50659214  0.13325361  1
  O  O211  1  0.24783397  0.49297387  0.63409567  1
  O  O212  1  0.23712210  0.99239441  0.11698802  1
  O  O213  1  0.24348179  0.99121415  0.62441731  1
  O  O214  1  0.75028921  0.49186954  0.13137739  1
  O  O215  1  0.74452620  0.49317847  0.63056364  1
  O  O216  1  0.74393355  0.99273784  0.12670392  1
  O  O217  1  0.75386786  0.98399069  0.62708073  1
  O  O218  1  0.00857707  0.37067298  0.25467793  1
  O  O219  1  -0.00506442  0.36191225  0.75017362  1
  O  O220  1  -0.00084908  0.87493029  0.26362589  1
  O  O221  1  0.00608513  0.86919244  0.75621569  1
  O  O222  1  0.50581479  0.36648022  0.25293158  1
  O  O223  1  0.49928143  0.37418763  0.76071260  1
  O  O224  1  0.50397205  0.86526134  0.26153404  1
  O  O225  1  0.50974756  0.87005018  0.75799154  1
  O  O226  1  0.49855063  0.13819476  0.24808997  1
  O  O227  1  0.48260786  0.12770451  0.75067920  1
  O  O228  1  0.49552399  0.62827745  0.24526621  1
  O  O229  1  0.48999104  0.62141804  0.74485593  1
  O  O230  1  0.98728910  0.13098943  0.25518542  1
  O  O231  1  0.99590919  0.13836966  0.74776547  1
  O  O232  1  0.99862035  0.62659216  0.24167046  1
  O  O233  1  0.99219822  0.63268654  0.74852526  1
  O  O234  1  0.36806509  0.25577871  0.00563341  1
  O  O235  1  0.36516293  0.25486771  0.50961549  1
  O  O236  1  0.36979632  0.75064604  0.00719320  1
  O  O237  1  0.36183491  0.74024379  0.50480342  1
  O  O238  1  0.87046745  0.25543379  0.00176148  1
  O  O239  1  0.87081835  0.25514692  0.50289368  1
  O  O240  1  0.87348239  0.75163815  0.01058878  1
  O  O241  1  0.87030554  0.75440856  0.50571876  1
  O  O242  1  0.12621910  0.24590722  0.49417310  1
  O  O243  1  0.13138663  0.24981102  0.99374079  1
  O  O244  1  0.13615824  0.73950727  0.49902838  1
  O  O245  1  0.13072382  0.74604819  0.99534571  1
  O  O246  1  0.63848794  0.25389651  0.48683475  1
  O  O247  1  0.63088918  0.24866370  0.98900940  1
  O  O248  1  0.63348899  0.73967571  0.49412415  1
  O  O249  1  0.62620806  0.74187140  0.99270367  1
  O  O250  1  0.49329764  0.24834677  0.13034091  1
  O  O251  1  0.47810947  0.26054358  0.63544262  1
  O  O252  1  0.49565580  0.74596915  0.13092700  1
  O  O253  1  0.49838452  0.73857339  0.62911442  1
  O  O254  1  0.99150546  0.25472856  0.13106218  1
  O  O255  1  0.99308328  0.24919871  0.63185678  1
  O  O256  1  0.99281340  0.74713918  0.12338820  1
  O  O257  1  0.99382295  0.75051316  0.63229283  1
  O  O258  1  0.00504376  0.25611858  0.36634887  1
  O  O259  1  0.00733450  0.25268775  0.86774389  1
  O  O260  1  0.00082477  0.76117559  0.37623001  1
  O  O261  1  0.00570428  0.75624026  0.87087880  1
  O  O262  1  0.50363514  0.25436617  0.36357996  1
  O  O263  1  0.50779415  0.25431749  0.87700254  1
  O  O264  1  0.50570198  0.75393928  0.37025797  1
  O  O265  1  0.51121277  0.75642971  0.87410835  1
  O  O266  1  0.23969447  0.13370091  0.49448275  1
  O  O267  1  0.25010474  0.13800651  0.99000621  1
  O  O268  1  0.24397006  0.62914958  0.49635010  1
  O  O269  1  0.24547906  0.63127380  0.99444128  1
  O  O270  1  0.75153681  0.13210067  0.48924668  1
  O  O271  1  0.74815701  0.13131377  0.98794142  1
  O  O272  1  0.74534019  0.62755171  0.49417690  1
  O  O273  1  0.73579299  0.62443835  1.00560253  1
  O  O274  1  0.25654744  0.36443971  -0.00720873  1
  O  O275  1  0.25368525  0.37213891  0.50862433  1
  O  O276  1  0.25206057  0.86858257  0.01084323  1
  O  O277  1  0.24397484  0.86382081  0.51174666  1
  O  O278  1  0.75617643  0.37014835  0.00395783  1
  O  O279  1  0.75708770  0.36884348  0.50270071  1
  O  O280  1  0.75227992  0.87302035  0.01288124  1
  O  O281  1  0.75578815  0.86731065  0.50679210  1
  O  O282  1  0.13016013  0.49303546  0.24561525  1
  O  O283  1  0.13806780  0.50988716  0.75194651  1
  O  O284  1  0.11824266  0.99874992  0.23508043  1
  O  O285  1  0.12537214  0.99436343  0.74450063  1
  O  O286  1  0.63239455  0.49180511  0.24759886  1
  O  O287  1  0.63267073  0.49882403  0.74441300  1
  O  O288  1  0.63151622  0.99869057  0.23923612  1
  O  O289  1  0.62621498  0.98460164  0.75024234  1
  O  O290  1  0.38367221  0.00174583  0.26666495  1
  O  O291  1  0.36707691  0.01204556  0.76158847  1
  O  O292  1  0.37127063  0.50336563  0.25414955  1
  O  O293  1  0.36502099  0.50954816  0.75595721  1
  O  O294  1  0.87200703  0.00722112  0.25184321  1
  O  O295  1  0.87371901  0.00042251  0.76359118  1
  O  O296  1  0.86935445  0.49874015  0.25647525  1
  O  O297  1  0.86778446  0.50434450  0.75650622  1
  O  O298  1  0.11824890  0.37103036  0.36560987  1
  O  O299  1  0.12368783  0.36304765  0.87819484  1
  O  O300  1  0.11438700  0.87593304  0.37483053  1
  O  O301  1  0.12209217  0.87095406  0.87027952  1
  O  O302  1  0.61887773  0.36749324  0.36631836  1
  O  O303  1  0.61888728  0.36575921  0.87468466  1
  O  O304  1  0.61930648  0.86604682  0.37327574  1
  O  O305  1  0.62100766  0.86774966  0.86837242  1
  O  O306  1  0.37799258  0.13894600  0.12578269  1
  O  O307  1  0.36761263  0.13508333  0.63488886  1
  O  O308  1  0.38151393  0.63132599  0.13107781  1
  O  O309  1  0.37970099  0.62177058  0.63500372  1
  O  O310  1  0.86755001  0.12996780  0.13505060  1
  O  O311  1  0.87513172  0.13212109  0.62658738  1
  O  O312  1  0.88214110  0.63399221  0.12485301  1
  O  O313  1  0.87649872  0.63191845  0.63162726  1
  O  O314  1  0.25793535  0.24649691  0.11191847  1
  O  O315  1  0.25426042  0.25792177  0.62241370  1
  O  O316  1  0.25599705  0.75718350  0.12039971  1
  O  O317  1  0.25334156  0.75964384  0.61944569  1
  O  O318  1  0.75714315  0.25483681  0.11751732  1
  O  O319  1  0.75452429  0.25425124  0.61844708  1
  O  O320  1  0.75870245  0.75759343  0.12477898  1
  O  O321  1  0.75526592  0.75729588  0.61951046  1
  O  O322  1  0.24029968  0.25571331  0.38553264  1
  O  O323  1  0.24221405  0.24519336  0.88202194  1
  O  O324  1  0.25211618  0.74404066  0.38506898  1
  O  O325  1  0.24499202  0.74638055  0.88055845  1
  O  O326  1  0.74632091  0.24397092  0.37572135  1
  O  O327  1  0.74380149  0.24433922  0.87767811  1
  O  O328  1  0.74684039  0.74395028  0.37932579  1
  O  O329  1  0.73706829  0.75657589  0.87850987  1
  O  O330  1  -0.00082686  0.11234109  -0.00561599  1
  O  O331  1  0.00452424  0.11751820  0.50039893  1
  O  O332  1  0.00748923  0.61985059  0.00518596  1
  O  O333  1  0.01006099  0.61983783  0.50051282  1
  O  O334  1  0.50230324  0.11180141  0.00097281  1
  O  O335  1  0.51157884  0.16308895  0.51497891  1
  O  O336  1  0.50791086  0.62027508  0.00527887  1
  O  O337  1  0.50565839  0.61552929  0.50384028  1
  O  O338  1  0.49213911  0.37572176  0.49263794  1
  O  O339  1  0.49362083  0.38184822  0.99445938  1
  O  O340  1  0.50132225  0.86107612  0.48877142  1
  O  O341  1  0.49906280  0.88536838  0.99539817  1
  O  O342  1  0.99458855  0.37990854  0.49293369  1
  O  O343  1  0.99280051  0.38398934  0.99727270  1
  O  O344  1  0.99503362  0.87917547  0.49280964  1
  O  O345  1  1.00028316  0.88705226  0.99216449  1
  O  O346  1  0.49489384  0.49194076  0.37938833  1
  O  O347  1  0.49341627  0.49546043  0.88131232  1
  O  O348  1  0.49828921  0.98603153  0.37513688  1
  O  O349  1  0.49484731  0.99516567  0.88338058  1
  O  O350  1  0.99452292  0.49455217  0.37988472  1
  O  O351  1  0.99056866  0.49934020  0.88044968  1
  O  O352  1  0.99388089  0.99167191  0.38073313  1
  O  O353  1  0.99304369  0.99707560  0.88070778  1
  O  O354  1  0.01409441  -0.00765504  0.11514743  1
  O  O355  1  0.00547986  -0.00096357  0.61831488  1
  O  O356  1  0.00664489  0.50646297  0.11825932  1
  O  O357  1  0.00135233  0.50122626  0.61727878  1
  O  O358  1  0.50796087  -0.00210775  0.11922175  1
  O  O359  1  0.49468117  -0.00179692  0.62638244  1
  O  O360  1  0.50130944  0.50687914  0.11791601  1
  O  O361  1  0.50351844  0.50098175  0.61842515  1
  O  O362  1  0.23669356  0.38060295  0.25541052  1
  O  O363  1  0.25588552  0.38761415  0.74266309  1
  O  O364  1  0.25221874  0.87059647  0.23677353  1
  O  O365  1  0.24434141  0.87618482  0.74010261  1
  O  O366  1  0.74538990  0.37788758  0.24372340  1
  O  O367  1  0.74860210  0.38662628  0.74202859  1
  O  O368  1  0.75006667  0.88115874  0.23808857  1
  O  O369  1  0.74222567  0.87400122  0.74157310  1
  O  O370  1  0.25722626  0.14102480  0.25963276  1
  O  O371  1  0.25527393  0.12519575  0.76221969  1
  O  O372  1  0.25712264  0.61916454  0.25624306  1
  O  O373  1  0.25746054  0.61968020  0.75475202  1
  O  O374  1  0.76007349  0.11978660  0.25413085  1
  O  O375  1  0.75138613  0.12193634  0.76254013  1
  O  O376  1  0.75258544  0.61671313  0.25629568  1
  O  O377  1  0.75524968  0.61051449  0.74235156  1
  O  O378  1  0.37358224  0.11053033  0.37124383  1
  O  O379  1  0.36472410  0.12399565  0.87012470  1
  O  O380  1  0.37184293  0.61729339  0.36938594  1
  O  O381  1  0.37055943  0.62104632  0.86770713  1
  O  O382  1  0.86962004  0.11894897  0.36422935  1
  O  O383  1  0.86482786  0.11671503  0.87440756  1
  O  O384  1  0.86882447  0.61755311  0.37451426  1
  O  O385  1  0.87804803  0.61278636  0.87007567  1
  O  O386  1  0.11860064  0.38248648  0.13669985  1
  O  O387  1  0.13778781  0.37625954  0.62076958  1
  O  O388  1  0.13449969  0.88548410  0.12714545  1
  O  O389  1  0.13307506  0.88006678  0.63038767  1
  O  O390  1  0.63279684  0.37579824  0.12868117  1
  O  O391  1  0.63026672  0.37847861  0.62402864  1
  O  O392  1  0.63339068  0.88303050  0.12614453  1
  O  O393  1  0.63394146  0.87030220  0.63403154  1
  O  O394  1  0.11937913  0.25883222  0.25240344  1
  O  O395  1  0.11584900  0.24588537  0.75991554  1
  O  O396  1  0.12272010  0.75599403  0.25580873  1
  O  O397  1  0.12029931  0.75473154  0.75643933  1
  O  O398  1  0.61750838  0.25387693  0.25100277  1
  O  O399  1  0.62308617  0.25228912  0.76287227  1
  O  O400  1  0.62004978  0.74854645  0.25670979  1
  O  O401  1  0.62560407  0.75663303  0.75788696  1
  O  O402  1  0.38534657  0.25675258  0.23995722  1
  O  O403  1  0.36812308  0.24262843  0.74526388  1
  O  O404  1  0.38175830  0.74233030  0.24598469  1
  O  O405  1  0.37611440  0.73684623  0.74939061  1
  O  O406  1  0.88002814  0.24282132  0.24291465  1
  O  O407  1  0.88155673  0.24894480  0.74362616  1
  O  O408  1  0.87882179  0.74771213  0.23700828  1
  O  O409  1  0.87947645  0.74516558  0.74693311  1
  O  O410  1  0.37976572  0.49358234  0.49405376  1
  O  O411  1  0.37869463  0.49737763  0.99487668  1
  O  O412  1  0.37493871  1.00799202  0.48411475  1
  O  O413  1  0.38386336  1.00057765  0.99753505  1
  O  O414  1  0.88007785  0.49383073  0.49392300  1
  O  O415  1  0.87864300  0.49717245  0.99255133  1
  O  O416  1  0.87934199  0.99294559  0.49318214  1
  O  O417  1  0.88225649  0.99833444  0.99079637  1
  O  O418  1  0.11671348  0.00506451  0.00861150  1
  O  O419  1  0.11898809  0.00555226  0.50517009  1
  O  O420  1  0.12108485  0.50655805  0.00401803  1
  O  O421  1  0.12011058  0.50870459  0.50012733  1
  O  O422  1  0.61636023  -0.00088206  0.00760913  1
  O  O423  1  0.62518238  0.00180895  0.50449252  1
  O  O424  1  0.61857268  0.50824345  -0.00131942  1
  O  O425  1  0.61907923  0.50161965  0.50326450  1
  O  O426  1  0.38003228  0.36286782  0.11704057  1
  O  O427  1  0.36189632  0.36963443  0.62053348  1
  O  O428  1  0.36842738  0.86994610  0.12422245  1
  O  O429  1  0.36592316  0.87860592  0.62789695  1
  O  O430  1  0.86995712  0.36887440  0.11779041  1
  O  O431  1  0.86720858  0.36864325  0.61709090  1
  O  O432  1  0.86855034  0.86809933  0.12347662  1
  O  O433  1  0.86780976  0.86840016  0.62097560  1
  O  O434  1  0.12399429  0.13217043  0.38112598  1
  O  O435  1  0.13325282  0.13509259  0.87801875  1
  O  O436  1  0.13275869  0.62462101  0.38581878  1
  O  O437  1  0.13070423  0.63263511  0.88189994  1
  O  O438  1  0.63248546  0.13089711  0.37189571  1
  O  O439  1  0.63225419  0.13218642  0.87468687  1
  O  O440  1  0.63105256  0.62779484  0.38058109  1
  O  O441  1  0.61834517  0.63463297  0.88406203  1
