# generated using pymatgen
data_V93Zn93O256
_symmetry_space_group_name_H-M   'P 1'
_cell_length_a   17.04679655
_cell_length_b   17.04780179
_cell_length_c   17.05042217
_cell_angle_alpha   90.03552491
_cell_angle_beta   89.94889450
_cell_angle_gamma   90.01161862
_symmetry_Int_Tables_number   1
_chemical_formula_structural   V93Zn93O256
_chemical_formula_sum   'V93 Zn93 O256'
_cell_volume   4955.02713141
_cell_formula_units_Z   1
loop_
 _symmetry_equiv_pos_site_id
 _symmetry_equiv_pos_as_xyz
  1  'x, y, z'
loop_
 _atom_site_type_symbol
 _atom_site_label
 _atom_site_symmetry_multiplicity
 _atom_site_fract_x
 _atom_site_fract_y
 _atom_site_fract_z
 _atom_site_occupancy
  V  V0  1  0.75074553  0.87636302  0.62414208  1
  V  V1  1  0.24814909  0.87308315  0.12180367  1
  V  V2  1  0.00029953  0.87574649  0.87408896  1
  V  V3  1  0.50091222  -0.00303581  0.49732730  1
  V  V4  1  0.75176001  0.12539681  0.37565962  1
  V  V5  1  -0.00148841  0.87169206  0.37093715  1
  V  V6  1  0.50202127  0.37491662  0.87512123  1
  V  V7  1  0.50050786  0.25073237  0.75105958  1
  V  V8  1  0.00118246  0.37711199  0.88062947  1
  V  V9  1  0.88010028  0.50201345  0.88177484  1
  V  V10  1  0.12460166  0.50016853  0.62504337  1
  V  V11  1  0.49780322  0.24917115  0.24803850  1
  V  V12  1  0.00316452  0.00293907  -0.00060564  1
  V  V13  1  0.75031366  0.00165180  0.75014617  1
  V  V14  1  0.37593815  0.37547611  0.50053293  1
  V  V15  1  0.49827158  0.00085680  0.00018565  1
  V  V16  1  0.00065575  -0.00004199  0.49768427  1
  V  V17  1  0.62549913  0.62587085  0.50044986  1
  V  V18  1  0.37975596  -0.00828437  0.37127675  1
  V  V19  1  0.49937730  0.87522978  0.87414047  1
  V  V20  1  0.87555904  0.25133348  0.12631248  1
  V  V21  1  0.75070687  0.25077325  0.50105557  1
  V  V22  1  0.37444253  0.12366495  0.75015510  1
  V  V23  1  0.87614328  0.50147398  0.37679648  1
  V  V24  1  0.87578788  0.12689951  0.75053572  1
  V  V25  1  0.62541872  0.74844994  0.87595236  1
  V  V26  1  0.87558673  0.25105887  0.62698103  1
  V  V27  1  0.87604786  0.00087586  0.87515984  1
  V  V28  1  0.49984242  0.50635457  0.00523254  1
  V  V29  1  0.24981933  0.37355519  0.62508690  1
  V  V30  1  0.50076036  0.12462552  0.62453477  1
  V  V31  1  0.24635923  0.12237775  0.87665139  1
  V  V32  1  0.00435607  0.12510190  0.11980966  1
  V  V33  1  0.24614257  0.24492445  0.00051554  1
  V  V34  1  0.62374716  0.12571298  0.00132240  1
  V  V35  1  0.24965688  0.50077145  0.25004777  1
  V  V36  1  0.87567619  0.37671669  0.50114537  1
  V  V37  1  0.38181615  0.62392278  0.24448290  1
  V  V38  1  0.87412377  0.62541384  0.75112476  1
  V  V39  1  0.87861845  0.37884806  0.00164224  1
  V  V40  1  0.75025953  0.37657043  0.12609801  1
  V  V41  1  0.25032903  0.24838640  0.49882999  1
  V  V42  1  0.88214947  0.63002610  0.25137907  1
  V  V43  1  0.74956281  0.25075400  0.00202039  1
  V  V44  1  0.25043872  0.87396623  0.62356019  1
  V  V45  1  0.88206247  0.75154706  0.12884265  1
  V  V46  1  0.75051985  0.62708858  0.37641895  1
  V  V47  1  0.37553009  0.24924998  0.62472050  1
  V  V48  1  0.25113943  -0.00149951  0.24736745  1
  V  V49  1  0.12558870  0.24776236  0.87620789  1
  V  V50  1  0.75021278  0.37680873  0.62754056  1
  V  V51  1  0.75007207  0.50085320  0.75262093  1
  V  V52  1  0.62606551  0.25126417  0.37636733  1
  V  V53  1  0.37533722  0.74918597  0.62408261  1
  V  V54  1  0.25076961  0.37144101  0.12566488  1
  V  V55  1  0.37042889  0.50362315  0.87577519  1
  V  V56  1  0.12523592  0.37428847  0.25147010  1
  V  V57  1  0.00056507  0.24883878  0.25172574  1
  V  V58  1  0.25011109  0.12314250  0.37397443  1
  V  V59  1  0.24598591  0.73970056  -0.00419034  1
  V  V60  1  0.37830074  0.87276844  0.49662972  1
  V  V61  1  0.25045458  0.74820141  0.49800868  1
  V  V62  1  0.00025536  0.25014998  0.75065756  1
  V  V63  1  0.74680201  0.87667816  0.12752893  1
  V  V64  1  0.75039112  0.50116958  0.25109246  1
  V  V65  1  0.12443710  0.74829801  0.37353338  1
  V  V66  1  -0.00010312  0.62555921  0.62388594  1
  V  V67  1  0.12470761  0.87397744  0.74814415  1
  V  V68  1  0.50005007  0.49914557  0.50129421  1
  V  V69  1  0.49956627  0.62548412  0.62553003  1
  V  V70  1  0.12412763  0.00022033  0.12044770  1
  V  V71  1  0.37277696  0.87327569  -0.00262970  1
  V  V72  1  0.12656433  -0.00016980  0.62274548  1
  V  V73  1  0.74933550  0.75095895  0.00041744  1
  V  V74  1  0.75037375  0.00063800  0.25052682  1
  V  V75  1  0.75112772  0.12653647  0.87699829  1
  V  V76  1  0.87535463  0.75157217  0.62423334  1
  V  V77  1  0.61715704  0.75583063  0.37247371  1
  V  V78  1  0.62459350  0.37719342  0.25110205  1
  V  V79  1  0.62160831  0.50908815  0.12606945  1
  V  V80  1  0.37034834  0.62515420  0.75171912  1
  V  V81  1  0.25021839  0.49975138  0.75176523  1
  V  V82  1  0.37998738  0.74306459  0.12108115  1
  V  V83  1  0.12085329  0.86963398  0.24766313  1
  V  V84  1  0.00050465  0.49972930  0.50046136  1
  V  V85  1  0.49980965  0.37542994  0.37728307  1
  V  V86  1  0.12517946  0.37420586  0.75128829  1
  V  V87  1  0.62615177  0.50141820  0.62795282  1
  V  V88  1  0.62499144  0.87608463  0.75026615  1
  V  V89  1  0.87490892  0.87674358  0.00000557  1
  V  V90  1  0.00291172  0.61857827  0.11812075  1
  V  V91  1  0.12655125  0.74469268  0.87427500  1
  V  V92  1  0.37409987  0.37354868  0.00117282  1
  Zn  Zn93  1  0.62648102  0.25209549  0.87533773  1
  Zn  Zn94  1  0.25152973  -0.00111042  0.74981031  1
  Zn  Zn95  1  0.12670541  0.62325777  0.49850417  1
  Zn  Zn96  1  0.62224940  0.62897093  0.00450333  1
  Zn  Zn97  1  0.12187256  0.61240233  -0.01337820  1
  Zn  Zn98  1  0.37241592  -0.00206830  0.87219585  1
  Zn  Zn99  1  0.37698055  0.12213838  0.24664947  1
  Zn  Zn100  1  0.87619468  0.12504191  0.25023034  1
  Zn  Zn101  1  0.12513698  0.12677543  0.50016086  1
  Zn  Zn102  1  0.62502318  0.00166031  0.62417331  1
  Zn  Zn103  1  0.75001424  0.62408263  0.87864053  1
  Zn  Zn104  1  0.25082908  0.62474738  0.37409674  1
  Zn  Zn105  1  0.61488794  0.88215734  0.25786200  1
  Zn  Zn106  1  0.11950428  0.49432259  0.11742512  1
  Zn  Zn107  1  0.12448986  0.24744191  0.37693199  1
  Zn  Zn108  1  0.00117524  0.12594806  0.62353559  1
  Zn  Zn109  1  0.62557214  0.12510987  0.50285519  1
  Zn  Zn110  1  0.37505247  0.24616653  0.12427094  1
  Zn  Zn111  1  0.87540193  -0.00092627  0.37536712  1
  Zn  Zn112  1  0.49981000  0.75041956  0.24521136  1
  Zn  Zn113  1  0.62610266  0.37527263  0.75165981  1
  Zn  Zn114  1  0.87422422  0.87539839  0.49671485  1
  Zn  Zn115  1  0.49815780  0.12505521  0.12518718  1
  Zn  Zn116  1  0.00052242  0.74997536  0.75047863  1
  Zn  Zn117  1  0.49876300  0.75092961  0.75016782  1
  Zn  Zn118  1  -0.00026702  0.37383204  0.37609399  1
  Zn  Zn119  1  0.37534907  0.50271636  0.37532572  1
  Zn  Zn120  1  0.74903663  0.75279546  0.49815676  1
  Zn  Zn121  1  0.62311119  0.00061716  0.12691089  1
  Zn  Zn122  1  0.18704426  0.18539851  0.18774490  1
  Zn  Zn123  1  0.18801298  0.18560326  0.68879036  1
  Zn  Zn124  1  0.19031346  0.68724317  0.18622257  1
  Zn  Zn125  1  0.18757621  0.68704611  0.68751392  1
  Zn  Zn126  1  0.68517938  0.18759797  0.18823810  1
  Zn  Zn127  1  0.68561651  0.18897865  0.68883900  1
  Zn  Zn128  1  0.69324739  0.68921459  0.19113172  1
  Zn  Zn129  1  0.68873151  0.68836692  0.68993081  1
  Zn  Zn130  1  0.31448450  0.31239411  0.31456547  1
  Zn  Zn131  1  0.31369795  0.31192441  0.81348447  1
  Zn  Zn132  1  0.31105479  0.81035760  0.30796030  1
  Zn  Zn133  1  0.30961127  0.81160280  0.81187222  1
  Zn  Zn134  1  0.81349097  0.31428160  0.31365285  1
  Zn  Zn135  1  0.81311993  0.31484601  0.81518737  1
  Zn  Zn136  1  0.80888095  0.81238023  0.31244667  1
  Zn  Zn137  1  0.81185563  0.81318611  0.81153071  1
  Zn  Zn138  1  0.18734311  0.43618014  0.43645252  1
  Zn  Zn139  1  0.18716899  0.43497918  0.93991174  1
  Zn  Zn140  1  0.18952806  0.93528831  0.43600228  1
  Zn  Zn141  1  0.18646303  0.93467423  0.93679455  1
  Zn  Zn142  1  0.68808959  0.43891928  0.43926408  1
  Zn  Zn143  1  0.68933689  0.44011907  0.94044907  1
  Zn  Zn144  1  0.68671954  0.93863360  0.43935166  1
  Zn  Zn145  1  0.68673520  0.93842167  0.93780225  1
  Zn  Zn146  1  0.31458751  0.06306411  0.06287205  1
  Zn  Zn147  1  0.31461984  0.06154114  0.55980019  1
  Zn  Zn148  1  0.30847679  0.55889727  0.06411712  1
  Zn  Zn149  1  0.31097981  0.56266491  0.56264065  1
  Zn  Zn150  1  0.81549461  0.06417087  0.06420105  1
  Zn  Zn151  1  0.81539297  0.06300096  0.56240699  1
  Zn  Zn152  1  0.81061789  0.56564150  0.06303173  1
  Zn  Zn153  1  0.81170672  0.56438496  0.56313596  1
  Zn  Zn154  1  0.43635732  0.43584041  0.18725894  1
  Zn  Zn155  1  0.43786126  0.43740426  0.68792803  1
  Zn  Zn156  1  0.43720844  0.93152269  0.18451191  1
  Zn  Zn157  1  0.43785262  0.93805266  0.68584302  1
  Zn  Zn158  1  0.93661202  0.43864051  0.19000293  1
  Zn  Zn159  1  0.93758452  0.43838150  0.69127441  1
  Zn  Zn160  1  0.93597577  0.93951990  0.18846700  1
  Zn  Zn161  1  0.93890595  0.93813299  0.68770751  1
  Zn  Zn162  1  0.06492371  0.06014941  0.30892582  1
  Zn  Zn163  1  0.06375684  0.06272688  0.81026809  1
  Zn  Zn164  1  0.06168786  0.56175799  0.31038461  1
  Zn  Zn165  1  0.05856670  0.56189008  0.80814626  1
  Zn  Zn166  1  0.56484270  0.06472526  0.31421829  1
  Zn  Zn167  1  0.56310398  0.06305774  0.81371474  1
  Zn  Zn168  1  0.56172316  0.56538782  0.31449165  1
  Zn  Zn169  1  0.55958701  0.56359047  0.81292366  1
  Zn  Zn170  1  0.43624261  0.18377569  0.43591541  1
  Zn  Zn171  1  0.43358446  0.18704633  0.93597009  1
  Zn  Zn172  1  0.43620005  0.68350372  0.43459236  1
  Zn  Zn173  1  0.43691052  0.68797621  0.93648703  1
  Zn  Zn174  1  0.93685660  0.18663133  0.43885054  1
  Zn  Zn175  1  0.93755633  0.19074774  0.93888759  1
  Zn  Zn176  1  0.93937767  0.68861257  0.43980898  1
  Zn  Zn177  1  0.93819798  0.68986726  0.93895492  1
  Zn  Zn178  1  0.06386272  0.31231523  0.06287708  1
  Zn  Zn179  1  0.06302514  0.31243560  0.56230498  1
  Zn  Zn180  1  0.06170838  0.81163909  0.05883983  1
  Zn  Zn181  1  0.06204872  0.81273055  0.55862188  1
  Zn  Zn182  1  0.56349263  0.31665541  0.06368902  1
  Zn  Zn183  1  0.56473215  0.31279110  0.56442117  1
  Zn  Zn184  1  0.56073418  0.81506924  0.06242902  1
  Zn  Zn185  1  0.56267214  0.81229153  0.56157350  1
  O  O186  1  0.11226411  0.11675898  0.13120432  1
  O  O187  1  0.12429424  0.11275316  0.62313992  1
  O  O188  1  0.10596803  0.62943009  0.13152805  1
  O  O189  1  0.11839683  0.61768730  0.62503797  1
  O  O190  1  0.62298447  0.12352159  0.11227803  1
  O  O191  1  0.61770181  0.12286186  0.62301206  1
  O  O192  1  0.63069287  0.61255047  0.12762946  1
  O  O193  1  0.61997533  0.62164208  0.62139718  1
  O  O194  1  0.38203845  0.37757866  0.38329066  1
  O  O195  1  0.38434608  0.38312294  0.87956173  1
  O  O196  1  0.36812715  0.88506040  0.37870355  1
  O  O197  1  0.38057281  0.87443775  0.87990960  1
  O  O198  1  0.87545794  0.38324413  0.38269869  1
  O  O199  1  0.88077997  0.38334547  0.88168477  1
  O  O200  1  0.88574024  0.87468013  0.37384381  1
  O  O201  1  0.87930287  0.88143418  0.87937358  1
  O  O202  1  0.25820284  0.00431349  0.36909310  1
  O  O203  1  0.24931512  0.00923171  0.87404631  1
  O  O204  1  0.25088207  0.49920926  0.36138980  1
  O  O205  1  0.26483157  0.49049816  0.86922986  1
  O  O206  1  0.74981060  0.00793127  0.36848250  1
  O  O207  1  0.75674906  0.00583393  0.87070032  1
  O  O208  1  0.75553119  0.50668161  0.37070901  1
  O  O209  1  0.76030511  0.50131743  0.87090872  1
  O  O210  1  0.24821480  0.49064565  0.13734978  1
  O  O211  1  0.24487177  0.49267689  0.63119514  1
  O  O212  1  0.24446464  0.99339164  0.12653739  1
  O  O213  1  0.24094162  0.99323795  0.62144668  1
  O  O214  1  0.74283890  0.49587075  0.13115166  1
  O  O215  1  0.74586413  0.49636896  0.63210250  1
  O  O216  1  0.75158572  0.99316700  0.13308765  1
  O  O217  1  0.75100978  0.99206307  0.63083289  1
  O  O218  1  0.00780929  0.36603312  0.24901808  1
  O  O219  1  0.00587007  0.36941145  0.75802760  1
  O  O220  1  0.01048865  0.88220718  0.25808978  1
  O  O221  1  0.00649475  0.87364868  0.75598892  1
  O  O222  1  0.50511835  0.36873481  0.25693879  1
  O  O223  1  0.49957635  0.37089432  0.76009645  1
  O  O224  1  0.50805155  0.86285652  0.23383491  1
  O  O225  1  0.50627119  0.87396018  0.75571554  1
  O  O226  1  0.50235645  0.13713025  0.24920298  1
  O  O227  1  0.49456445  0.13042446  0.74623685  1
  O  O228  1  0.48626340  0.62768967  0.25162952  1
  O  O229  1  0.48763854  0.62564134  0.74389790  1
  O  O230  1  0.99906398  0.13308915  0.24246205  1
  O  O231  1  0.99326105  0.13212080  0.74900632  1
  O  O232  1  0.98656325  0.62334367  0.24263464  1
  O  O233  1  0.99119013  0.62797922  0.74067706  1
  O  O234  1  0.36408995  0.25619612  -0.00060513  1
  O  O235  1  0.37077027  0.25506790  0.50547256  1
  O  O236  1  0.36460140  0.75153034  0.00181991  1
  O  O237  1  0.37127024  0.75320850  0.50360530  1
  O  O238  1  0.86849238  0.25692895  0.00764483  1
  O  O239  1  0.87026455  0.25631864  0.50656990  1
  O  O240  1  0.86919524  0.75750093  0.00853852  1
  O  O241  1  0.87231093  0.75269863  0.51265016  1
  O  O242  1  0.13299901  0.24777883  0.49701742  1
  O  O243  1  0.13857844  0.25546450  0.99308673  1
  O  O244  1  0.13176259  0.74975417  0.48959791  1
  O  O245  1  0.13049989  0.74863358  0.99076074  1
  O  O246  1  0.63315419  0.24989049  0.49415914  1
  O  O247  1  0.63026009  0.24260604  0.99991681  1
  O  O248  1  0.62603283  0.74459383  0.48964365  1
  O  O249  1  0.62934205  0.75110499  0.99207276  1
  O  O250  1  0.50056802  0.25273068  0.13697087  1
  O  O251  1  0.49454287  0.24551730  0.63003833  1
  O  O252  1  0.48215894  0.74736626  0.11353021  1
  O  O253  1  0.49329281  0.74352552  0.62644514  1
  O  O254  1  0.99717088  0.24289513  0.13236027  1
  O  O255  1  0.99378629  0.24966881  0.63224928  1
  O  O256  1  0.98654439  0.74400704  0.12178572  1
  O  O257  1  0.99079074  0.74661372  0.62468885  1
  O  O258  1  0.00114094  0.24952398  0.36374722  1
  O  O259  1  0.00580136  0.25529132  0.87015486  1
  O  O260  1  0.01085911  0.76172697  0.38170981  1
  O  O261  1  0.00697101  0.75902050  0.87462882  1
  O  O262  1  0.50568566  0.25472668  0.36906407  1
  O  O263  1  0.49846111  0.26123852  0.87144492  1
  O  O264  1  0.51508971  0.74506172  0.37469785  1
  O  O265  1  0.50911076  0.75663048  0.87532630  1
  O  O266  1  0.25091415  0.12919825  0.49005874  1
  O  O267  1  0.25618343  0.13436070  0.98924564  1
  O  O268  1  0.24707914  0.63133768  0.49600439  1
  O  O269  1  0.24442439  0.63715091  1.00613773  1
  O  O270  1  0.75068139  0.13105710  0.49186390  1
  O  O271  1  0.74338742  0.12948627  0.99735371  1
  O  O272  1  0.74313192  0.62701332  0.49486448  1
  O  O273  1  0.74591196  0.63564811  0.99869920  1
  O  O274  1  0.25577770  0.36455720  0.00531625  1
  O  O275  1  0.25552868  0.36928097  0.50554682  1
  O  O276  1  0.25379993  0.86524798  0.00372490  1
  O  O277  1  0.25752614  0.86820182  0.50449829  1
  O  O278  1  0.75608200  0.37027237  0.00724944  1
  O  O279  1  0.75625204  0.37120883  0.50704538  1
  O  O280  1  0.75612726  0.87280471  0.00833741  1
  O  O281  1  0.75311032  0.87609254  0.51216650  1
  O  O282  1  0.13140695  0.49049650  0.24647947  1
  O  O283  1  0.13063666  0.49384047  0.74610437  1
  O  O284  1  0.13113023  0.98876283  0.24179052  1
  O  O285  1  0.12554485  0.99344966  0.73753902  1
  O  O286  1  0.62920836  0.49703200  0.24491250  1
  O  O287  1  0.63100777  0.50029941  0.74593928  1
  O  O288  1  0.63654999  1.00018375  0.24783624  1
  O  O289  1  0.63259104  0.99435169  0.74934122  1
  O  O290  1  0.37024928  -0.00303705  0.25601846  1
  O  O291  1  0.37245833  0.00741724  0.75122926  1
  O  O292  1  0.36725508  0.50612803  0.24907352  1
  O  O293  1  0.37098329  0.50570420  0.75676221  1
  O  O294  1  0.86263682  0.00276598  0.25322809  1
  O  O295  1  0.87065376  0.00645706  0.75575010  1
  O  O296  1  0.86970686  0.50841286  0.25667571  1
  O  O297  1  0.86941534  0.50524296  0.75979319  1
  O  O298  1  0.12303810  0.37139670  0.36219846  1
  O  O299  1  0.12119033  0.36839818  0.86927124  1
  O  O300  1  0.11933696  0.86887644  0.36661398  1
  O  O301  1  0.11930554  0.86669681  0.86825970  1
  O  O302  1  0.62061122  0.37118559  0.37065639  1
  O  O303  1  0.61253706  0.37670474  0.87679482  1
  O  O304  1  0.63177050  0.85901785  0.37570370  1
  O  O305  1  0.62072162  0.86715054  0.87122815  1
  O  O306  1  0.38021597  0.12868773  0.12918869  1
  O  O307  1  0.37990505  0.13050372  0.62943320  1
  O  O308  1  0.36573282  0.63209569  0.13291001  1
  O  O309  1  0.37992538  0.62915751  0.63245908  1
  O  O310  1  0.88517960  0.13274878  0.12856895  1
  O  O311  1  0.87671490  0.13281551  0.63269390  1
  O  O312  1  0.88265260  0.63161884  0.13125224  1
  O  O313  1  0.87853509  0.63362437  0.63000560  1
  O  O314  1  0.24948456  0.25222355  0.11652099  1
  O  O315  1  0.25556840  0.25425831  0.61975787  1
  O  O316  1  0.25479309  0.75483646  0.11478516  1
  O  O317  1  0.25565060  0.75431176  0.61801400  1
  O  O318  1  0.75495203  0.25658149  0.12266370  1
  O  O319  1  0.75588022  0.25637768  0.62124134  1
  O  O320  1  0.75877706  0.75851609  0.12139475  1
  O  O321  1  0.75773307  0.75965958  0.62540612  1
  O  O322  1  0.25157695  0.23868007  0.37911019  1
  O  O323  1  0.24614426  0.24334711  0.88121394  1
  O  O324  1  0.23988153  0.75112553  0.37958841  1
  O  O325  1  0.23803236  0.75475724  0.88389745  1
  O  O326  1  0.74649090  0.24433318  0.37963329  1
  O  O327  1  0.75022432  0.24482403  0.88399038  1
  O  O328  1  0.74152552  0.74357200  0.37738023  1
  O  O329  1  0.74087613  0.75251056  0.88128430  1
  O  O330  1  -0.00540442  0.12040993  0.01192359  1
  O  O331  1  0.00353860  0.11361112  0.50016300  1
  O  O332  1  0.00024415  0.62819758  0.01515547  1
  O  O333  1  0.00258644  0.61752871  0.50676891  1
  O  O334  1  0.50703811  0.11832448  -0.00283244  1
  O  O335  1  0.49914478  0.11497389  0.50557256  1
  O  O336  1  0.50026243  0.60949733  -0.00492790  1
  O  O337  1  0.50469686  0.61855419  0.50620419  1
  O  O338  1  0.49550258  0.37942252  0.49729497  1
  O  O339  1  0.49484871  0.38338236  0.99283688  1
  O  O340  1  0.49359627  0.88761299  0.50608027  1
  O  O341  1  0.49427794  0.88318101  0.99416550  1
  O  O342  1  0.99336816  0.38111529  0.49902591  1
  O  O343  1  0.99152464  0.36695510  0.99362745  1
  O  O344  1  1.00000173  0.88428432  0.48891544  1
  O  O345  1  0.99258245  0.88170265  0.99457592  1
  O  O346  1  0.50070311  0.49299511  0.38340405  1
  O  O347  1  0.49136928  0.49215901  0.88232233  1
  O  O348  1  0.48957369  1.00702512  0.38294205  1
  O  O349  1  0.49928375  0.99438102  0.88557708  1
  O  O350  1  0.99374880  0.49874208  0.38128280  1
  O  O351  1  0.98767765  0.49319214  0.86919344  1
  O  O352  1  1.00157966  0.99114076  0.38082128  1
  O  O353  1  0.99561859  0.99632730  0.87923079  1
  O  O354  1  0.00259453  0.00740291  0.12047341  1
  O  O355  1  0.00932828  -0.00178615  0.61506708  1
  O  O356  1  -0.00169755  0.51495975  0.12929162  1
  O  O357  1  0.00491496  0.50441520  0.62101399  1
  O  O358  1  0.50211658  0.00015022  0.11042349  1
  O  O359  1  0.50004876  0.00657915  0.61462230  1
  O  O360  1  0.50985142  0.49163011  0.11612763  1
  O  O361  1  0.50580291  0.50529172  0.62116480  1
  O  O362  1  0.24385784  0.37882367  0.24652002  1
  O  O363  1  0.24555661  0.37878253  0.74453491  1
  O  O364  1  0.24123834  0.87971982  0.24184643  1
  O  O365  1  0.24345913  0.87654677  0.74128881  1
  O  O366  1  0.74467449  0.38161189  0.24632052  1
  O  O367  1  0.74943190  0.38224339  0.74537757  1
  O  O368  1  0.74732592  0.88388556  0.24267796  1
  O  O369  1  0.74601530  0.88186062  0.74254225  1
  O  O370  1  0.25106945  0.11694727  0.25739880  1
  O  O371  1  0.25681498  0.12388219  0.75884040  1
  O  O372  1  0.25560907  0.61423727  0.24930622  1
  O  O373  1  0.26305960  0.61680217  0.74357510  1
  O  O374  1  0.75030452  0.11885541  0.25763043  1
  O  O375  1  0.75573879  0.12176023  0.75690661  1
  O  O376  1  0.76186856  0.61938953  0.25564635  1
  O  O377  1  0.75705938  0.61904501  0.75377311  1
  O  O378  1  0.36524055  0.11271101  0.37180080  1
  O  O379  1  0.36407253  0.12351563  0.86808274  1
  O  O380  1  0.37012077  0.62297946  0.36185551  1
  O  O381  1  0.38131009  0.61350944  0.86500653  1
  O  O382  1  0.86235796  0.12468680  0.37234609  1
  O  O383  1  0.87043437  0.12062339  0.87106256  1
  O  O384  1  0.87220800  0.62317634  0.36887414  1
  O  O385  1  0.87590439  0.61804223  0.87120312  1
  O  O386  1  0.13053640  0.37313355  0.13717581  1
  O  O387  1  0.13027839  0.38017842  0.63200436  1
  O  O388  1  0.12676777  0.87713997  0.13130145  1
  O  O389  1  0.12991987  0.88088443  0.62731296  1
  O  O390  1  0.63161631  0.38561318  0.13169579  1
  O  O391  1  0.63228723  0.38340963  0.62753606  1
  O  O392  1  0.64061818  0.87577959  0.12270497  1
  O  O393  1  0.63598153  0.87493090  0.63066439  1
  O  O394  1  0.11651300  0.25683991  0.25097140  1
  O  O395  1  0.12039396  0.25578104  0.75483011  1
  O  O396  1  0.13273941  0.76252595  0.25783838  1
  O  O397  1  0.12454118  0.75558799  0.75699390  1
  O  O398  1  0.61832287  0.25744425  0.25600796  1
  O  O399  1  0.61693483  0.25423884  0.75548417  1
  O  O400  1  0.62546906  0.74600057  0.26448401  1
  O  O401  1  0.62410691  0.75658794  0.76020377  1
  O  O402  1  0.38779544  0.24928871  0.25070176  1
  O  O403  1  0.38046286  0.24464900  0.74392310  1
  O  O404  1  0.37197450  0.74128987  0.23773933  1
  O  O405  1  0.37408204  0.74039793  0.74479972  1
  O  O406  1  0.88537806  0.25246180  0.24461641  1
  O  O407  1  0.88034023  0.24649767  0.74674431  1
  O  O408  1  0.86710394  0.74082447  0.23989073  1
  O  O409  1  0.87540135  0.74568658  0.73989803  1
  O  O410  1  0.38170268  0.49340159  0.50070069  1
  O  O411  1  0.37981565  0.49548075  0.99417762  1
  O  O412  1  0.38159971  0.99332422  0.49078532  1
  O  O413  1  0.38310807  0.99298791  0.99711368  1
  O  O414  1  0.88026362  0.49631085  0.49640492  1
  O  O415  1  0.86780257  0.49525868  0.98992049  1
  O  O416  1  0.88756561  0.99736397  0.49781099  1
  O  O417  1  0.88132134  0.99590742  0.99421311  1
  O  O418  1  0.11530279  -0.00946484  0.00832854  1
  O  O419  1  0.11828227  -0.00223158  0.50711972  1
  O  O420  1  0.13217339  0.50315178  0.00611559  1
  O  O421  1  0.11944797  0.49922076  0.50697361  1
  O  O422  1  0.61704556  0.00862427  0.00030099  1
  O  O423  1  0.61346494  0.00259830  0.50043812  1
  O  O424  1  0.61755003  0.50181023  0.00930315  1
  O  O425  1  0.62025089  0.50590123  0.50788650  1
  O  O426  1  0.36789747  0.37108240  0.11886732  1
  O  O427  1  0.36962718  0.36908785  0.62064338  1
  O  O428  1  0.36659283  0.86384056  0.11609236  1
  O  O429  1  0.37012441  0.86798967  0.61849553  1
  O  O430  1  0.86965088  0.37189023  0.12187423  1
  O  O431  1  0.86957368  0.37121385  0.62127030  1
  O  O432  1  0.86792233  0.86927980  0.12227573  1
  O  O433  1  0.86705832  0.86790108  0.62688499  1
  O  O434  1  0.13920550  0.12225440  0.37542888  1
  O  O435  1  0.13746255  0.13200896  0.86698357  1
  O  O436  1  0.12467008  0.63756378  0.37234844  1
  O  O437  1  0.11413134  0.63992820  0.87189895  1
  O  O438  1  0.63750720  0.13232348  0.37783260  1
  O  O439  1  0.63173223  0.12675681  0.88664200  1
  O  O440  1  0.63102683  0.63265911  0.38078603  1
  O  O441  1  0.62473937  0.63823140  0.87620429  1
