# generated using pymatgen
data_V93Zn93O256
_symmetry_space_group_name_H-M   'P 1'
_cell_length_a   17.04898079
_cell_length_b   17.04960406
_cell_length_c   17.04490597
_cell_angle_alpha   90.06234106
_cell_angle_beta   90.02871858
_cell_angle_gamma   90.01896738
_symmetry_Int_Tables_number   1
_chemical_formula_structural   V93Zn93O256
_chemical_formula_sum   'V93 Zn93 O256'
_cell_volume   4954.58169048
_cell_formula_units_Z   1
loop_
 _symmetry_equiv_pos_site_id
 _symmetry_equiv_pos_as_xyz
  1  'x, y, z'
loop_
 _atom_site_type_symbol
 _atom_site_label
 _atom_site_symmetry_multiplicity
 _atom_site_fract_x
 _atom_site_fract_y
 _atom_site_fract_z
 _atom_site_occupancy
  V  V0  1  0.74827870  0.75026156  0.49807361  1
  V  V1  1  0.37573213  0.75097627  0.12588595  1
  V  V2  1  0.25202713  0.37429463  0.12427477  1
  V  V3  1  0.75016399  0.87428095  0.62437667  1
  V  V4  1  0.12406556  0.62596920  0.49847686  1
  V  V5  1  0.24849186  0.37639945  0.62552354  1
  V  V6  1  0.74842372  0.24879981  0.49996264  1
  V  V7  1  0.37462573  0.25031583  0.62505643  1
  V  V8  1  0.75056465  0.12435590  0.87419920  1
  V  V9  1  0.50032284  0.36764550  0.37102326  1
  V  V10  1  0.00003285  0.50128209  -0.00039679  1
  V  V11  1  0.87389001  0.74936288  0.62367282  1
  V  V12  1  0.24914743  0.25024025  0.49968489  1
  V  V13  1  -0.00042316  -0.00680108  0.49570821  1
  V  V14  1  0.75001951  -0.00010682  0.75016085  1
  V  V15  1  0.87906332  -0.00744792  0.37416924  1
  V  V16  1  0.62521360  0.74957807  0.37118439  1
  V  V17  1  0.50135395  0.25123082  0.75063697  1
  V  V18  1  0.24941719  0.74975120  0.00044594  1
  V  V19  1  0.62468561  0.74829723  0.87449145  1
  V  V20  1  0.38300072  0.25164066  0.12951113  1
  V  V21  1  0.62548651  0.62368093  0.00090950  1
  V  V22  1  0.74782499  -0.00431919  0.25110603  1
  V  V23  1  0.12232069  0.75301789  0.37520797  1
  V  V24  1  0.00238416  0.12446968  0.12426693  1
  V  V25  1  0.87474665  -0.00077393  0.87455872  1
  V  V26  1  0.87655515  0.24825623  0.62324640  1
  V  V27  1  0.62388237  -0.00265783  0.12885412  1
  V  V28  1  0.49918677  0.12539852  0.62526487  1
  V  V29  1  0.12382018  0.25012171  0.37395758  1
  V  V30  1  0.87373120  0.37662722  0.49265026  1
  V  V31  1  0.49976225  0.37573101  0.87520338  1
  V  V32  1  0.62186990  0.36595726  0.24987881  1
  V  V33  1  0.12533582  0.25003492  0.87517501  1
  V  V34  1  0.12426511  0.37510440  0.25079984  1
  V  V35  1  -0.00510832  0.49951046  0.49179636  1
  V  V36  1  0.87552407  0.24909976  0.12428053  1
  V  V37  1  0.75032506  0.74923774  -0.00048693  1
  V  V38  1  0.62473432  -0.00017697  0.62514005  1
  V  V39  1  0.50055248  0.00087334  0.00163483  1
  V  V40  1  0.50211439  0.62568328  0.12590401  1
  V  V41  1  0.62510509  0.25059034  0.87505749  1
  V  V42  1  0.00011617  0.75075533  0.74967206  1
  V  V43  1  0.62545568  0.12567424  0.50039202  1
  V  V44  1  -0.00264395  0.75302055  0.25019266  1
  V  V45  1  0.74931092  0.62027594  0.87225460  1
  V  V46  1  0.00021090  0.37472665  0.87344443  1
  V  V47  1  0.12496463  0.50001731  0.62504014  1
  V  V48  1  0.00066555  0.12499285  0.62438779  1
  V  V49  1  0.62480386  0.87391325  0.74989058  1
  V  V50  1  0.37571525  0.00164266  0.87658246  1
  V  V51  1  0.50261304  0.75154560  0.25042997  1
  V  V52  1  0.50005107  0.00017723  0.49924851  1
  V  V53  1  0.37386934  0.50051612  0.87662490  1
  V  V54  1  0.12412503  0.50225415  0.12394401  1
  V  V55  1  0.37551830  0.62485596  0.25061775  1
  V  V56  1  0.49897551  0.75091036  0.74957705  1
  V  V57  1  0.75146837  0.24977906  -0.00001041  1
  V  V58  1  0.87468825  0.37451531  -0.00009696  1
  V  V59  1  0.37493422  0.75069398  0.62456921  1
  V  V60  1  0.87561283  0.12246133  0.24961941  1
  V  V61  1  0.12450245  0.75144830  0.87454873  1
  V  V62  1  0.62988899  0.49785779  0.63081549  1
  V  V63  1  0.74838363  0.87419454  0.12620789  1
  V  V64  1  0.50002106  0.50132488  0.50195757  1
  V  V65  1  0.00066709  0.24980446  0.74875942  1
  V  V66  1  0.12148147  0.87787621  0.25394472  1
  V  V67  1  0.25054513  0.87808642  0.13145843  1
  V  V68  1  0.49975559  0.87605964  0.87643200  1
  V  V69  1  0.12918458  0.00107736  0.12905094  1
  V  V70  1  0.24965881  0.87610598  0.62602534  1
  V  V71  1  0.37092817  -0.00059546  0.36888771  1
  V  V72  1  0.38281248  0.12983710  0.25090252  1
  V  V73  1  0.25045080  0.12543782  0.87601395  1
  V  V74  1  0.87726139  0.87471951  -0.00174568  1
  V  V75  1  0.37423631  0.37544532  0.49996019  1
  V  V76  1  0.12564264  -0.00007925  0.62466919  1
  V  V77  1  0.37426780  0.12519428  0.75102043  1
  V  V78  1  -0.00110200  0.62426577  0.62397879  1
  V  V79  1  0.87194229  0.61678544  0.25446922  1
  V  V80  1  0.37279672  0.62539250  0.75036133  1
  V  V81  1  0.12653808  0.12518676  0.00048589  1
  V  V82  1  0.50427466  0.87512484  0.36972804  1
  V  V83  1  0.37483182  0.50059879  0.37442049  1
  V  V84  1  0.25017386  0.50189810  0.25078079  1
  V  V85  1  0.00036908  0.24935389  0.25076555  1
  V  V86  1  0.62510911  0.12448649  0.00046210  1
  V  V87  1  0.12495919  0.12478594  0.49867318  1
  V  V88  1  0.25031606  0.12185057  0.36864584  1
  V  V89  1  0.87127181  0.49878406  0.87240361  1
  V  V90  1  0.63065123  0.49980373  0.12975671  1
  V  V91  1  0.86888902  0.61853286  0.74882091  1
  V  V92  1  0.37465882  0.87461858  0.49934577  1
  Zn  Zn93  1  0.24844764  0.00079139  0.75189824  1
  Zn  Zn94  1  0.37538753  0.37446071  0.00093869  1
  Zn  Zn95  1  0.12141155  0.62658343  0.00107754  1
  Zn  Zn96  1  0.62508915  0.62305650  0.49992868  1
  Zn  Zn97  1  0.87637276  0.74854537  0.12441357  1
  Zn  Zn98  1  -0.00219498  0.62571107  0.12358478  1
  Zn  Zn99  1  0.75216023  0.61872376  0.37794847  1
  Zn  Zn100  1  0.37563669  0.87681551  0.00152467  1
  Zn  Zn101  1  0.75549124  0.37890145  0.63050731  1
  Zn  Zn102  1  0.24989976  0.62618078  0.37583484  1
  Zn  Zn103  1  0.87592204  0.12365452  0.74934803  1
  Zn  Zn104  1  0.75767738  0.48724474  0.26939396  1
  Zn  Zn105  1  -0.00409373  0.37803519  0.37163675  1
  Zn  Zn106  1  0.63711650  0.38072119  0.75576993  1
  Zn  Zn107  1  0.74772786  0.12182056  0.37518540  1
  Zn  Zn108  1  0.75073209  0.37394569  0.12796662  1
  Zn  Zn109  1  0.62080039  0.24439170  0.37007660  1
  Zn  Zn110  1  0.00105578  0.87739108  0.87250249  1
  Zn  Zn111  1  0.25195553  0.25028350  0.00008432  1
  Zn  Zn112  1  0.00148084  -0.00048097  -0.00197302  1
  Zn  Zn113  1  0.24810215  0.62394325  0.87653817  1
  Zn  Zn114  1  0.87937167  0.87149761  0.49606632  1
  Zn  Zn115  1  0.12540227  0.37738748  0.75031372  1
  Zn  Zn116  1  0.12357412  0.87749009  0.75053934  1
  Zn  Zn117  1  0.50013798  0.50009141  0.00234305  1
  Zn  Zn118  1  0.24997390  0.74856840  0.49852781  1
  Zn  Zn119  1  0.49983172  0.62547083  0.62421881  1
  Zn  Zn120  1  0.50431353  0.13094178  0.12961722  1
  Zn  Zn121  1  0.24689734  0.49961332  0.75127915  1
  Zn  Zn122  1  0.19108180  0.18907729  0.18835232  1
  Zn  Zn123  1  0.18689925  0.18803133  0.68891047  1
  Zn  Zn124  1  0.18650566  0.68755548  0.18787117  1
  Zn  Zn125  1  0.18741133  0.68813487  0.68688331  1
  Zn  Zn126  1  0.69037995  0.18444143  0.18647078  1
  Zn  Zn127  1  0.68818802  0.18966127  0.68813644  1
  Zn  Zn128  1  0.68890112  0.68802968  0.18954896  1
  Zn  Zn129  1  0.68554206  0.68409911  0.68446628  1
  Zn  Zn130  1  0.31253030  0.31214804  0.31191653  1
  Zn  Zn131  1  0.31095886  0.31304758  0.81107132  1
  Zn  Zn132  1  0.31066806  0.81117477  0.31243407  1
  Zn  Zn133  1  0.31248434  0.81479716  0.81312708  1
  Zn  Zn134  1  0.80906860  0.30820671  0.31293974  1
  Zn  Zn135  1  0.81350826  0.31213007  0.80942505  1
  Zn  Zn136  1  0.81268102  0.81079127  0.31148442  1
  Zn  Zn137  1  0.81232878  0.80931417  0.81181371  1
  Zn  Zn138  1  0.18542652  0.43888853  0.43755777  1
  Zn  Zn139  1  0.18657045  0.43773386  0.93826465  1
  Zn  Zn140  1  0.18811736  0.93694807  0.43849951  1
  Zn  Zn141  1  0.18891868  0.93757555  0.94061853  1
  Zn  Zn142  1  0.68557247  0.43486253  0.43982853  1
  Zn  Zn143  1  0.68852127  0.43833604  0.94040631  1
  Zn  Zn144  1  0.68779592  0.93586632  0.43738825  1
  Zn  Zn145  1  0.68782254  0.93723015  0.93848209  1
  Zn  Zn146  1  0.31325474  0.06461578  0.06343640  1
  Zn  Zn147  1  0.31226369  0.06195841  0.55948759  1
  Zn  Zn148  1  0.31277363  0.56365925  0.06285108  1
  Zn  Zn149  1  0.31022207  0.56388857  0.56246138  1
  Zn  Zn150  1  0.81295846  0.06192591  0.06172696  1
  Zn  Zn151  1  0.81361994  0.06250649  0.56151572  1
  Zn  Zn152  1  0.81435317  0.56351666  0.06446513  1
  Zn  Zn153  1  0.81216968  0.56260337  0.55821591  1
  Zn  Zn154  1  0.44067718  0.43907847  0.18900305  1
  Zn  Zn155  1  0.43853245  0.43758732  0.68929975  1
  Zn  Zn156  1  0.43649795  0.93922791  0.18901319  1
  Zn  Zn157  1  0.43637637  0.93860863  0.68922035  1
  Zn  Zn158  1  0.93927246  0.43616639  0.18523491  1
  Zn  Zn159  1  0.93803384  0.43547615  0.68328316  1
  Zn  Zn160  1  0.93904099  0.93762681  0.18497468  1
  Zn  Zn161  1  0.93731635  0.93659813  0.68584894  1
  Zn  Zn162  1  0.06171191  0.06168089  0.31213846  1
  Zn  Zn163  1  0.06242547  0.06173811  0.81200374  1
  Zn  Zn164  1  0.06153483  0.56694587  0.31020364  1
  Zn  Zn165  1  0.06018439  0.56452315  0.81238281  1
  Zn  Zn166  1  0.56266018  0.06174484  0.31307627  1
  Zn  Zn167  1  0.56223810  0.06330458  0.81277418  1
  Zn  Zn168  1  0.56568391  0.56030184  0.31342426  1
  Zn  Zn169  1  0.55902285  0.56368347  0.81228196  1
  Zn  Zn170  1  0.43614958  0.18666521  0.43957635  1
  Zn  Zn171  1  0.43681282  0.18888785  0.94261309  1
  Zn  Zn172  1  0.43690997  0.68727573  0.43749554  1
  Zn  Zn173  1  0.43747470  0.68777315  0.93920502  1
  Zn  Zn174  1  0.93570316  0.18304624  0.43564303  1
  Zn  Zn175  1  0.93910164  0.18610468  0.93681600  1
  Zn  Zn176  1  0.93888354  0.68859616  0.43448010  1
  Zn  Zn177  1  0.93783372  0.68716361  0.93551971  1
  Zn  Zn178  1  0.06316985  0.31309235  0.06134014  1
  Zn  Zn179  1  0.06141910  0.31462267  0.56091572  1
  Zn  Zn180  1  0.06288328  0.81241150  0.06469860  1
  Zn  Zn181  1  0.06314132  0.81182762  0.56372909  1
  Zn  Zn182  1  0.56334363  0.31474648  0.06069682  1
  Zn  Zn183  1  0.56297726  0.31487857  0.56232229  1
  Zn  Zn184  1  0.56348159  0.81305498  0.06195519  1
  Zn  Zn185  1  0.56161489  0.81267844  0.56036907  1
  O  O186  1  0.12444528  0.11822579  0.12301848  1
  O  O187  1  0.12175670  0.12006307  0.61726596  1
  O  O188  1  0.12227246  0.61638023  0.12381524  1
  O  O189  1  0.11822417  0.62154888  0.61866099  1
  O  O190  1  0.62477189  0.11420498  0.12000638  1
  O  O191  1  0.61811152  0.11890408  0.62092974  1
  O  O192  1  0.62201927  0.61867904  0.12231940  1
  O  O193  1  0.61919487  0.61328860  0.62122370  1
  O  O194  1  0.38096714  0.38021351  0.37924683  1
  O  O195  1  0.38187516  0.38329341  0.87478580  1
  O  O196  1  0.37952624  0.88219169  0.37826636  1
  O  O197  1  0.38223620  0.88272128  0.87689785  1
  O  O198  1  0.87600291  0.36772534  0.38842701  1
  O  O199  1  0.88079021  0.37908919  0.88062038  1
  O  O200  1  0.87193554  0.88846965  0.37522973  1
  O  O201  1  0.87243170  0.87932866  0.88430935  1
  O  O202  1  0.26070431  0.01024116  0.38297579  1
  O  O203  1  0.25695499  0.00623978  0.87519926  1
  O  O204  1  0.25680101  0.50031479  0.36838190  1
  O  O205  1  0.26048508  0.50181353  0.87376602  1
  O  O206  1  0.75581774  -0.00198093  0.36562618  1
  O  O207  1  0.75361434  0.00447279  0.86961633  1
  O  O208  1  0.74338495  0.50659804  0.37894602  1
  O  O209  1  0.75812545  0.50805541  0.88096577  1
  O  O210  1  0.24635473  0.49268724  0.13055157  1
  O  O211  1  0.24273612  0.49382724  0.62498076  1
  O  O212  1  0.24072627  0.98985901  0.11987801  1
  O  O213  1  0.24532615  0.99202289  0.62332540  1
  O  O214  1  0.73775002  0.49820819  0.12635340  1
  O  O215  1  0.73237312  0.50101982  0.61577944  1
  O  O216  1  0.74391827  0.99361898  0.13088549  1
  O  O217  1  0.74433930  0.99454397  0.62942992  1
  O  O218  1  0.00561417  0.36797814  0.25215280  1
  O  O219  1  0.00048991  0.36812301  0.75590802  1
  O  O220  1  0.01139363  0.86693012  0.24352539  1
  O  O221  1  0.00180394  0.86536819  0.75029406  1
  O  O222  1  0.50860416  0.38020075  0.26140101  1
  O  O223  1  0.50081943  0.36935711  0.76207277  1
  O  O224  1  0.49299785  0.86932245  0.26323109  1
  O  O225  1  0.50570263  0.87063991  0.75593676  1
  O  O226  1  0.48752459  0.12298692  0.24983393  1
  O  O227  1  0.49459555  0.13086228  0.74448988  1
  O  O228  1  0.49552265  0.63110542  0.24513269  1
  O  O229  1  0.48766973  0.63269304  0.74963310  1
  O  O230  1  0.99565253  0.12964797  0.24336741  1
  O  O231  1  0.99954119  0.13125048  0.74181938  1
  O  O232  1  0.98882588  0.63349529  0.24775658  1
  O  O233  1  0.99007046  0.63177369  0.74378033  1
  O  O234  1  0.37037867  0.25294577  0.01285667  1
  O  O235  1  0.36872200  0.25540668  0.50581324  1
  O  O236  1  0.36687219  0.75293760  0.00699744  1
  O  O237  1  0.37407267  0.75692708  0.50568773  1
  O  O238  1  0.87147797  0.25445031  0.00450817  1
  O  O239  1  0.86863497  0.25398792  0.50336603  1
  O  O240  1  0.86842613  0.75830184  0.00008072  1
  O  O241  1  0.86715315  0.75162867  0.50335381  1
  O  O242  1  0.12956480  0.24394355  0.49415659  1
  O  O243  1  0.12759215  0.24335179  0.99408572  1
  O  O244  1  0.12217980  0.74562471  0.49008961  1
  O  O245  1  0.13249296  0.75088831  0.99336339  1
  O  O246  1  0.63346400  0.24444603  0.50228044  1
  O  O247  1  0.63066600  0.24437186  0.99512655  1
  O  O248  1  0.63194122  0.74926528  0.49234081  1
  O  O249  1  0.63055430  0.74415352  0.99402554  1
  O  O250  1  0.48760397  0.25060014  0.12112664  1
  O  O251  1  0.49414490  0.24539787  0.62912051  1
  O  O252  1  0.49658419  0.74702355  0.13074599  1
  O  O253  1  0.49315531  0.75053644  0.63133009  1
  O  O254  1  0.99578724  0.24443029  0.13105086  1
  O  O255  1  0.99674295  0.24402690  0.62758243  1
  O  O256  1  0.99999804  0.74810156  0.13690810  1
  O  O257  1  0.99398301  0.74337305  0.62829335  1
  O  O258  1  0.00695940  0.24704153  0.36784040  1
  O  O259  1  0.00516903  0.25467983  0.86931278  1
  O  O260  1  0.01187718  0.74887943  0.36399694  1
  O  O261  1  0.00869403  0.75209052  0.86926790  1
  O  O262  1  0.49967363  0.26399040  0.38358079  1
  O  O263  1  0.50416844  0.25719324  0.87159172  1
  O  O264  1  0.50544218  0.75747980  0.37154216  1
  O  O265  1  0.50536738  0.75558187  0.87012337  1
  O  O266  1  0.24575258  0.13088551  0.49025376  1
  O  O267  1  0.24360112  0.12680817  0.99418698  1
  O  O268  1  0.24033448  0.62824666  0.49742038  1
  O  O269  1  0.24840439  0.63959312  1.00056355  1
  O  O270  1  0.74343802  0.13094576  0.49956304  1
  O  O271  1  0.74467778  0.12934084  0.99430569  1
  O  O272  1  0.74937096  0.64060358  0.49872397  1
  O  O273  1  0.74500133  0.63077134  0.99435889  1
  O  O274  1  0.25175917  0.37560122  0.01456123  1
  O  O275  1  0.25501515  0.36963279  0.50446389  1
  O  O276  1  0.25093150  0.86517079  0.01213403  1
  O  O277  1  0.25627506  0.87412666  0.50995114  1
  O  O278  1  0.75698558  0.36685307  0.00212190  1
  O  O279  1  0.75670393  0.36476929  0.50469441  1
  O  O280  1  0.75765547  0.87022509  0.00647316  1
  O  O281  1  0.75060056  0.86478646  0.50583480  1
  O  O282  1  0.12948034  0.49493687  0.24481177  1
  O  O283  1  0.12529594  0.50050887  0.74104460  1
  O  O284  1  0.11986977  0.99149444  0.23984994  1
  O  O285  1  0.12801404  0.99766137  0.74065107  1
  O  O286  1  0.62724556  0.49028094  0.24255623  1
  O  O287  1  0.61614808  0.50096412  0.73422709  1
  O  O288  1  0.63505033  1.00459935  0.24031798  1
  O  O289  1  0.62936734  0.99393168  0.74473552  1
  O  O290  1  0.37742279  0.00915051  0.26309925  1
  O  O291  1  0.37487049  0.00841330  0.75782246  1
  O  O292  1  0.37052888  0.50568042  0.25491901  1
  O  O293  1  0.37529647  0.50918706  0.75882353  1
  O  O294  1  0.86961069  0.00256721  0.25482936  1
  O  O295  1  0.86728844  -0.00006385  0.75566713  1
  O  O296  1  0.87518188  0.51291037  0.24519974  1
  O  O297  1  0.88231211  0.51252396  0.75325692  1
  O  O298  1  0.12434204  0.36734724  0.36824389  1
  O  O299  1  0.11817909  0.36877736  0.87420185  1
  O  O300  1  0.13251048  0.86874484  0.36307641  1
  O  O301  1  0.12485883  0.86421105  0.87388226  1
  O  O302  1  0.61598784  0.37110766  0.36728679  1
  O  O303  1  0.61596735  0.37088547  0.87578097  1
  O  O304  1  0.61235177  0.86596921  0.38103311  1
  O  O305  1  0.62074021  0.86872344  0.86978017  1
  O  O306  1  0.37466766  0.13274652  0.13550201  1
  O  O307  1  0.37977395  0.13026769  0.62873990  1
  O  O308  1  0.38189542  0.63106740  0.13071503  1
  O  O309  1  0.37553101  0.63092070  0.63439300  1
  O  O310  1  0.88187353  0.12848008  0.12921112  1
  O  O311  1  0.88321025  0.13032670  0.62488320  1
  O  O312  1  0.87593514  0.63023461  0.13699333  1
  O  O313  1  0.87823361  0.62918748  0.63111877  1
  O  O314  1  0.25866565  0.26123457  0.12673008  1
  O  O315  1  0.25500929  0.25464727  0.61870774  1
  O  O316  1  0.25402613  0.75778032  0.11920862  1
  O  O317  1  0.25560255  0.76025165  0.62300796  1
  O  O318  1  0.75827480  0.24839726  0.11708800  1
  O  O319  1  0.75703853  0.24656037  0.61302960  1
  O  O320  1  0.74816418  0.76095530  0.11941896  1
  O  O321  1  0.75278087  0.75427142  0.61667970  1
  O  O322  1  0.24513249  0.24210928  0.38036917  1
  O  O323  1  0.24414573  0.24434358  0.87684969  1
  O  O324  1  0.23704211  0.74842933  0.37618169  1
  O  O325  1  0.24357863  0.75212506  0.88435587  1
  O  O326  1  0.74702694  0.24459573  0.38877116  1
  O  O327  1  0.74516164  0.24373523  0.88085873  1
  O  O328  1  0.74047384  0.75359238  0.38187779  1
  O  O329  1  0.74321336  0.74234283  0.87976812  1
  O  O330  1  0.00828075  0.12405453  0.00751901  1
  O  O331  1  0.00619852  0.11614113  0.50450482  1
  O  O332  1  -0.00032688  0.61706722  0.00228847  1
  O  O333  1  0.00236456  0.61814677  0.50440254  1
  O  O334  1  0.50775850  0.11838367  0.00385827  1
  O  O335  1  0.50408853  0.11948679  0.50616250  1
  O  O336  1  0.50796419  0.62576529  0.00790066  1
  O  O337  1  0.49823195  0.61207378  0.50107721  1
  O  O338  1  0.49370930  0.38324316  0.49297070  1
  O  O339  1  0.49733801  0.37726536  0.98670362  1
  O  O340  1  0.49377969  0.88062763  0.49027677  1
  O  O341  1  0.49959997  0.88183907  0.99399359  1
  O  O342  1  0.99221243  0.38251651  0.49649785  1
  O  O343  1  0.99424481  0.38012646  0.99349142  1
  O  O344  1  0.99974892  0.88943369  0.50506279  1
  O  O345  1  0.98688326  0.87474559  1.00042583  1
  O  O346  1  0.49545296  0.49125864  0.38329224  1
  O  O347  1  0.49144171  0.49239118  0.87551676  1
  O  O348  1  0.49273732  0.99245128  0.37911380  1
  O  O349  1  0.49650880  0.99559671  0.88132291  1
  O  O350  1  1.00538423  0.50001833  0.38845906  1
  O  O351  1  0.99288985  0.49482156  0.87988428  1
  O  O352  1  0.99171515  1.00575276  0.38441156  1
  O  O353  1  0.99221471  0.99672497  0.87793365  1
  O  O354  1  0.01116948  0.00616765  0.12260870  1
  O  O355  1  0.00493726  0.00556958  0.61647531  1
  O  O356  1  0.00763899  0.49882676  0.11682627  1
  O  O357  1  0.00531125  0.50571799  0.61479020  1
  O  O358  1  0.51035176  -0.00101017  0.12228443  1
  O  O359  1  0.50464434  0.00467250  0.61947334  1
  O  O360  1  0.51101182  0.50700404  0.12496701  1
  O  O361  1  0.50479723  0.49936836  0.61553272  1
  O  O362  1  0.24532479  0.38093955  0.24195402  1
  O  O363  1  0.24725821  0.37784667  0.74057916  1
  O  O364  1  0.23899002  0.86825863  0.23815182  1
  O  O365  1  0.25022432  0.87802427  0.73669341  1
  O  O366  1  0.74043447  0.37403662  0.24758246  1
  O  O367  1  0.74879119  0.37199591  0.74298515  1
  O  O368  1  0.75700524  0.88535197  0.23804509  1
  O  O369  1  0.74337221  0.87883785  0.74482303  1
  O  O370  1  0.25961451  0.12885080  0.26370743  1
  O  O371  1  0.25734776  0.12442961  0.75673009  1
  O  O372  1  0.25758708  0.61922694  0.25029166  1
  O  O373  1  0.26261011  0.62535333  0.75265482  1
  O  O374  1  0.75700699  0.11146914  0.24955159  1
  O  O375  1  0.75049222  0.11763563  0.75634087  1
  O  O376  1  0.76481443  0.62745107  0.25150380  1
  O  O377  1  0.76175278  0.63187656  0.75506939  1
  O  O378  1  0.36984025  0.11958250  0.37049777  1
  O  O379  1  0.37087957  0.12168766  0.87098772  1
  O  O380  1  0.37421429  0.61877289  0.36805621  1
  O  O381  1  0.37502416  0.61788616  0.86799941  1
  O  O382  1  0.87118515  0.11172329  0.36777245  1
  O  O383  1  0.86810790  0.11750205  0.87441007  1
  O  O384  1  0.87475311  0.63167916  0.35826220  1
  O  O385  1  0.86964136  0.61995003  0.86621497  1
  O  O386  1  0.13368679  0.37975307  0.13064281  1
  O  O387  1  0.13069685  0.38185391  0.62421335  1
  O  O388  1  0.13158286  0.88216675  0.13216547  1
  O  O389  1  0.13535136  0.88019256  0.62401571  1
  O  O390  1  0.62382510  0.38246434  0.13283945  1
  O  O391  1  0.62363007  0.38905900  0.62672487  1
  O  O392  1  0.63727719  0.88605978  0.11741814  1
  O  O393  1  0.62917125  0.88039421  0.63009220  1
  O  O394  1  0.12036457  0.25483785  0.25419272  1
  O  O395  1  0.11792101  0.25179303  0.75675956  1
  O  O396  1  0.11778152  0.75694371  0.25557761  1
  O  O397  1  0.11936648  0.75094932  0.75797691  1
  O  O398  1  0.62904807  0.26073995  0.24893098  1
  O  O399  1  0.61729713  0.25045630  0.75769078  1
  O  O400  1  0.61845013  0.74670595  0.26154129  1
  O  O401  1  0.61943783  0.75409942  0.75451673  1
  O  O402  1  0.37107908  0.24147900  0.24215634  1
  O  O403  1  0.38132663  0.24472048  0.74423480  1
  O  O404  1  0.38132749  0.74484802  0.24527534  1
  O  O405  1  0.37939697  0.74413922  0.74625524  1
  O  O406  1  0.87965703  0.24247062  0.24490829  1
  O  O407  1  0.88349888  0.24624415  0.74151195  1
  O  O408  1  0.88432019  0.74661599  0.24806556  1
  O  O409  1  0.87993946  0.74060918  0.74430697  1
  O  O410  1  0.38096176  0.49463914  0.49556778  1
  O  O411  1  0.37802935  0.49996392  0.98947371  1
  O  O412  1  0.38148132  0.99633560  0.48956097  1
  O  O413  1  0.38261168  0.99965348  0.99551342  1
  O  O414  1  0.88433115  0.48953572  0.50705267  1
  O  O415  1  0.88004753  0.49398511  0.99438748  1
  O  O416  1  0.88242016  0.99856888  0.49165588  1
  O  O417  1  0.87422965  0.99005152  0.99395744  1
  O  O418  1  0.12348589  0.00504780  0.01142812  1
  O  O419  1  0.11790877  0.00532056  0.50276517  1
  O  O420  1  0.11846206  0.50234268  0.00553553  1
  O  O421  1  0.11609205  0.50567784  0.50519770  1
  O  O422  1  0.62188292  0.00504786  0.00875271  1
  O  O423  1  0.61985246  0.00427241  0.50574772  1
  O  O424  1  0.62322103  0.50622518  0.01063697  1
  O  O425  1  0.61277766  0.49930352  0.50934519  1
  O  O426  1  0.36833779  0.36976038  0.12820796  1
  O  O427  1  0.37011998  0.36963100  0.61979768  1
  O  O428  1  0.36616269  0.87064569  0.12680365  1
  O  O429  1  0.36871917  0.87209519  0.61986139  1
  O  O430  1  0.87407060  0.36691328  0.11826002  1
  O  O431  1  0.87640713  0.36622833  0.61192059  1
  O  O432  1  0.86498661  0.87583136  0.11513665  1
  O  O433  1  0.86698167  0.86702921  0.62260800  1
  O  O434  1  0.13351129  0.12818178  0.37776639  1
  O  O435  1  0.13049004  0.12955195  0.88077484  1
  O  O436  1  0.12584916  0.63570020  0.37932227  1
  O  O437  1  0.12746695  0.63835138  0.87666363  1
  O  O438  1  0.62556173  0.12657346  0.38337188  1
  O  O439  1  0.63013291  0.13026912  0.88085643  1
  O  O440  1  0.62384163  0.63860036  0.37923231  1
  O  O441  1  0.62871792  0.62887654  0.87959563  1
