# generated using pymatgen
data_V93Zn93O256
_symmetry_space_group_name_H-M   'P 1'
_cell_length_a   17.06219503
_cell_length_b   17.06764002
_cell_length_c   17.06284782
_cell_angle_alpha   89.98732426
_cell_angle_beta   90.01983106
_cell_angle_gamma   89.95568480
_symmetry_Int_Tables_number   1
_chemical_formula_structural   V93Zn93O256
_chemical_formula_sum   'V93 Zn93 O256'
_cell_volume   4968.89394392
_cell_formula_units_Z   1
loop_
 _symmetry_equiv_pos_site_id
 _symmetry_equiv_pos_as_xyz
  1  'x, y, z'
loop_
 _atom_site_type_symbol
 _atom_site_label
 _atom_site_symmetry_multiplicity
 _atom_site_fract_x
 _atom_site_fract_y
 _atom_site_fract_z
 _atom_site_occupancy
  V  V0  1  0.00021657  0.12459417  0.62441558  1
  V  V1  1  0.25055013  0.37007910  0.12608774  1
  V  V2  1  0.87401201  0.00066937  0.87482294  1
  V  V3  1  0.37522775  0.62137500  0.75279575  1
  V  V4  1  0.49993119  0.12628540  0.62885004  1
  V  V5  1  0.62197405  0.62577627  0.50049165  1
  V  V6  1  0.12455322  0.00047770  0.62381545  1
  V  V7  1  0.25033466  0.50133374  0.74948952  1
  V  V8  1  0.25100560  -0.00030976  0.25018986  1
  V  V9  1  0.74995211  0.37571245  0.62979538  1
  V  V10  1  0.00046813  0.00001551  -0.00010161  1
  V  V11  1  0.12467621  0.24818020  0.87490339  1
  V  V12  1  0.12228119  0.37348360  0.25267070  1
  V  V13  1  0.25556223  0.24904782  0.00258086  1
  V  V14  1  0.37941633  0.25020899  0.62756165  1
  V  V15  1  0.37606671  -0.00108264  0.87583035  1
  V  V16  1  -0.00500072  0.00098370  0.49702960  1
  V  V17  1  0.62791434  0.62652939  0.00212411  1
  V  V18  1  0.62229678  0.37485491  0.25330178  1
  V  V19  1  0.75022620  0.49909934  0.25185568  1
  V  V20  1  0.00065974  0.24931598  0.74976677  1
  V  V21  1  0.62591877  0.12585717  0.50116993  1
  V  V22  1  0.74395969  0.62909095  0.37507238  1
  V  V23  1  0.62686697  -0.00028652  0.12611322  1
  V  V24  1  0.87484927  0.11837078  0.25433931  1
  V  V25  1  0.25142097  0.50050850  0.25141012  1
  V  V26  1  0.50177120  0.25266304  0.25348519  1
  V  V27  1  0.75084699  0.87563776  0.12653232  1
  V  V28  1  0.87545115  0.87542633  0.00064824  1
  V  V29  1  0.24974014  0.75088174  -0.00033924  1
  V  V30  1  0.00245865  0.37553550  0.87556187  1
  V  V31  1  0.25028658  -0.00036326  0.74975677  1
  V  V32  1  -0.00324348  0.87813332  0.37424464  1
  V  V33  1  0.37579360  -0.00016532  0.37626188  1
  V  V34  1  0.74934114  0.00041130  0.74959248  1
  V  V35  1  0.25060835  0.87578593  0.62520320  1
  V  V36  1  0.12388959  0.50030000  0.62373992  1
  V  V37  1  0.50072546  -0.00004635  0.50099248  1
  V  V38  1  0.87354544  0.87588887  0.49794995  1
  V  V39  1  0.87480842  0.37492066  0.00019203  1
  V  V40  1  0.12501870  0.75022217  0.37585698  1
  V  V41  1  0.87402318  0.25103389  0.62520665  1
  V  V42  1  0.24880708  0.24865652  0.49762885  1
  V  V43  1  0.00158553  0.62433594  0.12500965  1
  V  V44  1  0.60838115  0.37230695  0.75392589  1
  V  V45  1  0.37441109  0.75058116  0.12718066  1
  V  V46  1  0.87419313  0.50145095  0.87227597  1
  V  V47  1  -0.00063944  0.50082437  0.49938347  1
  V  V48  1  0.12381922  0.87509629  0.74949833  1
  V  V49  1  -0.00073051  0.12397326  0.12558219  1
  V  V50  1  0.62552133  0.50012937  0.12592109  1
  V  V51  1  0.25025903  0.87547145  0.12578037  1
  V  V52  1  0.24918887  0.74998218  0.49985640  1
  V  V53  1  -0.00076094  0.87455871  0.87394611  1
  V  V54  1  -0.00251111  0.74920927  0.74867214  1
  V  V55  1  0.24889837  0.37559829  0.62253588  1
  V  V56  1  0.62406242  0.87396196  0.75094512  1
  V  V57  1  -0.00185682  0.37405781  0.37618644  1
  V  V58  1  0.87673834  0.74939318  0.12468774  1
  V  V59  1  0.49972833  -0.00075614  0.00032299  1
  V  V60  1  0.38180681  0.37589668  0.49485343  1
  V  V61  1  0.74884878  0.12776179  0.87524477  1
  V  V62  1  0.87471101  0.62519660  0.24945282  1
  V  V63  1  0.62653085  0.12606929  -0.00011604  1
  V  V64  1  0.87532423  0.50065132  0.37528567  1
  V  V65  1  0.62363939  0.74835945  0.87523375  1
  V  V66  1  -0.00196495  0.62547499  0.62533817  1
  V  V67  1  0.25026719  0.12500260  0.37540183  1
  V  V68  1  0.12486654  0.37486477  0.74865341  1
  V  V69  1  0.75331768  0.11984337  0.37574097  1
  V  V70  1  0.37608681  0.87478127  0.50081760  1
  V  V71  1  0.62385801  0.25332959  0.37693754  1
  V  V72  1  0.37414203  0.62474622  0.25186786  1
  V  V73  1  0.37761990  0.12581838  0.74944492  1
  V  V74  1  0.12347734  0.12357850  0.00116778  1
  V  V75  1  0.50242884  0.74964700  0.25403177  1
  V  V76  1  0.62604767  0.87167298  0.25464638  1
  V  V77  1  0.61079874  0.25199342  0.87315593  1
  V  V78  1  0.12467766  0.49942759  0.12007185  1
  V  V79  1  0.75065258  0.75121828  -0.00016568  1
  V  V80  1  0.37765822  0.12487251  0.25125421  1
  V  V81  1  0.87475011  0.12499057  0.75017639  1
  V  V82  1  0.12604317  0.87530293  0.25109341  1
  V  V83  1  0.74502080  0.75128652  0.49748233  1
  V  V84  1  0.50262407  0.12456937  0.12765617  1
  V  V85  1  0.24865262  0.12225463  0.87575143  1
  V  V86  1  0.87435530  0.24976427  0.12587148  1
  V  V87  1  0.37763237  0.74780967  0.62648468  1
  V  V88  1  0.12440945  0.62585565  0.49913685  1
  V  V89  1  0.50294477  0.87409368  0.37533763  1
  V  V90  1  0.38121693  0.49711473  0.37312676  1
  V  V91  1  0.62521986  0.00051725  0.62659343  1
  V  V92  1  0.25046167  0.62363291  0.87472986  1
  Zn  Zn93  1  0.75084135  0.25119527  0.50098947  1
  Zn  Zn94  1  0.12387676  0.12420636  0.49768770  1
  Zn  Zn95  1  0.50089083  0.74718986  0.75147479  1
  Zn  Zn96  1  0.87243927  0.74779428  0.62430271  1
  Zn  Zn97  1  0.50181671  0.62153599  0.62630801  1
  Zn  Zn98  1  0.50354272  0.49710632  0.49780683  1
  Zn  Zn99  1  0.37685761  0.87475885  -0.00084982  1
  Zn  Zn100  1  0.12378693  0.75048325  0.87573576  1
  Zn  Zn101  1  0.62238679  0.49953113  0.62620707  1
  Zn  Zn102  1  0.41473991  0.41843656  -0.07407984  1
  Zn  Zn103  1  0.75031907  0.62384473  0.87123622  1
  Zn  Zn104  1  0.87105465  0.37536586  0.50102725  1
  Zn  Zn105  1  -0.00081543  0.24694639  0.25325566  1
  Zn  Zn106  1  0.51047181  0.50756376  -0.01185696  1
  Zn  Zn107  1  0.12502434  0.62494773  -0.00237913  1
  Zn  Zn108  1  0.75084866  0.37420430  0.12572846  1
  Zn  Zn109  1  0.00101444  0.50096574  -0.00138928  1
  Zn  Zn110  1  0.37849566  0.24974527  0.12470331  1
  Zn  Zn111  1  0.49803457  0.62622030  0.12509748  1
  Zn  Zn112  1  0.75320418  -0.00379912  0.25472382  1
  Zn  Zn113  1  0.87126579  0.62475597  0.74838865  1
  Zn  Zn114  1  0.12577479  0.00006232  0.12559091  1
  Zn  Zn115  1  0.24921529  0.62399047  0.37553314  1
  Zn  Zn116  1  0.00082815  0.75080363  0.25074485  1
  Zn  Zn117  1  0.75058550  0.87415167  0.62423233  1
  Zn  Zn118  1  0.74494857  0.50338180  0.74983957  1
  Zn  Zn119  1  0.12392167  0.24757971  0.37495362  1
  Zn  Zn120  1  0.49857867  0.87422007  0.87725374  1
  Zn  Zn121  1  0.74847961  0.25126287  -0.00176744  1
  Zn  Zn122  1  0.18586036  0.18570953  0.18900545  1
  Zn  Zn123  1  0.18885307  0.18643907  0.68580244  1
  Zn  Zn124  1  0.18760042  0.68832033  0.18912723  1
  Zn  Zn125  1  0.18580108  0.68859730  0.68659576  1
  Zn  Zn126  1  0.69101002  0.18680786  0.18873424  1
  Zn  Zn127  1  0.68601968  0.19150453  0.69052223  1
  Zn  Zn128  1  0.68886108  0.68897750  0.18762459  1
  Zn  Zn129  1  0.69048902  0.68680146  0.68488884  1
  Zn  Zn130  1  0.31472373  0.31380948  0.31152969  1
  Zn  Zn131  1  0.31132375  0.30734588  0.80725321  1
  Zn  Zn132  1  0.31322358  0.81248473  0.31402589  1
  Zn  Zn133  1  0.31294578  0.81198489  0.81346482  1
  Zn  Zn134  1  0.81031218  0.30933543  0.31210804  1
  Zn  Zn135  1  0.80857460  0.31295469  0.81267304  1
  Zn  Zn136  1  0.81431604  0.81047024  0.31298001  1
  Zn  Zn137  1  0.81066605  0.81237743  0.81336706  1
  Zn  Zn138  1  0.18988274  0.43823362  0.43693391  1
  Zn  Zn139  1  0.21923928  0.42108372  0.92293882  1
  Zn  Zn140  1  0.18568315  0.93758126  0.43759308  1
  Zn  Zn141  1  0.18684454  0.93593660  0.93745389  1
  Zn  Zn142  1  0.68876301  0.43874389  0.43996996  1
  Zn  Zn143  1  0.68819902  0.43542289  0.93426673  1
  Zn  Zn144  1  0.68671008  0.93889811  0.43732815  1
  Zn  Zn145  1  0.68705979  0.93807818  0.93761104  1
  Zn  Zn146  1  0.31442795  0.06287207  0.06433839  1
  Zn  Zn147  1  0.31326300  0.06317661  0.56264640  1
  Zn  Zn148  1  0.31220281  0.56476715  0.06282343  1
  Zn  Zn149  1  0.31202926  0.56228717  0.56092064  1
  Zn  Zn150  1  0.81154005  0.06242073  0.06362191  1
  Zn  Zn151  1  0.81172061  0.06301863  0.56279053  1
  Zn  Zn152  1  0.81156850  0.56124632  0.06108063  1
  Zn  Zn153  1  0.81147461  0.56077663  0.56367357  1
  Zn  Zn154  1  0.43383645  0.43345089  0.10368784  1
  Zn  Zn155  1  0.43683594  0.44182084  0.68151662  1
  Zn  Zn156  1  0.43807334  0.93683499  0.18662949  1
  Zn  Zn157  1  0.43934569  0.93799937  0.68939481  1
  Zn  Zn158  1  0.93779920  0.43840014  0.18807425  1
  Zn  Zn159  1  0.93707662  0.43734042  0.68809986  1
  Zn  Zn160  1  0.93905972  0.93849615  0.18704705  1
  Zn  Zn161  1  0.93584075  0.93666745  0.68431527  1
  Zn  Zn162  1  0.06382414  0.06232885  0.31261838  1
  Zn  Zn163  1  0.06217168  0.06127443  0.81227579  1
  Zn  Zn164  1  0.06328223  0.56203132  0.31146639  1
  Zn  Zn165  1  0.06377459  0.56365833  0.81361572  1
  Zn  Zn166  1  0.56594555  0.06171414  0.31388531  1
  Zn  Zn167  1  0.56120031  0.06396826  0.81385686  1
  Zn  Zn168  1  0.56111748  0.56152691  0.31221236  1
  Zn  Zn169  1  0.55382058  0.55318551  0.81296086  1
  Zn  Zn170  1  0.43899470  0.18748268  0.43875239  1
  Zn  Zn171  1  0.43638056  0.18286005  0.93915893  1
  Zn  Zn172  1  0.43633959  0.68740964  0.43443108  1
  Zn  Zn173  1  0.43780994  0.68371248  0.93799365  1
  Zn  Zn174  1  0.93498073  0.18973835  0.43919114  1
  Zn  Zn175  1  0.93712508  0.18811149  0.93784302  1
  Zn  Zn176  1  0.93538404  0.68969976  0.43745745  1
  Zn  Zn177  1  0.93838599  0.68665294  0.93752192  1
  Zn  Zn178  1  0.06225290  0.31030054  0.06196620  1
  Zn  Zn179  1  0.06143912  0.31226437  0.56143962  1
  Zn  Zn180  1  0.06419619  0.81293052  0.06365642  1
  Zn  Zn181  1  0.06164474  0.81281875  0.56310643  1
  Zn  Zn182  1  0.56322756  0.31237942  0.06055765  1
  Zn  Zn183  1  0.56387467  0.31255790  0.56527275  1
  Zn  Zn184  1  0.56144854  0.81382376  0.06571831  1
  Zn  Zn185  1  0.56349463  0.81107402  0.56355436  1
  O  O186  1  0.11672275  0.12313393  0.12008514  1
  O  O187  1  0.11820977  0.11865489  0.62242975  1
  O  O188  1  0.11774079  0.61613278  0.12784706  1
  O  O189  1  0.11857986  0.61962589  0.61895118  1
  O  O190  1  0.62237109  0.12004187  0.12096961  1
  O  O191  1  0.62025505  0.12127637  0.62166692  1
  O  O192  1  0.62879478  0.61941626  0.11731027  1
  O  O193  1  0.62431258  0.62406744  0.61325182  1
  O  O194  1  0.36854673  0.38445819  0.38404119  1
  O  O195  1  0.32219338  0.37959671  0.88645515  1
  O  O196  1  0.38151585  0.88106336  0.38176965  1
  O  O197  1  0.37802198  0.88276272  0.87642941  1
  O  O198  1  0.88321960  0.38029753  0.37393615  1
  O  O199  1  0.88131462  0.38001373  0.88212164  1
  O  O200  1  0.88558463  0.87049152  0.38472070  1
  O  O201  1  0.87904790  0.88116272  0.88103576  1
  O  O202  1  0.25661813  0.00408866  0.37111391  1
  O  O203  1  0.25455203  0.00423617  0.86948501  1
  O  O204  1  0.25715092  0.50174941  0.36854982  1
  O  O205  1  0.24083483  0.51801902  0.86586607  1
  O  O206  1  0.74541547  0.01543188  0.37419703  1
  O  O207  1  0.75500319  0.00624564  0.86951004  1
  O  O208  1  0.75651879  0.50881065  0.37108164  1
  O  O209  1  0.76264068  0.50019101  0.87354096  1
  O  O210  1  0.24165887  0.49042086  0.13188703  1
  O  O211  1  0.24242505  0.49509481  0.62795841  1
  O  O212  1  0.24991540  0.99401423  0.13259003  1
  O  O213  1  0.24581248  0.99501502  0.62953891  1
  O  O214  1  0.74169681  0.50051111  0.13355915  1
  O  O215  1  0.74626653  0.48881824  0.62695688  1
  O  O216  1  0.74459087  0.99239112  0.12764830  1
  O  O217  1  0.74287257  0.99850149  0.63160637  1
  O  O218  1  0.00683669  0.37625054  0.25988282  1
  O  O219  1  0.00653858  0.36848622  0.75510520  1
  O  O220  1  0.00468709  0.87628346  0.25970857  1
  O  O221  1  0.00333608  0.86903826  0.75345094  1
  O  O222  1  0.51629716  0.36031393  0.24631681  1
  O  O223  1  0.51021103  0.37489977  0.74402415  1
  O  O224  1  0.50718332  0.86905980  0.25450126  1
  O  O225  1  0.51322238  0.87306317  0.75272671  1
  O  O226  1  0.49861090  0.13171094  0.24703456  1
  O  O227  1  0.49067261  0.11785655  0.74098012  1
  O  O228  1  0.49615026  0.63622980  0.25079559  1
  O  O229  1  0.48774130  0.62711663  0.74842958  1
  O  O230  1  0.99192797  0.12570910  0.24636285  1
  O  O231  1  0.99470016  0.12940221  0.74465100  1
  O  O232  1  0.99421179  0.62524789  0.24008717  1
  O  O233  1  1.00017375  0.63523592  0.74469370  1
  O  O234  1  0.35911938  0.24166374  0.00342240  1
  O  O235  1  0.36677580  0.25579680  0.50496909  1
  O  O236  1  0.36463134  0.74933014  0.00622136  1
  O  O237  1  0.37029862  0.75495814  0.50774823  1
  O  O238  1  0.87522560  0.25797312  0.00787767  1
  O  O239  1  0.87233218  0.25444775  0.51003865  1
  O  O240  1  0.87063010  0.75623634  0.00472355  1
  O  O241  1  0.86590452  0.75907701  0.50069305  1
  O  O242  1  0.13832553  0.24948155  0.49957780  1
  O  O243  1  0.13060000  0.24188958  0.99471540  1
  O  O244  1  0.12964797  0.74609711  0.49625324  1
  O  O245  1  0.13829699  0.74865564  1.00049210  1
  O  O246  1  0.62399000  0.24452538  0.49175616  1
  O  O247  1  0.62816502  0.24433284  0.99243411  1
  O  O248  1  0.63682466  0.74361708  0.50227121  1
  O  O249  1  0.63074255  0.74569432  0.99546833  1
  O  O250  1  0.50097382  0.24247526  0.13703969  1
  O  O251  1  0.48511162  0.24318591  0.61692716  1
  O  O252  1  0.49347718  0.75105542  0.13764701  1
  O  O253  1  0.48727630  0.74776756  0.62621781  1
  O  O254  1  0.98916584  0.24353744  0.12634603  1
  O  O255  1  0.99551177  0.24481473  0.63035876  1
  O  O256  1  0.99553270  0.74100530  0.12640363  1
  O  O257  1  0.99879124  0.74507541  0.63317830  1
  O  O258  1  0.00228029  0.26221141  0.37555031  1
  O  O259  1  0.00566502  0.25454291  0.86920871  1
  O  O260  1  0.00570931  0.76140173  0.37506761  1
  O  O261  1  0.00061678  0.75621601  0.86637978  1
  O  O262  1  0.51326643  0.24140467  0.36588056  1
  O  O263  1  0.51123034  0.24571170  0.88032311  1
  O  O264  1  0.49344516  0.75850373  0.36168751  1
  O  O265  1  0.51281851  0.75146187  0.87506796  1
  O  O266  1  0.25101853  0.13358141  0.49475737  1
  O  O267  1  0.24303655  0.12984444  0.99676287  1
  O  O268  1  0.24169423  0.63243483  0.49990204  1
  O  O269  1  0.24912691  0.63345973  0.99239634  1
  O  O270  1  0.74449355  0.12724293  0.49322690  1
  O  O271  1  0.74361973  0.12484020  0.99309269  1
  O  O272  1  0.74393429  0.63184071  0.49326117  1
  O  O273  1  0.74208787  0.63289585  0.99876546  1
  O  O274  1  0.23460864  0.35968786  0.01887592  1
  O  O275  1  0.25727788  0.36671081  0.50386994  1
  O  O276  1  0.25167397  0.86625307  0.00544595  1
  O  O277  1  0.25638415  0.87089412  0.50581676  1
  O  O278  1  0.76406011  0.37323379  0.00205457  1
  O  O279  1  0.74911452  0.37219824  0.51382355  1
  O  O280  1  0.75596789  0.87096866  0.00611184  1
  O  O281  1  0.75686564  0.86864629  0.49545431  1
  O  O282  1  0.12966580  0.49136748  0.24295750  1
  O  O283  1  0.12907778  0.49475485  0.74253626  1
  O  O284  1  0.13348343  0.99323990  0.24960276  1
  O  O285  1  0.13021613  0.99491163  0.74381824  1
  O  O286  1  0.63092724  0.49265097  0.24764986  1
  O  O287  1  0.62563607  0.48356193  0.75037550  1
  O  O288  1  0.62593692  0.98893823  0.24394191  1
  O  O289  1  0.62980763  0.99284703  0.74707977  1
  O  O290  1  0.37162295  0.00483162  0.25719561  1
  O  O291  1  0.36844738  0.00490418  0.75444216  1
  O  O292  1  0.36657333  0.50768037  0.25997695  1
  O  O293  1  0.36496837  0.51378019  0.73910745  1
  O  O294  1  0.87309934  0.01404951  0.24510718  1
  O  O295  1  0.86999046  0.00464660  0.75479199  1
  O  O296  1  0.86940419  0.50584490  0.25478395  1
  O  O297  1  0.87660389  0.49996083  0.76317453  1
  O  O298  1  0.11623322  0.37681553  0.36720121  1
  O  O299  1  0.12348643  0.36799402  0.86804402  1
  O  O300  1  0.11659171  0.86985211  0.37146381  1
  O  O301  1  0.11726640  0.87420017  0.86721426  1
  O  O302  1  0.63288907  0.36398063  0.36713918  1
  O  O303  1  0.62839282  0.36667611  0.86213084  1
  O  O304  1  0.61911627  0.88141962  0.36301757  1
  O  O305  1  0.62534536  0.86653619  0.86771440  1
  O  O306  1  0.38372401  0.12610130  0.13443179  1
  O  O307  1  0.37920787  0.13214540  0.62858105  1
  O  O308  1  0.37619863  0.63382067  0.13533016  1
  O  O309  1  0.37170912  0.63550974  0.63215018  1
  O  O310  1  0.87899863  0.13204486  0.13180878  1
  O  O311  1  0.88057406  0.12977260  0.63147124  1
  O  O312  1  0.88264912  0.62837568  0.12871340  1
  O  O313  1  0.88366512  0.62627536  0.62658980  1
  O  O314  1  0.24817759  0.25285683  0.11910325  1
  O  O315  1  0.25823213  0.25349777  0.61525075  1
  O  O316  1  0.25440630  0.75481906  0.11839101  1
  O  O317  1  0.25793052  0.75652268  0.62031865  1
  O  O318  1  0.76329406  0.25077994  0.12247404  1
  O  O319  1  0.75642964  0.25770927  0.62610436  1
  O  O320  1  0.75716014  0.75609556  0.11980810  1
  O  O321  1  0.75315603  0.75390710  0.61171338  1
  O  O322  1  0.25126011  0.24492373  0.38399630  1
  O  O323  1  0.24170327  0.23887258  0.88328493  1
  O  O324  1  0.24348859  0.75019370  0.38295806  1
  O  O325  1  0.24775971  0.74380441  0.88319007  1
  O  O326  1  0.73950827  0.24031675  0.37664908  1
  O  O327  1  0.74186736  0.24263545  0.87639450  1
  O  O328  1  0.75669763  0.73830680  0.38412882  1
  O  O329  1  0.73950714  0.74988092  0.88187713  1
  O  O330  1  0.00363570  0.11938857  0.00443462  1
  O  O331  1  -0.00085288  0.11613025  0.50428795  1
  O  O332  1  0.00362914  0.62346377  0.01264424  1
  O  O333  1  0.00490789  0.62041936  0.50422741  1
  O  O334  1  0.50699961  0.11928813  0.00819048  1
  O  O335  1  0.50565946  0.11862191  0.50687582  1
  O  O336  1  0.51637590  0.62970328  0.00575547  1
  O  O337  1  0.51426258  0.63033400  0.49646077  1
  O  O338  1  0.48445767  0.37320243  0.50400304  1
  O  O339  1  0.49163256  0.38404785  1.01446778  1
  O  O340  1  0.49622143  0.87978049  0.49578775  1
  O  O341  1  0.49832347  0.88339364  0.99940836  1
  O  O342  1  1.00033185  0.38181130  0.49014278  1
  O  O343  1  0.99090963  0.37510844  0.99448579  1
  O  O344  1  0.99316983  0.88101373  0.49391714  1
  O  O345  1  0.99478657  0.87921686  0.99477071  1
  O  O346  1  0.48566599  0.50386210  0.37767815  1
  O  O347  1  0.48919698  0.49347564  0.87868173  1
  O  O348  1  0.49532762  0.99539436  0.38189780  1
  O  O349  1  0.49386720  1.00042617  0.88290005  1
  O  O350  1  0.99536986  0.49283570  0.37896955  1
  O  O351  1  0.99414446  0.49359259  0.87771411  1
  O  O352  1  1.00634591  0.98900353  0.38571306  1
  O  O353  1  0.99302797  0.99460501  0.87940275  1
  O  O354  1  0.00129596  0.00598300  0.11681482  1
  O  O355  1  0.00453403  0.00478488  0.61709069  1
  O  O356  1  0.00727699  0.50780520  0.12532460  1
  O  O357  1  0.00514603  0.50441775  0.61932835  1
  O  O358  1  0.50697920  0.00517903  0.12118066  1
  O  O359  1  0.50545551  0.00522426  0.61938752  1
  O  O360  1  0.52096965  0.50758490  0.13350249  1
  O  O361  1  0.50335991  0.50561199  0.61527436  1
  O  O362  1  0.23789685  0.37761950  0.24644877  1
  O  O363  1  0.24198471  0.38023060  0.73922880  1
  O  O364  1  0.24599758  0.88031884  0.24638067  1
  O  O365  1  0.24461468  0.88028448  0.74436244  1
  O  O366  1  0.74083785  0.38021125  0.24943911  1
  O  O367  1  0.74513852  0.37700650  0.74008444  1
  O  O368  1  0.74319974  0.87433469  0.24706187  1
  O  O369  1  0.73980727  0.88073503  0.74930190  1
  O  O370  1  0.25670150  0.12001764  0.25583506  1
  O  O371  1  0.25511445  0.11834822  0.75509192  1
  O  O372  1  0.25554759  0.61865196  0.25150315  1
  O  O373  1  0.25452666  0.62339936  0.75530937  1
  O  O374  1  0.75770226  0.12305380  0.25833966  1
  O  O375  1  0.75530547  0.11963388  0.75504353  1
  O  O376  1  0.75399115  0.62147452  0.25793352  1
  O  O377  1  0.75388143  0.62161397  0.75340005  1
  O  O378  1  0.37106248  0.11853941  0.37123566  1
  O  O379  1  0.36806145  0.11925011  0.86899865  1
  O  O380  1  0.37053629  0.61687382  0.37057638  1
  O  O381  1  0.36324866  0.63439142  0.86295115  1
  O  O382  1  0.86540909  0.13498556  0.36497855  1
  O  O383  1  0.87056199  0.11993876  0.86936556  1
  O  O384  1  0.86778641  0.61988674  0.36961387  1
  O  O385  1  0.87497073  0.61341354  0.87614708  1
  O  O386  1  0.12629396  0.38049336  0.13571715  1
  O  O387  1  0.12829165  0.38042580  0.62865889  1
  O  O388  1  0.13173535  0.87695154  0.13301534  1
  O  O389  1  0.13072207  0.88091634  0.62959599  1
  O  O390  1  0.63051505  0.38288814  0.13437604  1
  O  O391  1  0.63129820  0.37082532  0.63836654  1
  O  O392  1  0.63165712  0.87973571  0.13414205  1
  O  O393  1  0.62600011  0.88095729  0.63444776  1
  O  O394  1  0.12142511  0.26187656  0.25205956  1
  O  O395  1  0.12082237  0.25404014  0.75403324  1
  O  O396  1  0.12319312  0.75756463  0.25712563  1
  O  O397  1  0.11379584  0.75733468  0.74882580  1
  O  O398  1  0.62202042  0.25451039  0.25717269  1
  O  O399  1  0.62578310  0.26215076  0.75874862  1
  O  O400  1  0.61606124  0.76161398  0.24339622  1
  O  O401  1  0.62576268  0.75699916  0.75789926  1
  O  O402  1  0.38709402  0.24307689  0.25438113  1
  O  O403  1  0.36585637  0.24232977  0.73520509  1
  O  O404  1  0.38186021  0.74572825  0.24703029  1
  O  O405  1  0.37422969  0.74243623  0.74093095  1
  O  O406  1  0.87651654  0.24180193  0.24077501  1
  O  O407  1  0.88181830  0.24421217  0.74623445  1
  O  O408  1  0.87762401  0.74297866  0.24241733  1
  O  O409  1  0.88664426  0.75156336  0.74859273  1
  O  O410  1  0.37246715  0.49161746  0.49158551  1
  O  O411  1  0.39002540  0.50016247  1.01918214  1
  O  O412  1  0.38094626  0.99409159  0.49651475  1
  O  O413  1  0.38130828  1.00061698  0.99370720  1
  O  O414  1  0.88193173  0.49809156  0.49271804  1
  O  O415  1  0.87727275  0.49061709  0.99340808  1
  O  O416  1  0.88616152  0.99144551  0.50495291  1
  O  O417  1  0.88017436  0.99485177  0.99443412  1
  O  O418  1  0.11826303  0.00592160  0.00069076  1
  O  O419  1  0.11351960  -0.00062936  0.50633454  1
  O  O420  1  0.12566789  0.49949333  0.01596264  1
  O  O421  1  0.11970750  0.50523519  0.50443208  1
  O  O422  1  0.62038239  0.00584708  0.00577289  1
  O  O423  1  0.61965632  0.00542317  0.50673878  1
  O  O424  1  0.63173439  0.50903477  0.00897105  1
  O  O425  1  0.62358099  0.51163168  0.49976987  1
  O  O426  1  0.35353961  0.36513407  0.14186711  1
  O  O427  1  0.36801737  0.36755812  0.61712872  1
  O  O428  1  0.36754079  0.86840838  0.12452695  1
  O  O429  1  0.37108466  0.86739309  0.62132350  1
  O  O430  1  0.87652853  0.36776308  0.11828560  1
  O  O431  1  0.86724145  0.36947558  0.62599105  1
  O  O432  1  0.87142439  0.86969689  0.12020842  1
  O  O433  1  0.87278140  0.87270102  0.61065228  1
  O  O434  1  0.13341982  0.12809708  0.37773342  1
  O  O435  1  0.12875651  0.12819815  0.88004809  1
  O  O436  1  0.12455139  0.63155712  0.38125020  1
  O  O437  1  0.13413257  0.63124789  0.87724788  1
  O  O438  1  0.63293703  0.13275571  0.38037790  1
  O  O439  1  0.62928265  0.13244447  0.87911261  1
  O  O440  1  0.63827327  0.61982565  0.38116351  1
  O  O441  1  0.62580269  0.63272731  0.88495905  1
