# generated using pymatgen
data_V93Zn93O256
_symmetry_space_group_name_H-M   'P 1'
_cell_length_a   17.06187241
_cell_length_b   17.06497836
_cell_length_c   17.06036877
_cell_angle_alpha   89.95270548
_cell_angle_beta   90.05513385
_cell_angle_gamma   89.99637891
_symmetry_Int_Tables_number   1
_chemical_formula_structural   V93Zn93O256
_chemical_formula_sum   'V93 Zn93 O256'
_cell_volume   4967.30121709
_cell_formula_units_Z   1
loop_
 _symmetry_equiv_pos_site_id
 _symmetry_equiv_pos_as_xyz
  1  'x, y, z'
loop_
 _atom_site_type_symbol
 _atom_site_label
 _atom_site_symmetry_multiplicity
 _atom_site_fract_x
 _atom_site_fract_y
 _atom_site_fract_z
 _atom_site_occupancy
  V  V0  1  0.50002785  0.74967808  0.74921705  1
  V  V1  1  0.62975666  0.86933520  0.25234530  1
  V  V2  1  0.87442282  0.12666094  0.75092275  1
  V  V3  1  0.12569639  -0.00219877  0.12506265  1
  V  V4  1  0.37424144  0.74963977  0.62475347  1
  V  V5  1  -0.00022548  0.74821688  0.25181131  1
  V  V6  1  0.24920543  0.61777456  0.86860605  1
  V  V7  1  0.62462752  0.12336743  0.00068492  1
  V  V8  1  0.74744892  0.49838439  0.24989431  1
  V  V9  1  0.50024519  0.87404402  0.87369497  1
  V  V10  1  0.75074671  -0.00015931  0.75010439  1
  V  V11  1  0.74976961  0.25048186  0.49947833  1
  V  V12  1  0.00563267  0.86941315  0.37490134  1
  V  V13  1  0.00110485  0.25044120  0.25074640  1
  V  V14  1  -0.00197647  0.37747915  0.37669150  1
  V  V15  1  0.12751783  0.38366156  0.75195342  1
  V  V16  1  -0.00042516  0.37490681  0.87474434  1
  V  V17  1  0.86886698  0.62490118  0.75316108  1
  V  V18  1  0.62751709  0.12539527  0.49931490  1
  V  V19  1  0.12666047  0.87649979  0.74823015  1
  V  V20  1  0.12467042  0.37709555  0.25098221  1
  V  V21  1  0.74899467  0.24864676  0.00122718  1
  V  V22  1  0.87928775  0.00121851  0.37416183  1
  V  V23  1  0.37418983  0.37036615  0.00520427  1
  V  V24  1  0.74998351  0.37810022  0.62649752  1
  V  V25  1  0.49993208  0.24948428  0.74974245  1
  V  V26  1  0.24865017  0.38497490  0.63246923  1
  V  V27  1  0.86720198  0.50377418  0.87512845  1
  V  V28  1  0.87650889  0.87561528  0.49940110  1
  V  V29  1  0.62749079  -0.00278141  0.12598073  1
  V  V30  1  0.75193254  0.12463647  0.37522036  1
  V  V31  1  0.37516234  0.87136116  -0.00477621  1
  V  V32  1  0.74938160  0.12479996  0.87663209  1
  V  V33  1  0.25165980  0.12390627  0.87283978  1
  V  V34  1  0.62563518  0.87406873  0.74996896  1
  V  V35  1  0.50803166  0.87067577  0.37659416  1
  V  V36  1  0.74831267  0.37410604  0.12668890  1
  V  V37  1  0.24579966  0.25531418  0.50142943  1
  V  V38  1  0.25074855  0.50160159  0.25135305  1
  V  V39  1  0.12525407  0.86854018  0.24984064  1
  V  V40  1  0.49983938  0.62516734  0.62373743  1
  V  V41  1  0.62650273  0.62275688  -0.00553505  1
  V  V42  1  0.75167100  0.87553291  0.62435873  1
  V  V43  1  0.12543213  0.62381539  -0.00138821  1
  V  V44  1  0.87736261  0.12419853  0.25111291  1
  V  V45  1  0.00137668  0.62363381  0.62337261  1
  V  V46  1  -0.00107550  0.49970168  0.00055027  1
  V  V47  1  0.50132154  -0.00062290  0.49521696  1
  V  V48  1  -0.00049527  0.62458421  0.12493662  1
  V  V49  1  0.62737402  0.74637503  0.87360248  1
  V  V50  1  0.62368063  0.37567884  0.74960240  1
  V  V51  1  0.00031243  0.87506245  0.87450242  1
  V  V52  1  0.00170117  0.00044992  0.49966115  1
  V  V53  1  0.37439525  0.25176589  0.62667170  1
  V  V54  1  0.87470654  0.75023501  0.62500834  1
  V  V55  1  0.37065091  0.61758334  0.74902923  1
  V  V56  1  0.12430954  0.63211916  0.49153209  1
  V  V57  1  0.87488563  0.74994421  0.12296297  1
  V  V58  1  0.12459055  0.25060240  0.87576958  1
  V  V59  1  0.87551658  -0.00084760  0.87504176  1
  V  V60  1  0.87506734  0.87349812  -0.00091865  1
  V  V61  1  0.87664997  0.25121480  0.62764247  1
  V  V62  1  0.62482160  0.50272068  0.62069731  1
  V  V63  1  0.50045145  0.12611713  0.62450030  1
  V  V64  1  0.62641452  0.00057455  0.62549547  1
  V  V65  1  0.50638355  0.74759017  0.25279866  1
  V  V66  1  0.25016421  0.87334006  0.12205288  1
  V  V67  1  0.00028358  0.75048857  0.74941332  1
  V  V68  1  0.74365726  0.62952915  0.37370600  1
  V  V69  1  0.12778840  0.00156384  0.62484589  1
  V  V70  1  0.87349897  0.62469934  0.24935897  1
  V  V71  1  0.37584182  0.38074004  0.49942790  1
  V  V72  1  0.25074694  0.74865592  -0.00198676  1
  V  V73  1  0.49046378  0.12371761  0.13400758  1
  V  V74  1  0.12462872  0.49961366  0.12555792  1
  V  V75  1  0.49904842  0.37330144  0.87594696  1
  V  V76  1  0.25060436  0.87774254  0.62370998  1
  V  V77  1  0.24799784  0.75279055  0.48809044  1
  V  V78  1  0.87609057  0.37843954  0.50108796  1
  V  V79  1  0.12508637  0.74979318  0.87347696  1
  V  V80  1  0.00143033  0.12426599  0.12539360  1
  V  V81  1  0.12464036  0.12502460  -0.00031521  1
  V  V82  1  0.49985989  -0.00312943  -0.00279479  1
  V  V83  1  0.87508745  0.24912619  0.12573852  1
  V  V84  1  0.50063230  0.62480975  0.12308459  1
  V  V85  1  0.37459423  0.62881333  0.25113678  1
  V  V86  1  0.12414208  0.25284219  0.37756289  1
  V  V87  1  0.75064664  0.74477057  -0.00560436  1
  V  V88  1  0.37789247  0.87633693  0.49773188  1
  V  V89  1  0.49815807  0.49933531  -0.00101315  1
  V  V90  1  0.12225735  0.12918964  0.50245024  1
  V  V91  1  0.74409842  0.75030825  0.49511388  1
  V  V92  1  0.87412736  0.37484027  -0.00002644  1
  Zn  Zn93  1  0.37620958  0.74985575  0.12266503  1
  Zn  Zn94  1  0.24510217  0.63388440  0.36977364  1
  Zn  Zn95  1  0.75341184  -0.00177771  0.25017625  1
  Zn  Zn96  1  0.62007756  0.36787519  0.25008088  1
  Zn  Zn97  1  -0.00135572  -0.00041639  -0.00064427  1
  Zn  Zn98  1  0.12889698  0.50596726  0.62713879  1
  Zn  Zn99  1  0.50408004  0.37882088  0.37241422  1
  Zn  Zn100  1  0.62472824  0.24959689  0.87523881  1
  Zn  Zn101  1  0.26962471  0.11856426  0.36566321  1
  Zn  Zn102  1  0.75203803  0.87362416  0.12513793  1
  Zn  Zn103  1  0.37487123  -0.00051908  0.87004229  1
  Zn  Zn104  1  0.62317095  0.25181702  0.37317936  1
  Zn  Zn105  1  0.00228543  0.50242396  0.49852321  1
  Zn  Zn106  1  0.49817434  0.50410034  0.49650886  1
  Zn  Zn107  1  0.37025206  0.49473138  0.87241824  1
  Zn  Zn108  1  0.62322949  0.49567109  0.12384348  1
  Zn  Zn109  1  0.61960062  0.63009520  0.49381992  1
  Zn  Zn110  1  0.37461402  0.12307024  0.74738641  1
  Zn  Zn111  1  0.37645303  0.50233884  0.37571827  1
  Zn  Zn112  1  0.36734820  0.24425664  0.14018212  1
  Zn  Zn113  1  -0.00125686  0.12380498  0.62924852  1
  Zn  Zn114  1  0.26963840  0.00877608  0.25461657  1
  Zn  Zn115  1  0.25322734  0.00186059  0.74562550  1
  Zn  Zn116  1  0.00070589  0.25036604  0.75111766  1
  Zn  Zn117  1  0.87442466  0.50204272  0.37811195  1
  Zn  Zn118  1  0.49158190  0.25214414  0.25950088  1
  Zn  Zn119  1  0.74528305  0.50456237  0.75387013  1
  Zn  Zn120  1  0.25173256  0.24841709  0.00308766  1
  Zn  Zn121  1  0.24992696  0.37071579  0.12619038  1
  Zn  Zn122  1  0.19178857  0.18802293  0.18895004  1
  Zn  Zn123  1  0.18615372  0.19191727  0.68905171  1
  Zn  Zn124  1  0.18687074  0.68960738  0.18511825  1
  Zn  Zn125  1  0.18894499  0.69179858  0.68330884  1
  Zn  Zn126  1  0.68437189  0.18686808  0.19143744  1
  Zn  Zn127  1  0.68761272  0.18927721  0.68749306  1
  Zn  Zn128  1  0.68835675  0.68513546  0.18130867  1
  Zn  Zn129  1  0.68731643  0.68834096  0.68381451  1
  Zn  Zn130  1  0.31522987  0.31225066  0.31323709  1
  Zn  Zn131  1  0.31216920  0.30997839  0.81436028  1
  Zn  Zn132  1  0.32950628  0.84236660  0.29851752  1
  Zn  Zn133  1  0.31182480  0.80929516  0.81060223  1
  Zn  Zn134  1  0.81201303  0.31245724  0.31433660  1
  Zn  Zn135  1  0.80957011  0.31431028  0.81333845  1
  Zn  Zn136  1  0.81588212  0.81204027  0.31347245  1
  Zn  Zn137  1  0.81273363  0.81170787  0.81302926  1
  Zn  Zn138  1  0.18562970  0.44419053  0.43899700  1
  Zn  Zn139  1  0.18840842  0.43583448  0.93915518  1
  Zn  Zn140  1  0.18841316  0.93990333  0.43695297  1
  Zn  Zn141  1  0.18768055  0.93916157  0.93632694  1
  Zn  Zn142  1  0.68844809  0.43768093  0.43506712  1
  Zn  Zn143  1  0.68538300  0.43529052  0.93834272  1
  Zn  Zn144  1  0.69002249  0.93948602  0.43652529  1
  Zn  Zn145  1  0.68866625  0.93430070  0.93793237  1
  Zn  Zn146  1  0.31046376  0.05590124  0.05683431  1
  Zn  Zn147  1  0.32585060  0.07708555  0.53526637  1
  Zn  Zn148  1  0.31342459  0.56064505  0.06267136  1
  Zn  Zn149  1  0.30925767  0.56612124  0.56088986  1
  Zn  Zn150  1  0.81316714  0.06140943  0.06284055  1
  Zn  Zn151  1  0.81451106  0.06356719  0.56211810  1
  Zn  Zn152  1  0.81066911  0.56183815  0.06345465  1
  Zn  Zn153  1  0.81123519  0.56354407  0.56181181  1
  Zn  Zn154  1  0.43823047  0.43794337  0.18736527  1
  Zn  Zn155  1  0.43993723  0.43716281  0.68493064  1
  Zn  Zn156  1  0.44000092  0.93595141  0.18138562  1
  Zn  Zn157  1  0.43632965  0.93991068  0.68568364  1
  Zn  Zn158  1  0.93515364  0.43756954  0.18877695  1
  Zn  Zn159  1  0.93877098  0.43937490  0.69036724  1
  Zn  Zn160  1  0.93995059  0.93698392  0.18679408  1
  Zn  Zn161  1  0.93924556  0.93889362  0.68725623  1
  Zn  Zn162  1  0.08461152  0.06521731  0.30907708  1
  Zn  Zn163  1  0.06252140  0.06304619  0.81110100  1
  Zn  Zn164  1  0.06097620  0.56203131  0.31361085  1
  Zn  Zn165  1  0.05737924  0.56248676  0.81348964  1
  Zn  Zn166  1  0.56637329  0.05944671  0.31353228  1
  Zn  Zn167  1  0.56271686  0.06295189  0.81221286  1
  Zn  Zn168  1  0.56201594  0.55760739  0.31356466  1
  Zn  Zn169  1  0.55813856  0.55992210  0.81176029  1
  Zn  Zn170  1  0.43548237  0.19271499  0.43079913  1
  Zn  Zn171  1  0.43788706  0.18708269  0.93991611  1
  Zn  Zn172  1  0.43703065  0.69018545  0.43537694  1
  Zn  Zn173  1  0.43715706  0.68605081  0.93360461  1
  Zn  Zn174  1  0.93835379  0.18940244  0.43920958  1
  Zn  Zn175  1  0.93825720  0.18753253  0.93799087  1
  Zn  Zn176  1  0.93198165  0.68764277  0.43717124  1
  Zn  Zn177  1  0.93833547  0.68686457  0.93646376  1
  Zn  Zn178  1  0.06350467  0.31206838  0.06262283  1
  Zn  Zn179  1  0.06063454  0.31802608  0.56682068  1
  Zn  Zn180  1  0.06157640  0.81027629  0.06116939  1
  Zn  Zn181  1  0.06452296  0.81179888  0.56248054  1
  Zn  Zn182  1  0.56145326  0.30893454  0.06575723  1
  Zn  Zn183  1  0.56226805  0.31300863  0.56101941  1
  Zn  Zn184  1  0.56288124  0.81005232  0.06303530  1
  Zn  Zn185  1  0.56367552  0.81201952  0.56610473  1
  O  O186  1  0.12004282  0.11526373  0.11985372  1
  O  O187  1  0.11952634  0.12205267  0.62004286  1
  O  O188  1  0.11870651  0.61929200  0.11841052  1
  O  O189  1  0.11539758  0.62785236  0.61900120  1
  O  O190  1  0.61718453  0.11223469  0.12080827  1
  O  O191  1  0.62192958  0.11903912  0.61975663  1
  O  O192  1  0.61847228  0.62352500  0.11052043  1
  O  O193  1  0.61906706  0.61751359  0.62465890  1
  O  O194  1  0.37024009  0.37906264  0.39148381  1
  O  O195  1  0.38006974  0.37529133  0.88403553  1
  O  O196  1  0.39420109  0.86698849  0.39241179  1
  O  O197  1  0.38269396  0.87236719  0.87814864  1
  O  O198  1  0.88071525  0.37528652  0.38368724  1
  O  O199  1  0.87923753  0.38310382  0.88053166  1
  O  O200  1  0.88441845  0.88158504  0.37986219  1
  O  O201  1  0.88061383  0.87944586  0.87855261  1
  O  O202  1  0.24394575  0.00328287  0.36943874  1
  O  O203  1  0.24951064  0.01138449  0.87115322  1
  O  O204  1  0.24961929  0.50662778  0.36076115  1
  O  O205  1  0.24937458  0.51461666  0.87775262  1
  O  O206  1  0.76100353  0.00622590  0.37426555  1
  O  O207  1  0.75537485  0.00381978  0.86935176  1
  O  O208  1  0.75367145  0.50978711  0.36592383  1
  O  O209  1  0.76365193  0.49612127  0.87532063  1
  O  O210  1  0.24278040  0.50123406  0.13623598  1
  O  O211  1  0.24847366  0.48865903  0.62352098  1
  O  O212  1  0.23894000  0.99162484  0.12502765  1
  O  O213  1  0.24190182  0.99319858  0.62111888  1
  O  O214  1  0.74952860  0.49331718  0.13293012  1
  O  O215  1  0.74086221  0.49676871  0.62778129  1
  O  O216  1  0.73888092  0.99674966  0.12628472  1
  O  O217  1  0.74664639  0.99462679  0.62997529  1
  O  O218  1  0.00398739  0.37036298  0.25551441  1
  O  O219  1  0.00781955  0.37354371  0.75710050  1
  O  O220  1  0.00470424  0.86794450  0.25642097  1
  O  O221  1  0.00535004  0.86924265  0.75459297  1
  O  O222  1  0.50200984  0.37342169  0.25199793  1
  O  O223  1  0.50422775  0.36937038  0.75486761  1
  O  O224  1  0.51138284  0.86584567  0.25739392  1
  O  O225  1  0.50668634  0.86910753  0.75262950  1
  O  O226  1  0.50172687  0.11329683  0.23442205  1
  O  O227  1  0.50106954  0.13123598  0.74191732  1
  O  O228  1  0.49541899  0.63067757  0.24544357  1
  O  O229  1  0.49132113  0.63146839  0.74458534  1
  O  O230  1  0.99893301  0.13124262  0.24541440  1
  O  O231  1  0.99008207  0.12931386  0.74899522  1
  O  O232  1  0.99397431  0.62856255  0.24447088  1
  O  O233  1  0.99232304  0.63117386  0.74168205  1
  O  O234  1  0.37563207  0.26074817  0.00469719  1
  O  O235  1  0.36201274  0.26501669  0.50963725  1
  O  O236  1  0.36843757  0.75344119  -0.00240290  1
  O  O237  1  0.36937374  0.75742312  0.50620039  1
  O  O238  1  0.86944683  0.25505433  0.00621433  1
  O  O239  1  0.86998604  0.25649877  0.50987964  1
  O  O240  1  0.86820530  0.75197675  0.00196291  1
  O  O241  1  0.86588081  0.75667862  0.50626641  1
  O  O242  1  0.12699787  0.24930053  0.49916633  1
  O  O243  1  0.12535000  0.24341721  0.99317896  1
  O  O244  1  0.13604715  0.74324264  0.50517463  1
  O  O245  1  0.12929940  0.74266265  0.99278208  1
  O  O246  1  0.63411974  0.24223802  0.50342026  1
  O  O247  1  0.63200418  0.24138897  1.00011495  1
  O  O248  1  0.64045931  0.75051804  0.50637514  1
  O  O249  1  0.63168458  0.74271505  0.99440795  1
  O  O250  1  0.49781439  0.22845901  0.12417479  1
  O  O251  1  0.49492858  0.24566061  0.62961466  1
  O  O252  1  0.49938997  0.74322854  0.13450109  1
  O  O253  1  0.49493319  0.74518626  0.63063159  1
  O  O254  1  0.99480524  0.24498771  0.13099277  1
  O  O255  1  0.98518234  0.25148259  0.62715160  1
  O  O256  1  0.99367665  0.74250094  0.12887119  1
  O  O257  1  0.99427513  0.74310604  0.62972828  1
  O  O258  1  0.00427046  0.25794785  0.37018915  1
  O  O259  1  0.00529725  0.25824772  0.87530905  1
  O  O260  1  -0.01011562  0.76241800  0.36873842  1
  O  O261  1  0.00587617  0.75460602  0.86863452  1
  O  O262  1  0.50481935  0.25760892  0.37905165  1
  O  O263  1  0.50230371  0.25522748  0.86858279  1
  O  O264  1  0.50265204  0.75735423  0.36405708  1
  O  O265  1  0.50740145  0.75455841  0.86786324  1
  O  O266  1  0.23061405  0.14351938  0.51416025  1
  O  O267  1  0.24253983  0.12381252  0.99023651  1
  O  O268  1  0.24226310  0.63619704  0.49715532  1
  O  O269  1  0.24464377  0.62862279  0.99112473  1
  O  O270  1  0.74687984  0.12959674  0.49543415  1
  O  O271  1  0.74532425  0.12897585  0.99612918  1
  O  O272  1  0.75030340  0.63449096  0.49153229  1
  O  O273  1  0.74004172  0.63386958  1.00436524  1
  O  O274  1  0.26075286  0.37418297  0.00219124  1
  O  O275  1  0.25083671  0.37148330  0.51046007  1
  O  O276  1  0.25406550  0.86826239  0.00135290  1
  O  O277  1  0.25929815  0.87091186  0.50357368  1
  O  O278  1  0.75557981  0.36916765  0.00591423  1
  O  O279  1  0.75678749  0.37066055  0.50749067  1
  O  O280  1  0.75605718  0.86281976  0.00154753  1
  O  O281  1  0.75647182  0.86964563  0.50378400  1
  O  O282  1  0.13141347  0.49790850  0.24510948  1
  O  O283  1  0.11886698  0.48767890  0.75038129  1
  O  O284  1  0.11726344  0.98282121  0.23547832  1
  O  O285  1  0.12611428  0.99342758  0.74194333  1
  O  O286  1  0.63973756  0.50211308  0.24553698  1
  O  O287  1  0.62512541  0.49595745  0.74031078  1
  O  O288  1  0.62721407  0.98774231  0.24147037  1
  O  O289  1  0.63175067  0.99395220  0.74497642  1
  O  O290  1  0.36178741  -0.05256242  0.25582525  1
  O  O291  1  0.37171421  0.00469630  0.75203847  1
  O  O292  1  0.36545524  0.51145298  0.24834863  1
  O  O293  1  0.38081079  0.51456939  0.75006550  1
  O  O294  1  0.87674164  0.00623574  0.25544638  1
  O  O295  1  0.86915394  0.00500861  0.75457105  1
  O  O296  1  0.86328833  0.50699619  0.24910255  1
  O  O297  1  0.87391931  0.50838262  0.75852872  1
  O  O298  1  0.11839770  0.37252957  0.37104984  1
  O  O299  1  0.12047802  0.37153157  0.87019246  1
  O  O300  1  0.11239124  0.87862265  0.36524754  1
  O  O301  1  0.12048787  0.86916830  0.86893267  1
  O  O302  1  0.62510349  0.37171071  0.37115839  1
  O  O303  1  0.61770202  0.37328730  0.86840293  1
  O  O304  1  0.61895727  0.87891846  0.36517110  1
  O  O305  1  0.62054051  0.86758613  0.86827053  1
  O  O306  1  0.38866525  0.11503297  0.11972877  1
  O  O307  1  0.38326959  0.13489361  0.62170520  1
  O  O308  1  0.38098975  0.62728540  0.13520463  1
  O  O309  1  0.37806191  0.63058600  0.63139780  1
  O  O310  1  0.88116646  0.12946498  0.13040095  1
  O  O311  1  0.87393197  0.13531324  0.63133528  1
  O  O312  1  0.88064800  0.63010648  0.12878537  1
  O  O313  1  0.88313697  0.63060235  0.63154655  1
  O  O314  1  0.25198464  0.25233770  0.12041520  1
  O  O315  1  0.25227832  0.26302703  0.61929289  1
  O  O316  1  0.25092824  0.75500843  0.11413787  1
  O  O317  1  0.25636765  0.75858623  0.61497691  1
  O  O318  1  0.75662954  0.25309140  0.12090748  1
  O  O319  1  0.75939731  0.25643059  0.62077408  1
  O  O320  1  0.75666350  0.75073684  0.11255755  1
  O  O321  1  0.75622493  0.75653335  0.61720691  1
  O  O322  1  0.24095823  0.25487607  0.39131795  1
  O  O323  1  0.24263499  0.24019705  0.87848927  1
  O  O324  1  0.25877993  0.75644568  0.38776251  1
  O  O325  1  0.24311437  0.74010965  0.87876877  1
  O  O326  1  0.75198751  0.24142711  0.38351327  1
  O  O327  1  0.74892462  0.24303596  0.88306963  1
  O  O328  1  0.75695608  0.74265117  0.38467324  1
  O  O329  1  0.74420541  0.75328301  0.88601531  1
  O  O330  1  0.00606526  0.12309593  0.00711355  1
  O  O331  1  0.00661820  0.12102598  0.50548330  1
  O  O332  1  0.00575841  0.61959115  0.00474888  1
  O  O333  1  0.00585763  0.63085054  0.50839930  1
  O  O334  1  0.50620257  0.11566560  0.00697595  1
  O  O335  1  0.50921396  0.11436516  0.50616376  1
  O  O336  1  0.50585970  0.62082415  0.00321257  1
  O  O337  1  0.50163663  0.62732581  0.50763236  1
  O  O338  1  0.48416366  0.37862770  0.50621167  1
  O  O339  1  0.49386821  0.37849008  0.99685988  1
  O  O340  1  0.49990359  0.87825814  0.49561051  1
  O  O341  1  0.49668840  0.87644249  0.99308896  1
  O  O342  1  0.99376061  0.37821644  0.49510012  1
  O  O343  1  0.99340842  0.38081637  0.99573952  1
  O  O344  1  0.99681470  0.87786466  0.49273927  1
  O  O345  1  0.99292906  0.87325182  0.99142080  1
  O  O346  1  0.49445522  0.49753596  0.38041280  1
  O  O347  1  0.49604543  0.49124078  0.88176608  1
  O  O348  1  0.50789551  0.98870457  0.38891256  1
  O  O349  1  0.50180081  0.99118902  0.87999040  1
  O  O350  1  0.99506019  0.49271838  0.37652407  1
  O  O351  1  0.98990604  0.49454240  0.88207211  1
  O  O352  1  0.99763119  0.99053719  0.38111399  1
  O  O353  1  0.99339222  0.99277585  0.87554394  1
  O  O354  1  0.00850139  0.00506861  0.12149292  1
  O  O355  1  0.00815396  -0.00055964  0.61705634  1
  O  O356  1  0.00364903  0.50542714  0.12007193  1
  O  O357  1  0.00040124  0.51524425  0.62444416  1
  O  O358  1  0.50901671  0.00327314  0.11805706  1
  O  O359  1  0.50899129  0.00357697  0.61700597  1
  O  O360  1  0.50228221  0.50829991  0.11705358  1
  O  O361  1  0.50963294  0.50716681  0.62321141  1
  O  O362  1  0.24365075  0.38673508  0.25019172  1
  O  O363  1  0.24055128  0.37008013  0.74314337  1
  O  O364  1  0.23136140  0.86184668  0.23928307  1
  O  O365  1  0.24343454  0.87391693  0.74168630  1
  O  O366  1  0.75258692  0.38412515  0.24442052  1
  O  O367  1  0.74222381  0.37843394  0.74368037  1
  O  O368  1  0.74172658  0.87404701  0.24826549  1
  O  O369  1  0.74585186  0.87966496  0.74426247  1
  O  O370  1  0.22002688  0.11240247  0.26356025  1
  O  O371  1  0.25006814  0.12580053  0.76000592  1
  O  O372  1  0.25694003  0.62241328  0.24918941  1
  O  O373  1  0.25871450  0.63358659  0.75705331  1
  O  O374  1  0.75957778  0.12252790  0.25646367  1
  O  O375  1  0.75416345  0.11905991  0.75593243  1
  O  O376  1  0.75376673  0.62039919  0.25414996  1
  O  O377  1  0.76540792  0.62608375  0.74370378  1
  O  O378  1  0.35874894  0.11778458  0.42976522  1
  O  O379  1  0.36346398  0.12474374  0.87472876  1
  O  O380  1  0.37248080  0.62686856  0.36046838  1
  O  O381  1  0.36590844  0.62396600  0.86529139  1
  O  O382  1  0.87346437  0.12035386  0.37065481  1
  O  O383  1  0.86870227  0.11931659  0.87122903  1
  O  O384  1  0.86417735  0.62427875  0.36716897  1
  O  O385  1  0.88380617  0.61543052  0.86439267  1
  O  O386  1  0.12430278  0.38284260  0.13248690  1
  O  O387  1  0.13113166  0.37862886  0.63507932  1
  O  O388  1  0.12748951  0.87990195  0.12762953  1
  O  O389  1  0.13020495  0.88108387  0.62854064  1
  O  O390  1  0.63419101  0.37570011  0.12647283  1
  O  O391  1  0.62911467  0.38434818  0.62906586  1
  O  O392  1  0.62434515  0.88227983  0.13326862  1
  O  O393  1  0.63209246  0.88046683  0.63144774  1
  O  O394  1  0.11909073  0.25867970  0.25723700  1
  O  O395  1  0.12152807  0.26232294  0.75761701  1
  O  O396  1  0.11268068  0.75841861  0.24152259  1
  O  O397  1  0.11935037  0.75630019  0.75366441  1
  O  O398  1  0.61498526  0.24790622  0.25411495  1
  O  O399  1  0.61832394  0.25785738  0.74980264  1
  O  O400  1  0.61793658  0.75776846  0.24122395  1
  O  O401  1  0.62102575  0.75428898  0.75316729  1
  O  O402  1  0.37664018  0.24224204  0.25343720  1
  O  O403  1  0.38212133  0.24872752  0.74290605  1
  O  O404  1  0.38817105  0.74533435  0.24744181  1
  O  O405  1  0.38108338  0.74124460  0.74392126  1
  O  O406  1  0.88145065  0.24424202  0.24479754  1
  O  O407  1  0.87252381  0.24608083  0.74203926  1
  O  O408  1  0.87987391  0.74426575  0.24240963  1
  O  O409  1  0.88026557  0.74359226  0.74580045  1
  O  O410  1  0.37240535  0.49283712  0.50004916  1
  O  O411  1  0.38094715  0.49058959  0.99834991  1
  O  O412  1  0.39178704  0.98318737  0.51310637  1
  O  O413  1  0.38208283  0.98880372  0.99345493  1
  O  O414  1  0.87792340  0.49294026  0.50015278  1
  O  O415  1  0.87909135  0.49617913  0.99394842  1
  O  O416  1  0.88207899  0.99437590  0.49584413  1
  O  O417  1  0.87510201  0.99223934  0.99281481  1
  O  O418  1  0.12226900  0.00353018  0.01022687  1
  O  O419  1  0.12016939  0.01046720  0.50596116  1
  O  O420  1  0.11835735  0.50454029  0.00490152  1
  O  O421  1  0.12282276  0.51615751  0.50535972  1
  O  O422  1  0.62123587  0.00097023  0.00817331  1
  O  O423  1  0.62004493  0.00291348  0.50677258  1
  O  O424  1  0.61907655  0.50839350  -0.00066528  1
  O  O425  1  0.62546340  0.50344032  0.51264008  1
  O  O426  1  0.37367143  0.37360241  0.11464422  1
  O  O427  1  0.36583596  0.37263196  0.62190386  1
  O  O428  1  0.36899910  0.86967213  0.11007067  1
  O  O429  1  0.37252397  0.86779354  0.61696512  1
  O  O430  1  0.87000929  0.36862694  0.11913016  1
  O  O431  1  0.87064694  0.36960904  0.62263935  1
  O  O432  1  0.87568397  0.86772526  0.11804850  1
  O  O433  1  0.87069893  0.87047973  0.61982673  1
  O  O434  1  0.11792420  0.13649524  0.39290796  1
  O  O435  1  0.13047053  0.12993860  0.87949760  1
  O  O436  1  0.12396975  0.62631960  0.38673418  1
  O  O437  1  0.12987051  0.62947903  0.87757155  1
  O  O438  1  0.63421196  0.12197077  0.38330037  1
  O  O439  1  0.63225071  0.12471701  0.88233878  1
  O  O440  1  0.63964572  0.62204124  0.37500375  1
  O  O441  1  0.61749925  0.62981744  0.88642183  1
