# generated using pymatgen
data_V93Zn93O256
_symmetry_space_group_name_H-M   'P 1'
_cell_length_a   17.04241721
_cell_length_b   17.04205675
_cell_length_c   17.03882648
_cell_angle_alpha   89.93943627
_cell_angle_beta   89.96340897
_cell_angle_gamma   90.01795297
_symmetry_Int_Tables_number   1
_chemical_formula_structural   V93Zn93O256
_chemical_formula_sum   'V93 Zn93 O256'
_cell_volume   4948.71596513
_cell_formula_units_Z   1
loop_
 _symmetry_equiv_pos_site_id
 _symmetry_equiv_pos_as_xyz
  1  'x, y, z'
loop_
 _atom_site_type_symbol
 _atom_site_label
 _atom_site_symmetry_multiplicity
 _atom_site_fract_x
 _atom_site_fract_y
 _atom_site_fract_z
 _atom_site_occupancy
  V  V0  1  -0.00024829  0.37587472  0.87385618  1
  V  V1  1  0.49312270  0.25187919  0.74620746  1
  V  V2  1  0.87521912  0.74999327  0.12500791  1
  V  V3  1  0.00098269  0.74849177  0.25033815  1
  V  V4  1  0.24830836  0.75677099  0.00670001  1
  V  V5  1  -0.00569044  0.24524032  0.75010306  1
  V  V6  1  0.49980948  0.00416464  -0.00046513  1
  V  V7  1  0.37435253  0.87374573  0.49998475  1
  V  V8  1  0.62579932  0.50321076  0.12400925  1
  V  V9  1  0.37644284  0.25158736  0.12494850  1
  V  V10  1  0.25003044  0.12602334  0.87318494  1
  V  V11  1  0.87825241  0.49716746  0.37519657  1
  V  V12  1  0.37381854  0.62736096  0.75217574  1
  V  V13  1  0.75203389  0.37347609  0.12412182  1
  V  V14  1  0.62604271  0.37756432  0.75036166  1
  V  V15  1  -0.00237665  0.87664452  0.87420484  1
  V  V16  1  0.24862546  0.87433277  0.62561253  1
  V  V17  1  0.87442708  -0.00203053  0.37275053  1
  V  V18  1  -0.00113339  -0.00241988  0.49905322  1
  V  V19  1  0.37393242  0.12446174  0.24876550  1
  V  V20  1  0.37396562  0.74515723  0.12817411  1
  V  V21  1  0.12582960  0.49885732  0.12582475  1
  V  V22  1  0.00007240  0.50030075  -0.00022504  1
  V  V23  1  0.62294374  0.13141001  0.49299601  1
  V  V24  1  0.49879260  -0.00018514  0.49957494  1
  V  V25  1  0.49874122  0.75286627  0.75112577  1
  V  V26  1  0.62259574  0.87880066  0.74911711  1
  V  V27  1  0.25598651  0.24774572  0.50450359  1
  V  V28  1  0.00236295  0.24754434  0.24977490  1
  V  V29  1  0.75509149  0.50828202  0.74973407  1
  V  V30  1  0.24872758  0.00123503  0.75074173  1
  V  V31  1  0.00183058  0.37275968  0.37621021  1
  V  V32  1  0.13097537  -0.00338588  0.12374404  1
  V  V33  1  0.50078065  0.37834400  0.87602228  1
  V  V34  1  0.62601154  0.25111949  0.87701119  1
  V  V35  1  0.12647761  0.62409870  0.49872458  1
  V  V36  1  0.74991610  0.62604924  0.37768586  1
  V  V37  1  0.62301570  0.00217623  0.62447227  1
  V  V38  1  0.37654186  0.50133761  0.37327233  1
  V  V39  1  0.37134679  0.87753936  0.00512009  1
  V  V40  1  0.74929471  -0.00123724  0.24869460  1
  V  V41  1  0.49281310  0.13068898  0.62439348  1
  V  V42  1  0.12423795  0.62531300  0.00111901  1
  V  V43  1  0.75529174  0.00690317  0.74858345  1
  V  V44  1  -0.00641204  0.62342522  0.62929436  1
  V  V45  1  0.24976079  0.62713006  0.87615455  1
  V  V46  1  0.12424976  0.12269314  0.49892363  1
  V  V47  1  0.87453077  0.87977547  -0.00110059  1
  V  V48  1  0.62487012  -0.00015900  0.12490032  1
  V  V49  1  0.13255139  0.87297953  0.24529458  1
  V  V50  1  0.12384541  0.75107679  0.87537718  1
  V  V51  1  0.12556835  0.49769757  0.62604555  1
  V  V52  1  0.87362341  0.24520130  0.62657166  1
  V  V53  1  0.50176601  0.87199533  0.37205144  1
  V  V54  1  0.62474306  0.75193594  0.87591716  1
  V  V55  1  0.74724518  0.12725019  0.37409726  1
  V  V56  1  0.37317468  -0.00198775  0.37249289  1
  V  V57  1  0.62537077  0.50155947  0.62612573  1
  V  V58  1  -0.00530430  0.12345741  0.62666273  1
  V  V59  1  0.12823497  0.37342982  0.25063574  1
  V  V60  1  0.87553864  0.12360735  0.24925149  1
  V  V61  1  0.25563191  0.50431398  0.25139467  1
  V  V62  1  0.74798719  0.74989373  0.00019931  1
  V  V63  1  0.37603493  0.50247592  0.87785937  1
  V  V64  1  0.49655807  0.74026535  0.24972035  1
  V  V65  1  0.87790980  0.62428924  0.25039185  1
  V  V66  1  0.25674695  0.37010586  0.62644584  1
  V  V67  1  0.87704530  0.24988674  0.12379422  1
  V  V68  1  0.62656939  0.36918337  0.25806376  1
  V  V69  1  0.24900762  0.74742319  0.50174691  1
  V  V70  1  0.87558582  0.50787043  0.87164680  1
  V  V71  1  0.49931393  0.49882813  0.50086671  1
  V  V72  1  0.12241235  -0.00186544  0.62377589  1
  V  V73  1  0.87700005  0.37205562  0.49918755  1
  V  V74  1  0.12448086  0.12524099  0.00112531  1
  V  V75  1  0.74797563  0.24984192  0.49588943  1
  V  V76  1  0.49976673  0.62545970  0.62624665  1
  V  V77  1  -0.00977731  0.74667294  0.74964341  1
  V  V78  1  0.25104991  0.25179955  -0.00034961  1
  V  V79  1  0.75136417  0.37478992  0.62437734  1
  V  V80  1  0.12710728  0.24713028  0.37556576  1
  V  V81  1  0.75578505  0.12822784  0.86952111  1
  V  V82  1  0.00066633  0.87224827  0.37371386  1
  V  V83  1  0.74887656  0.87607693  0.62346897  1
  V  V84  1  0.37611326  0.37689150  0.00080796  1
  V  V85  1  0.12330417  0.87420958  0.74955873  1
  V  V86  1  0.12343541  0.25107458  0.87488040  1
  V  V87  1  0.75271902  0.49892404  0.25045708  1
  V  V88  1  0.24950656  0.50010526  0.75157627  1
  V  V89  1  0.49859394  0.87811586  0.87536787  1
  V  V90  1  0.50440879  0.24962814  0.25637319  1
  V  V91  1  0.37414767  0.75047018  0.62660572  1
  V  V92  1  0.87260343  0.87141263  0.49974600  1
  Zn  Zn93  1  0.75178139  0.24904038  -0.00170645  1
  Zn  Zn94  1  0.37126249  0.12792455  0.74719257  1
  Zn  Zn95  1  0.62360101  0.62606791  -0.00166822  1
  Zn  Zn96  1  0.37419876  0.00346941  0.87371639  1
  Zn  Zn97  1  0.25525974  0.62509304  0.37336242  1
  Zn  Zn98  1  0.86929124  0.74393622  0.62611724  1
  Zn  Zn99  1  0.00133979  0.49793884  0.50159394  1
  Zn  Zn100  1  -0.00023948  0.00247655  -0.00095279  1
  Zn  Zn101  1  0.50231466  0.12836506  0.12360506  1
  Zn  Zn102  1  0.50226964  0.37096516  0.37934138  1
  Zn  Zn103  1  0.87785338  0.00710260  0.87103277  1
  Zn  Zn104  1  0.00070920  0.62353059  0.12614899  1
  Zn  Zn105  1  0.62522627  0.74771274  0.37388989  1
  Zn  Zn106  1  0.37919711  0.36870522  0.50332279  1
  Zn  Zn107  1  0.87466237  0.37660424  -0.00158529  1
  Zn  Zn108  1  0.24949019  0.12165844  0.37515955  1
  Zn  Zn109  1  0.25246644  0.37564570  0.12664047  1
  Zn  Zn110  1  0.00076415  0.12226037  0.12375434  1
  Zn  Zn111  1  0.75039503  0.87619229  0.12636791  1
  Zn  Zn112  1  0.62590027  0.12746185  -0.00039426  1
  Zn  Zn113  1  0.12528044  0.37269770  0.74970165  1
  Zn  Zn114  1  0.75210881  0.62981506  0.87054424  1
  Zn  Zn115  1  0.12783390  0.74831006  0.37329320  1
  Zn  Zn116  1  0.62634782  0.87152160  0.24847669  1
  Zn  Zn117  1  0.50130911  0.50452175  0.00130591  1
  Zn  Zn118  1  0.49665622  0.62207884  0.12573431  1
  Zn  Zn119  1  0.25367044  -0.00628016  0.24609216  1
  Zn  Zn120  1  0.62546213  0.62715810  0.50044763  1
  Zn  Zn121  1  0.74668568  0.74994522  0.50157328  1
  Zn  Zn122  1  0.19002545  0.18590148  0.18482279  1
  Zn  Zn123  1  0.18230489  0.18643049  0.68732511  1
  Zn  Zn124  1  0.18770561  0.68526693  0.18723727  1
  Zn  Zn125  1  0.18367206  0.68694542  0.68822227  1
  Zn  Zn126  1  0.68838613  0.18561018  0.18708877  1
  Zn  Zn127  1  0.68220650  0.18887040  0.68540074  1
  Zn  Zn128  1  0.68839259  0.68936916  0.19127212  1
  Zn  Zn129  1  0.68476060  0.69025738  0.68735674  1
  Zn  Zn130  1  0.31464123  0.31456630  0.31656923  1
  Zn  Zn131  1  0.31167350  0.31577264  0.81485243  1
  Zn  Zn132  1  0.31302395  0.80718638  0.31425947  1
  Zn  Zn133  1  0.31172559  0.81575834  0.81658264  1
  Zn  Zn134  1  0.81432322  0.30960579  0.31198669  1
  Zn  Zn135  1  0.81423133  0.31773212  0.81097822  1
  Zn  Zn136  1  0.81251152  0.81178784  0.31070326  1
  Zn  Zn137  1  0.80914161  0.81831442  0.81268321  1
  Zn  Zn138  1  0.19087052  0.43412921  0.43851503  1
  Zn  Zn139  1  0.18754734  0.43672030  0.93808432  1
  Zn  Zn140  1  0.18745428  0.93518174  0.43416468  1
  Zn  Zn141  1  0.18539417  0.93936461  0.93639946  1
  Zn  Zn142  1  0.68884116  0.44017256  0.43944938  1
  Zn  Zn143  1  0.68977556  0.43924054  0.93781463  1
  Zn  Zn144  1  0.68597426  0.94078718  0.43778400  1
  Zn  Zn145  1  0.68767162  0.93991522  0.93537693  1
  Zn  Zn146  1  0.31162817  0.06533600  0.06308427  1
  Zn  Zn147  1  0.31109304  0.06048217  0.56220024  1
  Zn  Zn148  1  0.31027149  0.56388842  0.06366689  1
  Zn  Zn149  1  0.31418870  0.55995279  0.56355448  1
  Zn  Zn150  1  0.80816803  0.06651579  0.05972203  1
  Zn  Zn151  1  0.81119470  0.06158991  0.56000688  1
  Zn  Zn152  1  0.81425724  0.56403531  0.06113235  1
  Zn  Zn153  1  0.81355301  0.55863447  0.55950922  1
  Zn  Zn154  1  0.44025800  0.43584084  0.18950550  1
  Zn  Zn155  1  0.43685133  0.43903007  0.69048201  1
  Zn  Zn156  1  0.43887855  0.93481350  0.18571429  1
  Zn  Zn157  1  0.43499112  0.94131914  0.68688520  1
  Zn  Zn158  1  0.94108440  0.43586648  0.18890461  1
  Zn  Zn159  1  0.93664910  0.43414547  0.68906250  1
  Zn  Zn160  1  0.94266953  0.93646740  0.18474870  1
  Zn  Zn161  1  0.93484921  0.93434237  0.68563316  1
  Zn  Zn162  1  0.06350483  0.05930772  0.31042710  1
  Zn  Zn163  1  0.06224169  0.06383651  0.81289482  1
  Zn  Zn164  1  0.06465006  0.55969833  0.31252708  1
  Zn  Zn165  1  0.06239232  0.56390626  0.81242065  1
  Zn  Zn166  1  0.56004271  0.06069088  0.31082341  1
  Zn  Zn167  1  0.56361992  0.06678108  0.81183179  1
  Zn  Zn168  1  0.56518285  0.55841089  0.31230279  1
  Zn  Zn169  1  0.56473940  0.56625101  0.81391668  1
  Zn  Zn170  1  0.43564911  0.18469527  0.43414637  1
  Zn  Zn171  1  0.43597614  0.18906511  0.93391780  1
  Zn  Zn172  1  0.43680809  0.68507432  0.43855348  1
  Zn  Zn173  1  0.43943240  0.68841783  0.94183518  1
  Zn  Zn174  1  0.93644634  0.18514047  0.43727469  1
  Zn  Zn175  1  0.93833755  0.18819531  0.93916577  1
  Zn  Zn176  1  0.93854306  0.68636652  0.43975122  1
  Zn  Zn177  1  0.93723265  0.68864925  0.93917832  1
  Zn  Zn178  1  0.06333430  0.31503751  0.06205141  1
  Zn  Zn179  1  0.06521835  0.30954897  0.56297762  1
  Zn  Zn180  1  0.05929302  0.81414879  0.06444820  1
  Zn  Zn181  1  0.05944292  0.80901413  0.56262065  1
  Zn  Zn182  1  0.56141262  0.31611226  0.06518588  1
  Zn  Zn183  1  0.56493560  0.31341993  0.56423200  1
  Zn  Zn184  1  0.55914499  0.81478035  0.06418759  1
  Zn  Zn185  1  0.56456808  0.81052182  0.56001229  1
  O  O186  1  0.12410107  0.11742358  0.11885286  1
  O  O187  1  0.11565202  0.11678567  0.61840362  1
  O  O188  1  0.12378770  0.61709916  0.11799514  1
  O  O189  1  0.11827449  0.61545719  0.61881523  1
  O  O190  1  0.62339097  0.11378547  0.12124409  1
  O  O191  1  0.61444177  0.12142000  0.61403177  1
  O  O192  1  0.63057043  0.61087748  0.12728883  1
  O  O193  1  0.61691019  0.61873464  0.62559747  1
  O  O194  1  0.37991535  0.38632027  0.38201487  1
  O  O195  1  0.38104118  0.38306591  0.88052392  1
  O  O196  1  0.38317262  0.87782962  0.38048771  1
  O  O197  1  0.38054593  0.87793249  0.88708280  1
  O  O198  1  0.88188488  0.37744213  0.37901881  1
  O  O199  1  0.88110136  0.38637730  0.87720167  1
  O  O200  1  0.88010496  0.87959357  0.37950226  1
  O  O201  1  0.87895933  0.87851130  0.88397830  1
  O  O202  1  0.25885839  0.00027858  0.37081762  1
  O  O203  1  0.24855611  0.00762786  0.86794126  1
  O  O204  1  0.25843274  0.49842235  0.36950113  1
  O  O205  1  0.25519274  0.50702258  0.87119534  1
  O  O206  1  0.75489479  0.00618611  0.36871657  1
  O  O207  1  0.74853416  0.01071624  0.86554520  1
  O  O208  1  0.75817594  0.50531990  0.36998740  1
  O  O209  1  0.75778665  0.50142763  0.86681157  1
  O  O210  1  0.24566035  0.49808753  0.13415034  1
  O  O211  1  0.24268934  0.49277298  0.63103417  1
  O  O212  1  0.23671245  1.00312909  0.12643038  1
  O  O213  1  0.24224956  0.99322372  0.62935167  1
  O  O214  1  0.74755097  0.49144708  0.13038061  1
  O  O215  1  0.74673386  0.49493502  0.63132945  1
  O  O216  1  0.74109165  1.00022175  0.12921983  1
  O  O217  1  0.74261364  0.99805789  0.63054992  1
  O  O218  1  0.00772350  0.36720019  0.25657989  1
  O  O219  1  0.00320257  0.36430815  0.75512926  1
  O  O220  1  0.00766759  0.86768096  0.25521197  1
  O  O221  1  0.00441501  0.86681210  0.75318334  1
  O  O222  1  0.51090494  0.36637234  0.25175620  1
  O  O223  1  0.50584247  0.37045697  0.75474647  1
  O  O224  1  0.50002912  0.86713234  0.25981447  1
  O  O225  1  0.50259087  0.87250463  0.75430104  1
  O  O226  1  0.49097312  0.13167275  0.24860338  1
  O  O227  1  0.49993720  0.13428699  0.74107622  1
  O  O228  1  0.50334989  0.63664491  0.24987999  1
  O  O229  1  0.49327707  0.63320449  0.74655476  1
  O  O230  1  0.99299371  0.13049641  0.24841101  1
  O  O231  1  1.00395441  0.13677501  0.74352503  1
  O  O232  1  0.99533479  0.62991613  0.25063870  1
  O  O233  1  1.00721135  0.63564924  0.74093519  1
  O  O234  1  0.37170174  0.25662955  0.00417171  1
  O  O235  1  0.36055603  0.24811423  0.49528616  1
  O  O236  1  0.36727861  0.75864740  0.00577503  1
  O  O237  1  0.37016549  0.75396866  0.50770207  1
  O  O238  1  0.87482713  0.25433486  0.01247537  1
  O  O239  1  0.86892224  0.25408904  0.50594475  1
  O  O240  1  0.86710325  0.75849751  0.00347622  1
  O  O241  1  0.87152051  0.75859446  0.50207863  1
  O  O242  1  0.13266798  0.24199443  0.49524435  1
  O  O243  1  0.13061703  0.24586145  0.99487920  1
  O  O244  1  0.13024370  0.73943086  0.50185944  1
  O  O245  1  0.13067182  0.74791009  0.99616943  1
  O  O246  1  0.63061560  0.23893333  0.50379581  1
  O  O247  1  0.62469517  0.25294403  0.98727576  1
  O  O248  1  0.62792678  0.74477527  0.49278229  1
  O  O249  1  0.63388342  0.75524617  0.99572037  1
  O  O250  1  0.49487257  0.24928869  0.13520999  1
  O  O251  1  0.50711447  0.24278513  0.63496789  1
  O  O252  1  0.49292739  0.74977687  0.13373962  1
  O  O253  1  0.49356273  0.74645834  0.63130561  1
  O  O254  1  0.99142344  0.25123287  0.13107963  1
  O  O255  1  0.99531250  0.24416102  0.63149020  1
  O  O256  1  0.99290417  0.74666383  0.13171711  1
  O  O257  1  0.99787740  0.74102088  0.63353816  1
  O  O258  1  0.00615808  0.25277261  0.36951661  1
  O  O259  1  0.00264666  0.25436731  0.86771523  1
  O  O260  1  0.00274226  0.75446424  0.36852721  1
  O  O261  1  0.00411899  0.75450940  0.86755915  1
  O  O262  1  0.49630016  0.25113044  0.36107595  1
  O  O263  1  0.50866146  0.25674991  0.86689187  1
  O  O264  1  0.49552186  0.75648551  0.36727332  1
  O  O265  1  0.50366524  0.75845757  0.86990408  1
  O  O266  1  0.24251008  0.13093189  0.50146071  1
  O  O267  1  0.24506643  0.13269741  0.99322904  1
  O  O268  1  0.24075945  0.62898180  0.50546262  1
  O  O269  1  0.24435979  0.63597991  0.99457965  1
  O  O270  1  0.73997898  0.12852372  0.49494085  1
  O  O271  1  0.74442948  0.13024751  0.98673154  1
  O  O272  1  0.75050693  0.62379263  0.48947653  1
  O  O273  1  0.74940827  0.64051634  0.99817277  1
  O  O274  1  0.25797563  0.36890119  0.00052307  1
  O  O275  1  0.25045697  0.36455839  0.50982020  1
  O  O276  1  0.25774150  0.86559218  -0.00730509  1
  O  O277  1  0.25437035  0.86812799  0.50612114  1
  O  O278  1  0.75208233  0.37228763  0.01333471  1
  O  O279  1  0.75556239  0.37007177  0.50474290  1
  O  O280  1  0.75819688  0.86727711  -0.00077080  1
  O  O281  1  0.75547439  0.87709951  0.50504025  1
  O  O282  1  0.13324377  0.49253236  0.24619543  1
  O  O283  1  0.13126363  0.49964778  0.74100786  1
  O  O284  1  0.12714109  0.99070740  0.24226718  1
  O  O285  1  0.12823570  0.99369081  0.74315793  1
  O  O286  1  0.63298627  0.49002656  0.24242140  1
  O  O287  1  0.63288202  0.49599903  0.74626201  1
  O  O288  1  0.62910672  0.99920592  0.24060475  1
  O  O289  1  0.62997449  0.99691629  0.74372662  1
  O  O290  1  0.37578463  0.00684229  0.25176784  1
  O  O291  1  0.36461961  0.00308207  0.75227615  1
  O  O292  1  0.36685084  0.49199234  0.25948387  1
  O  O293  1  0.36911030  0.50805605  0.75742991  1
  O  O294  1  0.87062596  0.00359652  0.25327281  1
  O  O295  1  0.85884167  -0.00462095  0.74932733  1
  O  O296  1  0.87168894  0.50330287  0.25559673  1
  O  O297  1  0.86569344  0.49448459  0.75811328  1
  O  O298  1  0.12106116  0.36731531  0.37099359  1
  O  O299  1  0.11808063  0.36905790  0.87379063  1
  O  O300  1  0.11772161  0.87232196  0.36564631  1
  O  O301  1  0.11799412  0.86979049  0.86938230  1
  O  O302  1  0.62695650  0.38027907  0.36116749  1
  O  O303  1  0.62190941  0.36951561  0.87004776  1
  O  O304  1  0.61033600  0.87615376  0.37572063  1
  O  O305  1  0.61818703  0.87205240  0.86870625  1
  O  O306  1  0.37790636  0.13197682  0.13336219  1
  O  O307  1  0.38935111  0.12085080  0.62396514  1
  O  O308  1  0.37640796  0.64086401  0.11892819  1
  O  O309  1  0.37950569  0.63063734  0.63274241  1
  O  O310  1  0.87413175  0.13533584  0.12954622  1
  O  O311  1  0.88223344  0.13215733  0.61599313  1
  O  O312  1  0.87629836  0.63099927  0.13302369  1
  O  O313  1  0.89014423  0.62259658  0.61821062  1
  O  O314  1  0.25843017  0.25223543  0.11742604  1
  O  O315  1  0.24061597  0.25884320  0.61744662  1
  O  O316  1  0.25611411  0.74605498  0.11335553  1
  O  O317  1  0.25449281  0.75510711  0.62250363  1
  O  O318  1  0.75945471  0.25752336  0.12651802  1
  O  O319  1  0.75310262  0.25546203  0.61917362  1
  O  O320  1  0.75525507  0.75348395  0.11716922  1
  O  O321  1  0.75147855  0.75895769  0.62477782  1
  O  O322  1  0.24410960  0.24718189  0.38526448  1
  O  O323  1  0.24354854  0.24648602  0.87955259  1
  O  O324  1  0.24893489  0.74309317  0.38507757  1
  O  O325  1  0.24390033  0.74630075  0.88400557  1
  O  O326  1  0.75758074  0.23995440  0.38253898  1
  O  O327  1  0.74195299  0.24697316  0.87122769  1
  O  O328  1  0.75056750  0.73664481  0.37416631  1
  O  O329  1  0.74431908  0.75182658  0.88226722  1
  O  O330  1  0.00893159  0.12374598  0.00169753  1
  O  O331  1  0.00469613  0.11667672  0.50437852  1
  O  O332  1  0.00735677  0.61917919  0.00123782  1
  O  O333  1  0.01076615  0.62198666  0.51002162  1
  O  O334  1  0.50057807  0.11515933  -0.00053623  1
  O  O335  1  0.50478884  0.12204507  0.50452304  1
  O  O336  1  0.50626643  0.62318251  0.00613590  1
  O  O337  1  0.50052447  0.61431556  0.50794831  1
  O  O338  1  0.50034363  0.38436314  0.50094729  1
  O  O339  1  0.49429143  0.37931602  0.99327382  1
  O  O340  1  0.49366448  0.87913790  0.49313010  1
  O  O341  1  0.49167111  0.88452138  0.99495734  1
  O  O342  1  0.99540284  0.37284986  0.49410224  1
  O  O343  1  0.99884444  0.38275769  0.99224376  1
  O  O344  1  0.99353717  0.87832976  0.49464110  1
  O  O345  1  0.98914408  0.87376435  0.99223310  1
  O  O346  1  0.49581176  0.49816955  0.38454679  1
  O  O347  1  0.49417033  0.49547684  0.87420770  1
  O  O348  1  0.49302194  0.99089879  0.37919558  1
  O  O349  1  0.49993340  0.99706445  0.88373108  1
  O  O350  1  0.99589320  0.49061954  0.37696041  1
  O  O351  1  0.99374578  0.49651907  0.87763981  1
  O  O352  1  0.99406851  0.99287442  0.37955188  1
  O  O353  1  0.99608043  0.99341017  0.87568465  1
  O  O354  1  0.01272442  0.00271885  0.12091448  1
  O  O355  1  0.00319627  0.00255199  0.61919677  1
  O  O356  1  0.00704076  0.50033658  0.11902923  1
  O  O357  1  0.00963147  0.50507189  0.62709131  1
  O  O358  1  0.50672149  0.00146221  0.11557313  1
  O  O359  1  0.50399797  0.00871438  0.61912710  1
  O  O360  1  0.51286953  0.50083938  0.12680887  1
  O  O361  1  0.50416525  0.50511659  0.62065407  1
  O  O362  1  0.24481026  0.38306228  0.25000117  1
  O  O363  1  0.24723094  0.38065896  0.74374477  1
  O  O364  1  0.23639990  0.87187822  0.25500475  1
  O  O365  1  0.24287124  0.87908614  0.74542478  1
  O  O366  1  0.74612610  0.37716538  0.24229302  1
  O  O367  1  0.74479839  0.38472398  0.74322556  1
  O  O368  1  0.74717700  0.88288731  0.24810431  1
  O  O369  1  0.74117562  0.88599079  0.74460369  1
  O  O370  1  0.26478257  0.12424002  0.25155585  1
  O  O371  1  0.24869431  0.12026209  0.75411855  1
  O  O372  1  0.24401603  0.60891410  0.25405140  1
  O  O373  1  0.25398966  0.62152656  0.75597847  1
  O  O374  1  0.75604489  0.11934213  0.25500977  1
  O  O375  1  0.74032772  0.11697723  0.75601440  1
  O  O376  1  0.75813577  0.61884076  0.25832537  1
  O  O377  1  0.74629554  0.61186310  0.74857246  1
  O  O378  1  0.37481771  0.11555814  0.36460294  1
  O  O379  1  0.36515111  0.12438885  0.87068100  1
  O  O380  1  0.37354693  0.60718354  0.38269364  1
  O  O381  1  0.36921145  0.62326495  0.87103145  1
  O  O382  1  0.86937263  0.11664117  0.36907921  1
  O  O383  1  0.86039623  0.12705189  0.87762611  1
  O  O384  1  0.87009709  0.61727143  0.37126789  1
  O  O385  1  0.87353835  0.61224092  0.87820452  1
  O  O386  1  0.12821973  0.38119322  0.13224463  1
  O  O387  1  0.13308657  0.38479884  0.62548700  1
  O  O388  1  0.11915820  0.88286834  0.13465344  1
  O  O389  1  0.12876741  0.87867851  0.62935783  1
  O  O390  1  0.63534906  0.38148087  0.13339909  1
  O  O391  1  0.63224286  0.38236922  0.63081137  1
  O  O392  1  0.62547925  0.88902949  0.12537188  1
  O  O393  1  0.62773022  0.88285183  0.62912332  1
  O  O394  1  0.12240711  0.25257796  0.25501947  1
  O  O395  1  0.11336608  0.25149885  0.75659901  1
  O  O396  1  0.12016963  0.75579570  0.24982810  1
  O  O397  1  0.11655044  0.75560934  0.75572312  1
  O  O398  1  0.61722260  0.25798977  0.24259351  1
  O  O399  1  0.61678531  0.25759526  0.75782626  1
  O  O400  1  0.61401933  0.75327071  0.25352489  1
  O  O401  1  0.61780398  0.75909727  0.75490857  1
  O  O402  1  0.38267006  0.24371056  0.24581254  1
  O  O403  1  0.39014262  0.25185548  0.75659433  1
  O  O404  1  0.38273926  0.75781221  0.23797138  1
  O  O405  1  0.37858928  0.74729909  0.74642143  1
  O  O406  1  0.88164178  0.24404456  0.24189980  1
  O  O407  1  0.88591424  0.25610200  0.74284429  1
  O  O408  1  0.88100537  0.74440705  0.24474112  1
  O  O409  1  0.88686873  0.75657117  0.74965355  1
  O  O410  1  0.38607528  0.49639506  0.49702427  1
  O  O411  1  0.37543012  0.49588350  0.99451698  1
  O  O412  1  0.37992327  0.99322139  0.49454988  1
  O  O413  1  0.38202641  0.99390998  1.00084556  1
  O  O414  1  0.87911245  0.48940806  0.49345722  1
  O  O415  1  0.88103618  0.49857816  0.99153637  1
  O  O416  1  0.87958613  0.99225359  0.49278764  1
  O  O417  1  0.87419291  0.98954073  0.99954852  1
  O  O418  1  0.12435323  0.00549805  0.00730332  1
  O  O419  1  0.11848875  0.00153208  0.50431619  1
  O  O420  1  0.12115602  0.50573892  0.00481102  1
  O  O421  1  0.12616194  0.50580612  0.51068045  1
  O  O422  1  0.61547149  0.00009519  0.00595282  1
  O  O423  1  0.61763635  0.01005615  0.50511963  1
  O  O424  1  0.62693698  0.50080952  0.01168662  1
  O  O425  1  0.61564848  0.50100976  0.50735065  1
  O  O426  1  0.37563102  0.36919000  0.11849700  1
  O  O427  1  0.36037930  0.38161172  0.62484770  1
  O  O428  1  0.37920531  0.86636173  0.11125902  1
  O  O429  1  0.36876303  0.86998205  0.61969744  1
  O  O430  1  0.86734101  0.36672667  0.12868074  1
  O  O431  1  0.86986028  0.36746365  0.61861706  1
  O  O432  1  0.87500062  0.86919868  0.11463467  1
  O  O433  1  0.86673265  0.87401134  0.61569481  1
  O  O434  1  0.12633813  0.12843191  0.38081313  1
  O  O435  1  0.13018877  0.13178221  0.88099378  1
  O  O436  1  0.12708276  0.62273411  0.38964327  1
  O  O437  1  0.13051794  0.63135579  0.88103805  1
  O  O438  1  0.62864593  0.11773772  0.38640959  1
  O  O439  1  0.63204654  0.13790373  0.87433019  1
  O  O440  1  0.63961587  0.62095519  0.37506371  1
  O  O441  1  0.62961547  0.63657983  0.87674459  1
