# generated using pymatgen
data_V93Zn93O256
_symmetry_space_group_name_H-M   'P 1'
_cell_length_a   17.06487059
_cell_length_b   17.06090720
_cell_length_c   17.05829481
_cell_angle_alpha   89.96353410
_cell_angle_beta   90.06315663
_cell_angle_gamma   89.94203949
_symmetry_Int_Tables_number   1
_chemical_formula_structural   V93Zn93O256
_chemical_formula_sum   'V93 Zn93 O256'
_cell_volume   4966.38246143
_cell_formula_units_Z   1
loop_
 _symmetry_equiv_pos_site_id
 _symmetry_equiv_pos_as_xyz
  1  'x, y, z'
loop_
 _atom_site_type_symbol
 _atom_site_label
 _atom_site_symmetry_multiplicity
 _atom_site_fract_x
 _atom_site_fract_y
 _atom_site_fract_z
 _atom_site_occupancy
  V  V0  1  0.37205847  0.61880479  0.75087934  1
  V  V1  1  0.12211880  0.25417262  0.87183562  1
  V  V2  1  0.12708337  0.75231067  0.87493844  1
  V  V3  1  0.87142024  0.50028277  0.36839635  1
  V  V4  1  0.62639094  0.87371272  0.75070375  1
  V  V5  1  -0.00309737  0.74735403  0.74907859  1
  V  V6  1  0.12567450  0.87562401  0.74986130  1
  V  V7  1  0.62656372  -0.00224926  0.62479917  1
  V  V8  1  0.12571493  0.25032892  0.37389654  1
  V  V9  1  0.74922795  0.00030333  0.24903174  1
  V  V10  1  0.37261793  0.50562301  0.37378051  1
  V  V11  1  0.62466571  0.12418507  0.49910680  1
  V  V12  1  0.62600382  0.49942443  0.13024205  1
  V  V13  1  0.25028903  0.74323113  0.49558855  1
  V  V14  1  0.62649481  0.49759881  0.62555906  1
  V  V15  1  0.62570928  0.62427510  0.49991020  1
  V  V16  1  0.74084249  0.12859731  0.87574885  1
  V  V17  1  -0.00002887  0.37570308  0.37430936  1
  V  V18  1  0.37568031  0.87484616  0.50035871  1
  V  V19  1  0.50033893  0.49828366  0.49879321  1
  V  V20  1  0.75348097  0.50897176  0.75559606  1
  V  V21  1  0.87457520  0.37415543  0.49970411  1
  V  V22  1  0.62595123  0.62538146  -0.00225687  1
  V  V23  1  0.37495029  0.12617826  0.24928773  1
  V  V24  1  0.87547176  0.12688584  0.24834474  1
  V  V25  1  0.62402244  0.24990821  0.37416725  1
  V  V26  1  0.49553600  0.49881035  -0.00228599  1
  V  V27  1  0.25437884  0.75021384  0.00563119  1
  V  V28  1  0.49865696  0.25009064  0.24889338  1
  V  V29  1  0.50071144  -0.00055372  0.49904616  1
  V  V30  1  0.00248511  0.50277722  0.50313310  1
  V  V31  1  0.00045513  0.87792694  0.87530481  1
  V  V32  1  0.24920436  0.37988985  0.63183042  1
  V  V33  1  0.25087321  0.87454074  0.62491469  1
  V  V34  1  0.49159504  0.62860720  0.12609718  1
  V  V35  1  0.25205976  0.25118571  0.50020235  1
  V  V36  1  0.87444969  0.12570759  0.74856789  1
  V  V37  1  0.37599741  0.12679394  0.74866428  1
  V  V38  1  0.87498936  0.00336143  0.87528975  1
  V  V39  1  0.63037794  0.74614246  0.87672799  1
  V  V40  1  0.50077836  0.74918624  0.75031214  1
  V  V41  1  0.87530551  0.87413488  0.49973404  1
  V  V42  1  0.24958602  0.50704238  0.25448470  1
  V  V43  1  0.24967010  0.37569544  0.12503063  1
  V  V44  1  0.62392732  0.36835072  0.75259370  1
  V  V45  1  0.87432823  0.75322977  0.12799725  1
  V  V46  1  0.50084998  0.87374423  0.37437069  1
  V  V47  1  0.74896784  0.62061050  0.36690257  1
  V  V48  1  0.74948583  0.87578766  0.12478497  1
  V  V49  1  0.75145172  0.74964989  0.49962646  1
  V  V50  1  0.00000394  0.75135102  0.25107169  1
  V  V51  1  0.12233183  0.12619125  -0.00000265  1
  V  V52  1  0.87700165  0.74343146  0.62626400  1
  V  V53  1  0.62445649  0.74928430  0.37476215  1
  V  V54  1  0.12451652  0.37637662  0.24883057  1
  V  V55  1  0.49939126  0.87416944  0.87618424  1
  V  V56  1  0.37572590  0.75001689  0.62488237  1
  V  V57  1  0.74980668  0.12446378  0.37404326  1
  V  V58  1  0.12813299  0.74453923  0.37537923  1
  V  V59  1  0.24997451  0.12475291  0.87556116  1
  V  V60  1  0.87613779  0.24804729  0.62307464  1
  V  V61  1  0.24943833  -0.00047229  0.24985912  1
  V  V62  1  0.49341877  0.74931620  0.24716415  1
  V  V63  1  0.87541968  0.00023179  0.37464796  1
  V  V64  1  0.00083177  0.87481061  0.37420403  1
  V  V65  1  0.63068487  0.37871863  0.25005345  1
  V  V66  1  0.00040611  0.12463189  0.62489797  1
  V  V67  1  0.74249148  0.25464465  -0.00057989  1
  V  V68  1  -0.00141134  0.12750727  0.12278402  1
  V  V69  1  0.87454820  0.87762235  0.00159668  1
  V  V70  1  0.75041695  0.24989668  0.49995083  1
  V  V71  1  0.37486784  -0.00190288  0.87546751  1
  V  V72  1  0.37566666  0.87241177  0.00279838  1
  V  V73  1  0.24848922  0.25065091  0.00157762  1
  V  V74  1  0.49964099  0.12476684  0.62503877  1
  V  V75  1  0.25350370  0.62070279  0.87330609  1
  V  V76  1  0.25023325  -0.00102949  0.74966876  1
  V  V77  1  0.50028751  0.62428869  0.62554239  1
  V  V78  1  0.37358962  0.25077596  0.12567730  1
  V  V79  1  0.12588923  0.62586621  0.00174156  1
  V  V80  1  0.12494003  0.00050608  0.62432063  1
  V  V81  1  0.37488647  -0.00000579  0.37474005  1
  V  V82  1  0.12221687  0.50180849  0.12368690  1
  V  V83  1  -0.00017297  0.25081044  0.24742772  1
  V  V84  1  0.62338569  0.00274016  0.12251450  1
  V  V85  1  0.00010416  0.00421244  0.00025519  1
  V  V86  1  0.75029617  -0.00170789  0.75050697  1
  V  V87  1  0.24945895  0.12512973  0.37492550  1
  V  V88  1  0.00104561  0.00001334  0.49983158  1
  V  V89  1  0.49932158  0.37543195  0.37516752  1
  V  V90  1  0.25155993  0.87499678  0.12607304  1
  V  V91  1  0.00069001  0.62708305  0.12618050  1
  V  V92  1  0.50103475  0.36672161  0.87443800  1
  Zn  Zn93  1  0.75184903  0.87349928  0.62585699  1
  Zn  Zn94  1  0.87289479  0.62445215  0.25012926  1
  Zn  Zn95  1  0.75244095  0.74698908  0.00037690  1
  Zn  Zn96  1  0.00171635  0.25376561  0.74815681  1
  Zn  Zn97  1  0.75146689  0.37355036  0.62727329  1
  Zn  Zn98  1  0.75280248  0.37755693  0.12897162  1
  Zn  Zn99  1  0.37531848  0.37550425  0.50042860  1
  Zn  Zn100  1  0.87290448  0.38534273  -0.00485616  1
  Zn  Zn101  1  0.37127609  0.49524719  0.86937185  1
  Zn  Zn102  1  0.61784818  0.12893657  -0.00539666  1
  Zn  Zn103  1  0.50661191  0.24519945  0.75292601  1
  Zn  Zn104  1  0.80446746  0.57236432  0.92161341  1
  Zn  Zn105  1  0.12820260  0.62237523  0.49938122  1
  Zn  Zn106  1  0.49863792  0.12506790  0.12190596  1
  Zn  Zn107  1  0.62365095  0.87463657  0.24888894  1
  Zn  Zn108  1  0.12391195  0.00124168  0.12595897  1
  Zn  Zn109  1  0.37429643  0.37356508  -0.00219443  1
  Zn  Zn110  1  0.00402086  0.62308062  0.62644709  1
  Zn  Zn111  1  0.87372629  0.25787181  0.12457936  1
  Zn  Zn112  1  -0.01057951  0.39080376  0.86851355  1
  Zn  Zn113  1  0.12491888  0.87646805  0.24953239  1
  Zn  Zn114  1  0.12540083  0.12463530  0.49988170  1
  Zn  Zn115  1  0.13276362  0.50761599  0.63084331  1
  Zn  Zn116  1  0.49953252  0.00162444  0.00124455  1
  Zn  Zn117  1  0.36843460  0.62992704  0.25006318  1
  Zn  Zn118  1  0.12353802  0.38260829  0.75260465  1
  Zn  Zn119  1  -0.01409034  0.50884198  -0.01213655  1
  Zn  Zn120  1  0.37790596  0.25224228  0.62405821  1
  Zn  Zn121  1  0.91959922  0.57456734  0.80523147  1
  Zn  Zn122  1  0.18621471  0.18704859  0.18681233  1
  Zn  Zn123  1  0.18857988  0.18950832  0.68655900  1
  Zn  Zn124  1  0.18502733  0.69005162  0.18836650  1
  Zn  Zn125  1  0.18674373  0.68627086  0.68565869  1
  Zn  Zn126  1  0.68689189  0.18903272  0.18499918  1
  Zn  Zn127  1  0.68975676  0.18518985  0.68551558  1
  Zn  Zn128  1  0.68166420  0.68982460  0.18585206  1
  Zn  Zn129  1  0.68848434  0.68873027  0.68598420  1
  Zn  Zn130  1  0.31263285  0.31661545  0.31266941  1
  Zn  Zn131  1  0.31369547  0.31135514  0.81532142  1
  Zn  Zn132  1  0.31261712  0.81347194  0.31373164  1
  Zn  Zn133  1  0.31336829  0.80895296  0.81346606  1
  Zn  Zn134  1  0.81343473  0.31137713  0.31388834  1
  Zn  Zn135  1  0.80781647  0.31564169  0.81047656  1
  Zn  Zn136  1  0.81127333  0.81258640  0.31196728  1
  Zn  Zn137  1  0.81451081  0.80937866  0.81430354  1
  Zn  Zn138  1  0.18794413  0.43630939  0.43896639  1
  Zn  Zn139  1  0.18422500  0.43721533  0.94016808  1
  Zn  Zn140  1  0.18683500  0.93368849  0.43724249  1
  Zn  Zn141  1  0.18708411  0.93947916  0.93854083  1
  Zn  Zn142  1  0.68849209  0.43628540  0.43714200  1
  Zn  Zn143  1  0.67971091  0.43509033  0.93660895  1
  Zn  Zn144  1  0.68819684  0.93554007  0.43666168  1
  Zn  Zn145  1  0.68792803  0.93762862  0.93853946  1
  Zn  Zn146  1  0.31140480  0.06200867  0.06308358  1
  Zn  Zn147  1  0.31213605  0.06293460  0.56195130  1
  Zn  Zn148  1  0.31011730  0.56043316  0.06383167  1
  Zn  Zn149  1  0.31647464  0.56163012  0.56130734  1
  Zn  Zn150  1  0.81105966  0.06794326  0.06077107  1
  Zn  Zn151  1  0.81243091  0.06144535  0.56231176  1
  Zn  Zn152  1  0.81330705  0.56023265  0.08071474  1
  Zn  Zn153  1  0.81305479  0.56176677  0.56017932  1
  Zn  Zn154  1  0.43755633  0.43720366  0.18832506  1
  Zn  Zn155  1  0.43696400  0.43372666  0.68608996  1
  Zn  Zn156  1  0.43723564  0.93709309  0.18749046  1
  Zn  Zn157  1  0.43933890  0.93772187  0.68796088  1
  Zn  Zn158  1  0.93762860  0.43721331  0.18231844  1
  Zn  Zn159  1  0.93919945  0.43179820  0.68581384  1
  Zn  Zn160  1  0.93810191  0.93975473  0.18768714  1
  Zn  Zn161  1  0.93661541  0.93540712  0.68639515  1
  Zn  Zn162  1  0.06388013  0.06306198  0.31092715  1
  Zn  Zn163  1  0.06222037  0.06653159  0.81187507  1
  Zn  Zn164  1  0.06059641  0.56356151  0.31284659  1
  Zn  Zn165  1  0.08102287  0.55814601  0.81241388  1
  Zn  Zn166  1  0.56215372  0.06235604  0.30931206  1
  Zn  Zn167  1  0.56065818  0.05762960  0.81156897  1
  Zn  Zn168  1  0.55981215  0.56348728  0.31208745  1
  Zn  Zn169  1  0.56208725  0.55934361  0.81269010  1
  Zn  Zn170  1  0.43691605  0.18747300  0.43624393  1
  Zn  Zn171  1  0.43583358  0.18660831  0.94006484  1
  Zn  Zn172  1  0.43816740  0.68651048  0.43673782  1
  Zn  Zn173  1  0.43902346  0.68805696  0.93694825  1
  Zn  Zn174  1  0.93909346  0.18673144  0.43697749  1
  Zn  Zn175  1  0.91654038  0.22182498  0.92011661  1
  Zn  Zn176  1  0.93736612  0.68610863  0.43648614  1
  Zn  Zn177  1  0.93976038  0.69360855  0.94129884  1
  Zn  Zn178  1  0.05649925  0.31956992  0.05601608  1
  Zn  Zn179  1  0.06486085  0.31302737  0.56177925  1
  Zn  Zn180  1  0.06389819  0.81408756  0.06304358  1
  Zn  Zn181  1  0.06348074  0.81234464  0.56162083  1
  Zn  Zn182  1  0.56217081  0.31247473  0.06392843  1
  Zn  Zn183  1  0.56136102  0.31082428  0.56389423  1
  Zn  Zn184  1  0.56238186  0.81309840  0.06434144  1
  Zn  Zn185  1  0.56379990  0.81205777  0.56250041  1
  O  O186  1  0.11774863  0.12479794  0.11791298  1
  O  O187  1  0.11985367  0.11750815  0.62395424  1
  O  O188  1  0.12018926  0.62251101  0.12021564  1
  O  O189  1  0.12211809  0.62424213  0.61729526  1
  O  O190  1  0.62312796  0.11235723  0.12555388  1
  O  O191  1  0.61983089  0.11757210  0.61873979  1
  O  O192  1  0.61417696  0.61859683  0.11769863  1
  O  O193  1  0.61957106  0.61667864  0.62005230  1
  O  O194  1  0.38247672  0.38591458  0.37533936  1
  O  O195  1  0.38360974  0.37927401  0.87636952  1
  O  O196  1  0.38122373  0.88116952  0.38150994  1
  O  O197  1  0.37872755  0.87832994  0.88216322  1
  O  O198  1  0.87938692  0.38187562  0.37961682  1
  O  O199  1  0.88610765  0.33892933  0.88650097  1
  O  O200  1  0.88043061  0.88079509  0.38015106  1
  O  O201  1  0.88110417  0.88166085  0.88102402  1
  O  O202  1  0.25602447  0.00353928  0.37098917  1
  O  O203  1  0.25508083  0.00453917  0.86875477  1
  O  O204  1  0.25880112  0.49265879  0.36505446  1
  O  O205  1  0.25310061  0.51747153  0.88543193  1
  O  O206  1  0.75525927  0.00536854  0.37011175  1
  O  O207  1  0.75634104  0.00645910  0.87012346  1
  O  O208  1  0.75929303  0.50963301  0.38307999  1
  O  O209  1  0.74153550  0.49821879  0.86017330  1
  O  O210  1  0.24339695  0.49473410  0.13322496  1
  O  O211  1  0.25261275  0.48228683  0.61303235  1
  O  O212  1  0.24825265  0.99161774  0.13083751  1
  O  O213  1  0.24569056  0.99380950  0.62991073  1
  O  O214  1  0.72963283  0.49756413  0.12334517  1
  O  O215  1  0.73919271  0.49868354  0.63034660  1
  O  O216  1  0.74336570  0.99622161  0.12983105  1
  O  O217  1  0.74399195  0.99783161  0.63139914  1
  O  O218  1  0.00556068  0.37075241  0.25470251  1
  O  O219  1  0.00436288  0.36963511  0.75350092  1
  O  O220  1  0.00111960  0.86955741  0.25631430  1
  O  O221  1  0.00655616  0.86924944  0.75564193  1
  O  O222  1  0.50807823  0.36888255  0.25593038  1
  O  O223  1  0.50631058  0.37338109  0.75702281  1
  O  O224  1  0.49920246  0.86598470  0.25618441  1
  O  O225  1  0.50571479  0.86859992  0.75539716  1
  O  O226  1  0.49178843  0.13258148  0.24961591  1
  O  O227  1  0.49190109  0.12309067  0.74523864  1
  O  O228  1  0.49931398  0.63248126  0.24162079  1
  O  O229  1  0.49351265  0.63014931  0.74509044  1
  O  O230  1  0.99552869  0.13138108  0.24425943  1
  O  O231  1  0.99229035  0.12662181  0.74186548  1
  O  O232  1  0.99919856  0.63441690  0.24408478  1
  O  O233  1  1.00405214  0.64020875  0.74933220  1
  O  O234  1  0.36576615  0.25087529  0.00736486  1
  O  O235  1  0.36419795  0.25101152  0.49904206  1
  O  O236  1  0.36546028  0.76090319  -0.00649915  1
  O  O237  1  0.37009685  0.75494214  0.50395897  1
  O  O238  1  0.85225143  0.24204622  0.00996597  1
  O  O239  1  0.86999617  0.25411237  0.50223224  1
  O  O240  1  0.87365495  0.76026251  0.01057529  1
  O  O241  1  0.87182172  0.75511782  0.50598823  1
  O  O242  1  0.13532612  0.24829263  0.49202754  1
  O  O243  1  0.13010690  0.24552336  0.99296173  1
  O  O244  1  0.13461435  0.75198926  0.49252511  1
  O  O245  1  0.13472087  0.74677409  0.99477120  1
  O  O246  1  0.62941850  0.24358582  0.49408209  1
  O  O247  1  0.63681653  0.24643607  1.00613210  1
  O  O248  1  0.62998740  0.74348258  0.49519367  1
  O  O249  1  0.62291634  0.74118728  0.99368135  1
  O  O250  1  0.49184252  0.24946966  0.13182328  1
  O  O251  1  0.49702573  0.24002016  0.62837671  1
  O  O252  1  0.50579859  0.74102982  0.13536235  1
  O  O253  1  0.49559241  0.74385648  0.62945823  1
  O  O254  1  0.99877826  0.24593674  0.13051517  1
  O  O255  1  0.99398400  0.24226752  0.62221045  1
  O  O256  1  0.99559940  0.74765006  0.13090574  1
  O  O257  1  0.99421490  0.75190697  0.63285085  1
  O  O258  1  0.00529328  0.25595534  0.36898634  1
  O  O259  1  0.01801581  0.24116561  0.87175124  1
  O  O260  1  0.00652070  0.75589908  0.37132787  1
  O  O261  1  0.00758711  0.75891445  0.86773475  1
  O  O262  1  0.50544193  0.25497028  0.36994227  1
  O  O263  1  0.49451044  0.26250873  0.87391047  1
  O  O264  1  0.50562008  0.75381538  0.36957874  1
  O  O265  1  0.50857545  0.75537639  0.86990379  1
  O  O266  1  0.24938232  0.13341760  0.49357400  1
  O  O267  1  0.24373783  0.13003164  0.99507533  1
  O  O268  1  0.25282046  0.64054768  0.50433587  1
  O  O269  1  0.24883442  0.63500104  0.99592862  1
  O  O270  1  0.74410740  0.12879912  0.49334298  1
  O  O271  1  0.74316674  0.13122845  0.99120146  1
  O  O272  1  0.74423436  0.63040151  0.49120125  1
  O  O273  1  0.73401603  0.62513246  1.00489664  1
  O  O274  1  0.25113446  0.36927788  0.00779964  1
  O  O275  1  0.25200697  0.36366750  0.50542291  1
  O  O276  1  0.25607152  0.86894234  0.00518905  1
  O  O277  1  0.25764080  0.86761320  0.50604477  1
  O  O278  1  0.74563688  0.36182748  -0.00388249  1
  O  O279  1  0.75579555  0.36714193  0.50096241  1
  O  O280  1  0.75764323  0.87418320  0.00706194  1
  O  O281  1  0.75707921  0.86726018  0.49984866  1
  O  O282  1  0.13142749  0.49618149  0.24659392  1
  O  O283  1  0.13470268  0.49502794  0.74273042  1
  O  O284  1  0.13406251  0.99661205  0.24833850  1
  O  O285  1  0.13091272  0.99493003  0.74507035  1
  O  O286  1  0.61457498  0.49007354  0.24198271  1
  O  O287  1  0.63018012  0.49242020  0.74142991  1
  O  O288  1  0.63113027  0.99785741  0.24195906  1
  O  O289  1  0.63027514  0.99246784  0.74406129  1
  O  O290  1  0.36951126  0.00528676  0.25610296  1
  O  O291  1  0.37024533  0.00658762  0.75477171  1
  O  O292  1  0.36630067  0.50027852  0.25652191  1
  O  O293  1  0.38101138  0.51592093  0.74900688  1
  O  O294  1  0.86947478  0.00662563  0.25642275  1
  O  O295  1  0.87018681  0.00473025  0.75510974  1
  O  O296  1  0.88021195  0.50068293  0.26529221  1
  O  O297  1  0.85772930  0.49816132  0.74251164  1
  O  O298  1  0.11922464  0.37006805  0.36824348  1
  O  O299  1  0.12803327  0.36340830  0.87373637  1
  O  O300  1  0.11802718  0.86500473  0.37375126  1
  O  O301  1  0.12101062  0.87176747  0.86970646  1
  O  O302  1  0.61958856  0.37059992  0.36863532  1
  O  O303  1  0.61212338  0.38040455  0.86262528  1
  O  O304  1  0.61801772  0.86787432  0.37412971  1
  O  O305  1  0.61854102  0.86742846  0.87107714  1
  O  O306  1  0.37332499  0.13201812  0.13262128  1
  O  O307  1  0.38081725  0.12196924  0.63447812  1
  O  O308  1  0.38861110  0.61943325  0.12655385  1
  O  O309  1  0.38014374  0.63048335  0.63214191  1
  O  O310  1  0.88145848  0.12532986  0.13361715  1
  O  O311  1  0.88053828  0.12799288  0.62851159  1
  O  O312  1  0.88106439  0.63428850  0.13152763  1
  O  O313  1  0.87834758  0.63978705  0.61940459  1
  O  O314  1  0.25345814  0.25618710  0.12134960  1
  O  O315  1  0.25324730  0.25595293  0.61448127  1
  O  O316  1  0.24587168  0.75857967  0.11375137  1
  O  O317  1  0.25651419  0.75674077  0.61725987  1
  O  O318  1  0.74853320  0.25420623  0.11442615  1
  O  O319  1  0.75711369  0.24903264  0.61578957  1
  O  O320  1  0.75474235  0.75723265  0.12515139  1
  O  O321  1  0.75883013  0.75088140  0.61906790  1
  O  O322  1  0.24589085  0.24628054  0.38051939  1
  O  O323  1  0.24416642  0.24356116  0.88159529  1
  O  O324  1  0.24137161  0.75825410  0.38475560  1
  O  O325  1  0.24637405  0.74419089  0.88556224  1
  O  O326  1  0.74376684  0.24332574  0.38042907  1
  O  O327  1  0.74994942  0.23897376  0.88691451  1
  O  O328  1  0.74496081  0.74157811  0.38008063  1
  O  O329  1  0.73348077  0.75569655  0.87839651  1
  O  O330  1  0.00545488  0.12016477  0.00625403  1
  O  O331  1  0.00199425  0.11720184  0.50569784  1
  O  O332  1  0.00874439  0.62809886  0.00806348  1
  O  O333  1  0.00034466  0.61292014  0.49922556  1
  O  O334  1  0.50188984  0.12000939  0.00308346  1
  O  O335  1  0.50526583  0.11850609  0.50350197  1
  O  O336  1  0.50550990  0.61936280  0.00693517  1
  O  O337  1  0.50612245  0.61902405  0.50612876  1
  O  O338  1  0.50035000  0.38087388  0.49332468  1
  O  O339  1  0.50142646  0.38309972  0.99204611  1
  O  O340  1  0.49499125  0.87967734  0.49506091  1
  O  O341  1  0.48863585  0.87337325  0.99609482  1
  O  O342  1  0.99496884  0.38184330  0.49336058  1
  O  O343  1  0.99659826  0.39041803  0.99117514  1
  O  O344  1  0.99485205  0.88087155  0.49404139  1
  O  O345  1  0.99553259  0.88241331  0.99462332  1
  O  O346  1  0.49398856  0.49451536  0.37964277  1
  O  O347  1  0.49796177  0.49270089  0.88448123  1
  O  O348  1  0.49504544  0.99474786  0.37974946  1
  O  O349  1  0.49255191  0.99062878  0.87669461  1
  O  O350  1  0.99215436  0.49509080  0.38226859  1
  O  O351  1  0.99364872  0.51004358  0.86832613  1
  O  O352  1  0.99462857  0.99579423  0.37935997  1
  O  O353  1  0.99438812  0.99696647  0.87918792  1
  O  O354  1  0.00158509  0.00758757  0.11840273  1
  O  O355  1  0.00525269  0.00393988  0.61964366  1
  O  O356  1  0.00730163  0.51122204  0.12663440  1
  O  O357  1  -0.00236463  0.50065673  0.61209842  1
  O  O358  1  0.50965615  0.00023704  0.12483571  1
  O  O359  1  0.50645668  0.00419215  0.61850157  1
  O  O360  1  0.50687601  0.50627849  0.11742111  1
  O  O361  1  0.50865264  0.50423366  0.62012174  1
  O  O362  1  0.24311974  0.38396858  0.24441123  1
  O  O363  1  0.25486803  0.36766474  0.73317614  1
  O  O364  1  0.25297726  0.87947111  0.23994882  1
  O  O365  1  0.24621934  0.87857155  0.74518654  1
  O  O366  1  0.73372475  0.36915695  0.25191699  1
  O  O367  1  0.73974914  0.38509897  0.74723173  1
  O  O368  1  0.74833358  0.88274926  0.24373995  1
  O  O369  1  0.74397828  0.88054343  0.75034920  1
  O  O370  1  0.25529006  0.12018729  0.25573238  1
  O  O371  1  0.25830554  0.11800964  0.75382194  1
  O  O372  1  0.25065189  0.61138942  0.24258316  1
  O  O373  1  0.26115985  0.63714724  0.76177854  1
  O  O374  1  0.75479477  0.12079097  0.25595249  1
  O  O375  1  0.75393685  0.11823021  0.75587923  1
  O  O376  1  0.74722150  0.62939101  0.26373836  1
  O  O377  1  0.74090662  0.60732120  0.74612893  1
  O  O378  1  0.36921246  0.11876549  0.36923551  1
  O  O379  1  0.36971348  0.11841785  0.86731245  1
  O  O380  1  0.38197569  0.60968580  0.37149088  1
  O  O381  1  0.36980721  0.62601146  0.86717225  1
  O  O382  1  0.86969081  0.11978700  0.36921912  1
  O  O383  1  0.86414593  0.12214043  0.86738557  1
  O  O384  1  0.86557309  0.61764676  0.37366332  1
  O  O385  1  0.86615001  0.64901833  0.86998618  1
  O  O386  1  0.12909067  0.38193861  0.13035476  1
  O  O387  1  0.14148493  0.37286652  0.62443175  1
  O  O388  1  0.13903051  0.87818103  0.12514478  1
  O  O389  1  0.13118170  0.88052060  0.63066560  1
  O  O390  1  0.62240629  0.38368893  0.13465570  1
  O  O391  1  0.62376237  0.38497941  0.63172924  1
  O  O392  1  0.63087623  0.88409459  0.12646980  1
  O  O393  1  0.62682139  0.87971177  0.63195747  1
  O  O394  1  0.11994371  0.25656102  0.25487620  1
  O  O395  1  0.12723275  0.25176525  0.76038141  1
  O  O396  1  0.12029605  0.75414642  0.25902410  1
  O  O397  1  0.11783149  0.75712793  0.75438029  1
  O  O398  1  0.61839677  0.25702184  0.25554564  1
  O  O399  1  0.62612540  0.26414660  0.74152072  1
  O  O400  1  0.61273523  0.75170025  0.25742068  1
  O  O401  1  0.62022489  0.75268120  0.75710519  1
  O  O402  1  0.37854744  0.24591851  0.24604174  1
  O  O403  1  0.37545267  0.23338466  0.75011853  1
  O  O404  1  0.38839593  0.74636563  0.25896447  1
  O  O405  1  0.38195655  0.74282536  0.74429335  1
  O  O406  1  0.88194489  0.24466422  0.24936854  1
  O  O407  1  0.87252013  0.24140081  0.73953115  1
  O  O408  1  0.88228795  0.75016433  0.24515947  1
  O  O409  1  0.88726355  0.76003446  0.73972909  1
  O  O410  1  0.38259842  0.49874058  0.49043050  1
  O  O411  1  0.38741252  0.49877730  1.00026110  1
  O  O412  1  0.38094479  0.99483598  0.49486694  1
  O  O413  1  0.37259448  0.98834655  0.99332905  1
  O  O414  1  0.88198881  0.49419550  0.49119670  1
  O  O415  1  0.86569342  0.50604107  0.99599659  1
  O  O416  1  0.88047864  0.99491394  0.49380887  1
  O  O417  1  0.88019983  0.99708252  0.99413171  1
  O  O418  1  0.11820965  0.00815793  -0.00034537  1
  O  O419  1  0.11950124  -0.00026108  0.50633033  1
  O  O420  1  0.12767060  0.51154112  0.00826318  1
  O  O421  1  0.11419649  0.50038772  0.49980444  1
  O  O422  1  0.62302246  0.00029931  0.01111534  1
  O  O423  1  0.62015170  0.00455149  0.50381627  1
  O  O424  1  0.61374598  0.50706017  0.00622931  1
  O  O425  1  0.62114366  0.50375851  0.50777387  1
  O  O426  1  0.36792065  0.36860007  0.12428437  1
  O  O427  1  0.36560354  0.37119575  0.62069694  1
  O  O428  1  0.36371818  0.88016182  0.11392802  1
  O  O429  1  0.37162146  0.86973908  0.62033772  1
  O  O430  1  0.86812858  0.37673554  0.11778748  1
  O  O431  1  0.87264290  0.36606629  0.61592037  1
  O  O432  1  0.86960024  0.87284130  0.12063293  1
  O  O433  1  0.87414635  0.86513679  0.61699837  1
  O  O434  1  0.13215713  0.13223967  0.37550720  1
  O  O435  1  0.13297075  0.13078115  0.87959543  1
  O  O436  1  0.12035751  0.64049271  0.37807313  1
  O  O437  1  0.13676394  0.63388155  0.88143668  1
  O  O438  1  0.62959228  0.12971760  0.37953618  1
  O  O439  1  0.63713348  0.11678156  0.87261280  1
  O  O440  1  0.63067463  0.62770123  0.38075143  1
  O  O441  1  0.61513818  0.63347732  0.88652700  1
