# generated using pymatgen
data_V93Zn93O256
_symmetry_space_group_name_H-M   'P 1'
_cell_length_a   17.05080822
_cell_length_b   17.05179940
_cell_length_c   17.05528759
_cell_angle_alpha   89.98263696
_cell_angle_beta   89.94192648
_cell_angle_gamma   89.93098599
_symmetry_Int_Tables_number   1
_chemical_formula_structural   V93Zn93O256
_chemical_formula_sum   'V93 Zn93 O256'
_cell_volume   4958.76666927
_cell_formula_units_Z   1
loop_
 _symmetry_equiv_pos_site_id
 _symmetry_equiv_pos_as_xyz
  1  'x, y, z'
loop_
 _atom_site_type_symbol
 _atom_site_label
 _atom_site_symmetry_multiplicity
 _atom_site_fract_x
 _atom_site_fract_y
 _atom_site_fract_z
 _atom_site_occupancy
  V  V0  1  0.25699188  0.37033555  0.12509210  1
  V  V1  1  0.62547687  0.49910376  0.12556592  1
  V  V2  1  0.49920066  0.00094485  0.00007781  1
  V  V3  1  0.87548394  0.00029736  0.87565556  1
  V  V4  1  0.87583209  0.37427252  0.49974288  1
  V  V5  1  0.37398899  0.12612155  0.74969236  1
  V  V6  1  0.74998681  0.12478108  0.37386462  1
  V  V7  1  0.62565961  0.62559274  -0.00009474  1
  V  V8  1  0.50160787  0.74974748  0.25030994  1
  V  V9  1  0.49251529  0.12823222  0.12468397  1
  V  V10  1  0.24678947  -0.00083217  0.74970676  1
  V  V11  1  0.74924494  0.75032970  0.49996995  1
  V  V12  1  0.75063138  0.37415537  0.12456955  1
  V  V13  1  0.00102784  0.49909755  -0.00055332  1
  V  V14  1  0.62301950  0.00066449  0.12593188  1
  V  V15  1  0.50071248  0.49851487  0.50189646  1
  V  V16  1  0.25213853  0.87306155  0.61947939  1
  V  V17  1  0.62395601  0.50096155  0.62476226  1
  V  V18  1  0.87600138  0.62467342  0.25058158  1
  V  V19  1  0.12532237  0.25024221  0.37522222  1
  V  V20  1  0.12355688  0.87603630  0.24488572  1
  V  V21  1  0.49989017  0.37388202  0.37512750  1
  V  V22  1  0.49920587  0.49911289  -0.00012035  1
  V  V23  1  0.62587517  0.37410616  0.24946962  1
  V  V24  1  0.12576106  0.50041345  0.12473704  1
  V  V25  1  0.12964123  0.63227585  0.50028068  1
  V  V26  1  0.62431563  0.12519886  0.50013734  1
  V  V27  1  -0.00169136  0.87469209  0.37575537  1
  V  V28  1  0.75064021  0.37490613  0.62575902  1
  V  V29  1  0.00062855  0.24570508  0.24236064  1
  V  V30  1  0.74972499  0.24958142  0.50018194  1
  V  V31  1  0.25033201  0.62860378  0.37786862  1
  V  V32  1  0.00105600  0.49984948  0.50092652  1
  V  V33  1  0.49919084  0.87459325  0.87466028  1
  V  V34  1  0.24985845  0.49989962  0.75149353  1
  V  V35  1  0.00052017  0.62453802  0.12480754  1
  V  V36  1  0.50034004  0.62407445  0.12465887  1
  V  V37  1  0.37194103  0.75122725  0.62013025  1
  V  V38  1  0.37285120  0.62550336  0.75179272  1
  V  V39  1  0.75035154  0.74957044  -0.00051638  1
  V  V40  1  0.62235730  0.87499026  0.25426744  1
  V  V41  1  0.62486472  0.87418482  0.75074781  1
  V  V42  1  0.74908177  0.00061977  0.25006702  1
  V  V43  1  0.49288334  -0.00644400  0.49803816  1
  V  V44  1  0.49928972  0.24996277  0.75084563  1
  V  V45  1  0.74995222  0.62399369  0.87538198  1
  V  V46  1  0.87687236  0.37535721  0.00006719  1
  V  V47  1  0.00034819  0.37456572  0.37454127  1
  V  V48  1  0.74977640  0.87472355  0.62509684  1
  V  V49  1  0.00073105  0.00538045  0.00651473  1
  V  V50  1  0.00003643  0.74940497  0.75083086  1
  V  V51  1  0.87440999  0.87504236  0.00054464  1
  V  V52  1  0.37417153  0.00040116  0.87468541  1
  V  V53  1  0.00087429  0.62540116  0.62618819  1
  V  V54  1  0.12230057  0.12873652  0.00353952  1
  V  V55  1  0.12872823  0.37181520  0.75049471  1
  V  V56  1  0.87593150  0.74973842  0.62593673  1
  V  V57  1  0.13147710  0.74624295  0.87428453  1
  V  V58  1  0.87473995  0.74980296  0.12402430  1
  V  V59  1  0.37515903  0.49976072  0.37627948  1
  V  V60  1  0.49946534  0.12506926  0.62451898  1
  V  V61  1  0.74891601  0.12522129  0.87542604  1
  V  V62  1  0.25302794  0.12532433  0.37617228  1
  V  V63  1  0.24991166  0.49984682  0.25018832  1
  V  V64  1  0.37234715  0.75135707  0.12081082  1
  V  V65  1  0.62463556  -0.00005848  0.62413042  1
  V  V66  1  0.37046030  0.50384583  0.87716254  1
  V  V67  1  0.25131729  0.00153099  0.24714301  1
  V  V68  1  0.00050231  0.87402493  0.87491797  1
  V  V69  1  0.12383739  0.12662505  0.50041956  1
  V  V70  1  0.25150675  0.25078364  0.00095476  1
  V  V71  1  0.87811357  0.12480672  0.24390948  1
  V  V72  1  0.36808901  0.37493389  0.50408566  1
  V  V73  1  0.62449003  0.24985555  0.37511598  1
  V  V74  1  -0.00194816  0.00019726  0.50030816  1
  V  V75  1  0.87560629  0.50008534  0.37520381  1
  V  V76  1  0.87550203  0.24943909  0.62495928  1
  V  V77  1  0.00360341  0.25027912  0.75183964  1
  V  V78  1  0.00036147  0.12415065  0.62554340  1
  V  V79  1  0.49938175  0.37355107  0.87475102  1
  V  V80  1  0.13074900  0.49549387  0.62492119  1
  V  V81  1  0.87593435  0.12516393  0.75084931  1
  V  V82  1  0.00506348  0.37106969  0.87517877  1
  V  V83  1  0.75168321  0.49989307  0.75096800  1
  V  V84  1  0.12510585  0.37493121  0.24983135  1
  V  V85  1  0.36865608  0.25407374  0.62439383  1
  V  V86  1  0.13210448  0.62582812  -0.00394712  1
  V  V87  1  0.00060842  0.75012825  0.25070565  1
  V  V88  1  0.37528242  0.62333123  0.24970259  1
  V  V89  1  0.49315853  0.24871018  0.24593842  1
  V  V90  1  0.74936549  0.24993602  0.00021199  1
  V  V91  1  0.74914324  0.62523300  0.37526546  1
  V  V92  1  0.24330079  0.13234456  0.87425850  1
  Zn  Zn93  1  0.37071875  -0.01089577  0.37987847  1
  Zn  Zn94  1  0.87992505  0.24730741  0.12237219  1
  Zn  Zn95  1  0.24701405  0.25330994  0.50331037  1
  Zn  Zn96  1  0.62397926  0.74879595  0.87511707  1
  Zn  Zn97  1  0.87423303  0.87607002  0.49998990  1
  Zn  Zn98  1  0.62557987  0.37274018  0.75078518  1
  Zn  Zn99  1  0.75079290  0.49853457  0.24988015  1
  Zn  Zn100  1  0.12174692  0.00639890  0.12626319  1
  Zn  Zn101  1  0.49917552  0.62764933  0.62458608  1
  Zn  Zn102  1  0.30966220  0.81083083  0.45590390  1
  Zn  Zn103  1  0.87669073  0.50067254  0.87450968  1
  Zn  Zn104  1  0.62246108  0.74962390  0.37701044  1
  Zn  Zn105  1  0.37412431  0.12443614  0.24964239  1
  Zn  Zn106  1  0.37722696  0.36906640  0.00417885  1
  Zn  Zn107  1  0.62316055  0.12548490  0.00019810  1
  Zn  Zn108  1  0.87583482  0.62477667  0.75181737  1
  Zn  Zn109  1  0.25149515  0.75141168  -0.00511186  1
  Zn  Zn110  1  0.62337485  0.24895026  0.87365391  1
  Zn  Zn111  1  0.48822755  0.86844705  0.38134413  1
  Zn  Zn112  1  0.12473187  -0.00249318  0.62601414  1
  Zn  Zn113  1  0.75103565  0.00041022  0.74926531  1
  Zn  Zn114  1  0.62336922  0.62529544  0.50014401  1
  Zn  Zn115  1  0.13114305  0.75263114  0.37734097  1
  Zn  Zn116  1  0.74837408  0.87461925  0.12549089  1
  Zn  Zn117  1  0.24816422  0.87783039  0.11874701  1
  Zn  Zn118  1  0.37128796  0.87550124  -0.00106580  1
  Zn  Zn119  1  0.12513131  0.87286437  0.75029842  1
  Zn  Zn120  1  0.49969749  0.74696796  0.74967056  1
  Zn  Zn121  1  0.87367335  0.00058876  0.37359306  1
  Zn  Zn122  1  0.18777647  0.18810822  0.18600255  1
  Zn  Zn123  1  0.18598377  0.18678578  0.68654193  1
  Zn  Zn124  1  0.18746955  0.68766358  0.18739310  1
  Zn  Zn125  1  0.18954888  0.68621232  0.68848672  1
  Zn  Zn126  1  0.68466138  0.18632040  0.18645053  1
  Zn  Zn127  1  0.68619784  0.18794279  0.68905441  1
  Zn  Zn128  1  0.68823012  0.68809435  0.18715563  1
  Zn  Zn129  1  0.68787852  0.68673984  0.68831127  1
  Zn  Zn130  1  0.31221374  0.31292393  0.31491393  1
  Zn  Zn131  1  0.31261447  0.31457119  0.81333770  1
  Zn  Zn132  1  0.31135855  0.81173659  0.29697846  1
  Zn  Zn133  1  0.31288663  0.81339795  0.80820504  1
  Zn  Zn134  1  0.81361117  0.31062473  0.31131814  1
  Zn  Zn135  1  0.81642319  0.31370201  0.81379119  1
  Zn  Zn136  1  0.81181056  0.81300004  0.31172589  1
  Zn  Zn137  1  0.81254648  0.81122573  0.81335735  1
  Zn  Zn138  1  0.18729823  0.44066884  0.43658410  1
  Zn  Zn139  1  0.18756110  0.43632949  0.93712150  1
  Zn  Zn140  1  0.18089137  0.94268908  0.43461339  1
  Zn  Zn141  1  0.18547657  0.93692053  0.93759767  1
  Zn  Zn142  1  0.68781421  0.43724549  0.43778516  1
  Zn  Zn143  1  0.68620490  0.43734796  0.93752129  1
  Zn  Zn144  1  0.68447818  0.93858197  0.43726811  1
  Zn  Zn145  1  0.68687784  0.93836717  0.93919371  1
  Zn  Zn146  1  0.31176965  0.06307110  0.06067368  1
  Zn  Zn147  1  0.31222216  0.06317176  0.56344902  1
  Zn  Zn148  1  0.31253447  0.56115662  0.06322191  1
  Zn  Zn149  1  0.31195276  0.56386553  0.56459937  1
  Zn  Zn150  1  0.81144321  0.06142236  0.06378853  1
  Zn  Zn151  1  0.81251998  0.06192860  0.56274430  1
  Zn  Zn152  1  0.81293983  0.56120855  0.06218571  1
  Zn  Zn153  1  0.81352300  0.56377942  0.56311862  1
  Zn  Zn154  1  0.43877676  0.43721797  0.18894250  1
  Zn  Zn155  1  0.43730632  0.43663398  0.68863583  1
  Zn  Zn156  1  0.43747218  0.93737929  0.18863950  1
  Zn  Zn157  1  0.43580961  0.93687727  0.68530463  1
  Zn  Zn158  1  0.93695613  0.43616022  0.18690707  1
  Zn  Zn159  1  0.93963844  0.43754705  0.68719691  1
  Zn  Zn160  1  0.93490780  0.93760750  0.18664155  1
  Zn  Zn161  1  0.93628673  0.93598857  0.68866367  1
  Zn  Zn162  1  0.06346411  0.06295221  0.31353394  1
  Zn  Zn163  1  0.06241017  0.06236328  0.81679771  1
  Zn  Zn164  1  0.06394320  0.56314418  0.31414520  1
  Zn  Zn165  1  0.06233449  0.56197301  0.81343069  1
  Zn  Zn166  1  0.55945779  0.06129153  0.31463942  1
  Zn  Zn167  1  0.56314519  0.06134236  0.81151071  1
  Zn  Zn168  1  0.56324244  0.56140962  0.31258966  1
  Zn  Zn169  1  0.56129709  0.56174640  0.81197647  1
  Zn  Zn170  1  0.43740934  0.18683841  0.43832688  1
  Zn  Zn171  1  0.43302728  0.18636553  0.93857536  1
  Zn  Zn172  1  0.44180250  0.68221559  0.43746772  1
  Zn  Zn173  1  0.43889557  0.68711382  0.93651458  1
  Zn  Zn174  1  0.93699709  0.18701584  0.43317275  1
  Zn  Zn175  1  0.93734685  0.18881353  0.93678178  1
  Zn  Zn176  1  0.93873290  0.68819667  0.43917360  1
  Zn  Zn177  1  0.93845531  0.68562771  0.93621409  1
  Zn  Zn178  1  0.06960972  0.31198775  0.06066690  1
  Zn  Zn179  1  0.06276794  0.31237202  0.56448197  1
  Zn  Zn180  1  0.06066046  0.81225205  0.05986974  1
  Zn  Zn181  1  0.06529589  0.81475219  0.56616511  1
  Zn  Zn182  1  0.56393881  0.31141854  0.06171847  1
  Zn  Zn183  1  0.56011067  0.31383501  0.56401631  1
  Zn  Zn184  1  0.56211120  0.81326831  0.06317340  1
  Zn  Zn185  1  0.56033846  0.81133960  0.56530743  1
  O  O186  1  0.13003385  0.12400251  0.10905887  1
  O  O187  1  0.11738792  0.12284618  0.61864258  1
  O  O188  1  0.11914615  0.62037266  0.11851738  1
  O  O189  1  0.12181745  0.61615708  0.61854800  1
  O  O190  1  0.61375143  0.11755380  0.12399162  1
  O  O191  1  0.61958365  0.12039356  0.62011003  1
  O  O192  1  0.61977194  0.61909136  0.12059429  1
  O  O193  1  0.62451526  0.61191208  0.62416635  1
  O  O194  1  0.38081216  0.38040396  0.38284327  1
  O  O195  1  0.38423111  0.38469043  0.87658452  1
  O  O196  1  0.37002046  0.87101392  0.37654658  1
  O  O197  1  0.38499915  0.88078768  0.87223082  1
  O  O198  1  0.87996074  0.37958862  0.38043935  1
  O  O199  1  0.88627685  0.37848192  0.88141364  1
  O  O200  1  0.88732287  0.87723678  0.37575793  1
  O  O201  1  0.87976669  0.88030999  0.88116617  1
  O  O202  1  0.24711091  0.00953874  0.36592017  1
  O  O203  1  0.25433851  0.00767554  0.86679734  1
  O  O204  1  0.25598608  0.50573047  0.36822906  1
  O  O205  1  0.26150858  0.49449079  0.86737818  1
  O  O206  1  0.75060716  0.00690214  0.36896168  1
  O  O207  1  0.75631654  0.01022990  0.87602153  1
  O  O208  1  0.75672978  0.50900097  0.37553460  1
  O  O209  1  0.74968682  0.50335841  0.86563054  1
  O  O210  1  0.24432827  0.49307457  0.13119364  1
  O  O211  1  0.23887206  0.50205735  0.63489423  1
  O  O212  1  0.24772102  1.00036042  0.13597506  1
  O  O213  1  0.25089876  0.99402622  0.63471465  1
  O  O214  1  0.74332776  0.49305637  0.12627592  1
  O  O215  1  0.74378614  0.49535188  0.63079950  1
  O  O216  1  0.74136303  0.99858579  0.13184249  1
  O  O217  1  0.74324611  0.99369860  0.62533790  1
  O  O218  1  0.00534603  0.36786871  0.25589551  1
  O  O219  1  0.00759316  0.37175567  0.75666135  1
  O  O220  1  0.00546734  0.87245456  0.25678637  1
  O  O221  1  0.00161906  0.86843958  0.75676067  1
  O  O222  1  0.50531755  0.36762323  0.25450962  1
  O  O223  1  0.49939797  0.36947692  0.75998635  1
  O  O224  1  0.50769078  0.86917045  0.25295651  1
  O  O225  1  0.50838795  0.87766334  0.75864655  1
  O  O226  1  0.49885434  0.13231075  0.24343740  1
  O  O227  1  0.49342652  0.12910786  0.74530898  1
  O  O228  1  0.49501208  0.62836364  0.24418747  1
  O  O229  1  0.48747497  0.62359406  0.74671781  1
  O  O230  1  0.99171971  0.13463169  0.25770150  1
  O  O231  1  0.99622612  0.12984531  0.74687196  1
  O  O232  1  0.99620815  0.62988302  0.24530868  1
  O  O233  1  0.99899079  0.62976735  0.74341351  1
  O  O234  1  0.35755403  0.25068018  -0.00236234  1
  O  O235  1  0.37510834  0.25814068  0.50763326  1
  O  O236  1  0.37302489  0.74805087  0.00881219  1
  O  O237  1  0.37605260  0.73985089  0.51433258  1
  O  O238  1  0.86636797  0.25518435  0.00203760  1
  O  O239  1  0.87020563  0.25429520  0.50467959  1
  O  O240  1  0.87115940  0.75476920  0.00473398  1
  O  O241  1  0.86501607  0.75155687  0.50583714  1
  O  O242  1  0.12623559  0.24576351  0.49456249  1
  O  O243  1  0.13766324  0.24166217  1.00013943  1
  O  O244  1  0.12034787  0.73566669  0.50021303  1
  O  O245  1  0.12413017  0.74175867  0.99223336  1
  O  O246  1  0.62954573  0.24562268  0.49580986  1
  O  O247  1  0.63761454  0.24831392  0.99542872  1
  O  O248  1  0.63729593  0.74772384  0.50043865  1
  O  O249  1  0.63123776  0.74330316  1.00022281  1
  O  O250  1  0.50759375  0.24105635  0.13467337  1
  O  O251  1  0.49124760  0.24449821  0.63019886  1
  O  O252  1  0.49214242  0.74312818  0.12885565  1
  O  O253  1  0.48828251  0.74901406  0.63012888  1
  O  O254  1  1.00211269  0.25676701  0.13905148  1
  O  O255  1  0.99405112  0.24392643  0.63062619  1
  O  O256  1  0.99441605  0.74424638  0.13042942  1
  O  O257  1  0.99609678  0.74545789  0.63055574  1
  O  O258  1  0.00593999  0.25611036  0.36672125  1
  O  O259  1  -0.00445191  0.26288143  0.86806664  1
  O  O260  1  0.00181937  0.75946563  0.36994772  1
  O  O261  1  0.00696160  0.75475965  0.87036236  1
  O  O262  1  0.50590076  0.25385114  0.36822526  1
  O  O263  1  0.49653326  0.25795925  0.87078899  1
  O  O264  1  0.50323816  0.74901165  0.36735101  1
  O  O265  1  0.50180189  0.76181575  0.87209067  1
  O  O266  1  0.24282555  0.12472308  0.49139257  1
  O  O267  1  0.24396850  0.13082083  0.99256421  1
  O  O268  1  0.23858622  0.61624752  0.49314971  1
  O  O269  1  0.23515483  0.62657240  1.00607276  1
  O  O270  1  0.74489046  0.13066244  0.49525319  1
  O  O271  1  0.75135193  0.13331888  0.99181055  1
  O  O272  1  0.75065554  0.63290019  0.49156168  1
  O  O273  1  0.74479031  0.62877022  0.99526247  1
  O  O274  1  0.24867659  0.36791329  0.00747969  1
  O  O275  1  0.26402764  0.37433209  0.49334631  1
  O  O276  1  0.25304219  0.87129596  0.00263476  1
  O  O277  1  0.24259674  0.88291303  0.51281070  1
  O  O278  1  0.75525553  0.36759503  0.00269338  1
  O  O279  1  0.75643899  0.36893279  0.50504963  1
  O  O280  1  0.75640340  0.86882402  0.00146221  1
  O  O281  1  0.75016460  0.86628792  0.50430009  1
  O  O282  1  0.13005090  0.49484034  0.24522564  1
  O  O283  1  0.13161122  0.49486138  0.74416289  1
  O  O284  1  0.13087640  0.99364540  0.24797143  1
  O  O285  1  0.13685592  1.00080301  0.75010159  1
  O  O286  1  0.62616202  0.49199438  0.24364780  1
  O  O287  1  0.63446490  0.49740608  0.74190062  1
  O  O288  1  0.62805240  0.99315044  0.24623713  1
  O  O289  1  0.62677273  0.99057548  0.74313790  1
  O  O290  1  0.36208540  -0.00017311  0.25446211  1
  O  O291  1  0.36578751  0.00674187  0.75360010  1
  O  O292  1  0.37049149  0.50452687  0.25633114  1
  O  O293  1  0.36787845  0.50414278  0.75541595  1
  O  O294  1  0.86957116  0.00813374  0.25116460  1
  O  O295  1  0.87375925  0.00711187  0.75729197  1
  O  O296  1  0.87451669  0.50639576  0.25689862  1
  O  O297  1  0.86222815  0.50061487  0.74823885  1
  O  O298  1  0.12051587  0.37121029  0.36938141  1
  O  O299  1  0.11537855  0.38132301  0.86355612  1
  O  O300  1  0.11514184  0.87430594  0.36455045  1
  O  O301  1  0.11753010  0.86505374  0.87350567  1
  O  O302  1  0.61958371  0.36975644  0.37062545  1
  O  O303  1  0.61027823  0.37463392  0.87414049  1
  O  O304  1  0.62341504  0.87273581  0.36241481  1
  O  O305  1  0.61680201  0.87679870  0.86671506  1
  O  O306  1  0.38870951  0.12034360  0.12772665  1
  O  O307  1  0.38065204  0.13364453  0.63028424  1
  O  O308  1  0.38056674  0.63004242  0.12982565  1
  O  O309  1  0.37395067  0.63165207  0.63510288  1
  O  O310  1  0.86974713  0.12790495  0.13961359  1
  O  O311  1  0.88020778  0.13016267  0.63077759  1
  O  O312  1  0.88119925  0.62925277  0.13031309  1
  O  O313  1  0.88298063  0.63150165  0.62581705  1
  O  O314  1  0.24526817  0.26181294  0.11800124  1
  O  O315  1  0.26480975  0.24406568  0.62334708  1
  O  O316  1  0.26248611  0.75109196  0.12626676  1
  O  O317  1  0.25830854  0.76074046  0.63216439  1
  O  O318  1  0.74923897  0.25473500  0.11427831  1
  O  O319  1  0.75562259  0.25432588  0.61990610  1
  O  O320  1  0.75756871  0.75000793  0.11779642  1
  O  O321  1  0.75453160  0.75361958  0.61757163  1
  O  O322  1  0.24341249  0.24110115  0.37550071  1
  O  O323  1  0.25353651  0.23896621  0.88012162  1
  O  O324  1  0.25076535  0.74411291  0.37434204  1
  O  O325  1  0.23534862  0.75443947  0.87260148  1
  O  O326  1  0.74418034  0.24564191  0.38102204  1
  O  O327  1  0.75174706  0.24238648  0.88287305  1
  O  O328  1  0.75097651  0.74162106  0.38314162  1
  O  O329  1  0.74758004  0.74278332  0.88188008  1
  O  O330  1  0.00974091  0.11716326  -0.01059675  1
  O  O331  1  0.00286346  0.11881942  0.50370169  1
  O  O332  1  0.00821683  0.61905164  0.00644737  1
  O  O333  1  0.00880281  0.61845165  0.50488497  1
  O  O334  1  0.50068126  0.12105435  0.00718538  1
  O  O335  1  0.50619409  0.11895511  0.50515572  1
  O  O336  1  0.50587195  0.61877513  0.00510313  1
  O  O337  1  0.50434691  0.61371169  0.50438227  1
  O  O338  1  0.49084818  0.37899087  0.49386300  1
  O  O339  1  0.49717672  0.37930137  0.99317084  1
  O  O340  1  0.50804031  0.88817147  0.49844829  1
  O  O341  1  0.49930291  0.88086927  0.98883158  1
  O  O342  1  0.99525941  0.37956236  0.49464304  1
  O  O343  1  0.99962053  0.37796135  0.99307528  1
  O  O344  1  1.00177517  0.88255766  0.49246464  1
  O  O345  1  0.99416065  0.88354772  0.99407454  1
  O  O346  1  0.49457430  0.49391407  0.38031804  1
  O  O347  1  0.49181267  0.49192210  0.87944805  1
  O  O348  1  0.49456081  0.99742635  0.38417716  1
  O  O349  1  0.49464880  0.99399641  0.87895166  1
  O  O350  1  0.99549470  0.49437894  0.38067065  1
  O  O351  1  0.99921729  0.48942535  0.88036671  1
  O  O352  1  0.99993411  0.99192323  0.38331814  1
  O  O353  1  0.99431254  0.99433946  0.88350160  1
  O  O354  1  -0.00090258  -0.00293768  0.10996263  1
  O  O355  1  -0.00021477  0.00499847  0.61667074  1
  O  O356  1  0.00686381  0.50394710  0.12020477  1
  O  O357  1  0.00928455  0.50529666  0.62075653  1
  O  O358  1  0.50370430  0.00755986  0.12085570  1
  O  O359  1  0.50433555  0.00555858  0.61875919  1
  O  O360  1  0.50491085  0.50439539  0.11992088  1
  O  O361  1  0.50993817  0.49750730  0.62127882  1
  O  O362  1  0.24521517  0.37893277  0.24438054  1
  O  O363  1  0.23993831  0.38572886  0.75567163  1
  O  O364  1  0.23818514  0.88468698  0.24662726  1
  O  O365  1  0.24923625  0.88666424  0.74299129  1
  O  O366  1  0.74382801  0.37435133  0.24398071  1
  O  O367  1  0.74961054  0.38256292  0.74496081  1
  O  O368  1  0.74093419  0.88074229  0.24874094  1
  O  O369  1  0.74069409  0.87662349  0.74580148  1
  O  O370  1  0.24920881  0.11847415  0.25745966  1
  O  O371  1  0.25283996  0.11948193  0.75623807  1
  O  O372  1  0.25501727  0.61905804  0.25590516  1
  O  O373  1  0.25973420  0.61132488  0.74824066  1
  O  O374  1  0.75602717  0.12141951  0.25504895  1
  O  O375  1  0.75655255  0.12537001  0.75940160  1
  O  O376  1  0.75677675  0.62482258  0.25998419  1
  O  O377  1  0.75036304  0.61532438  0.75563713  1
  O  O378  1  0.36111103  0.12461255  0.37455227  1
  O  O379  1  0.36484593  0.11960295  0.86853537  1
  O  O380  1  0.37032347  0.61825989  0.36946347  1
  O  O381  1  0.38167130  0.61299945  0.86615545  1
  O  O382  1  0.86771087  0.12470873  0.36373528  1
  O  O383  1  0.86719847  0.12105998  0.87033972  1
  O  O384  1  0.86863173  0.62040551  0.37119239  1
  O  O385  1  0.86706768  0.62010266  0.87294321  1
  O  O386  1  0.13457576  0.38174679  0.13082109  1
  O  O387  1  0.11746647  0.38713627  0.63526026  1
  O  O388  1  0.12246794  0.87712023  0.13632440  1
  O  O389  1  0.13572499  0.87746199  0.63132258  1
  O  O390  1  0.63035288  0.38008541  0.12945516  1
  O  O391  1  0.63157979  0.38416385  0.62593734  1
  O  O392  1  0.62343112  0.88170003  0.13685969  1
  O  O393  1  0.62957584  0.87960889  0.63372238  1
  O  O394  1  0.11843773  0.25441242  0.25528319  1
  O  O395  1  0.11969712  0.26336742  0.74082746  1
  O  O396  1  0.11901998  0.75953805  0.25106039  1
  O  O397  1  0.11848520  0.74714831  0.75867929  1
  O  O398  1  0.61659780  0.25498803  0.25625327  1
  O  O399  1  0.61585142  0.25286438  0.75290305  1
  O  O400  1  0.61976539  0.75874112  0.24899164  1
  O  O401  1  0.62290938  0.76217365  0.75077187  1
  O  O402  1  0.38987004  0.24949292  0.25626790  1
  O  O403  1  0.37880779  0.24666465  0.74271255  1
  O  O404  1  0.38188117  0.74170881  0.23901713  1
  O  O405  1  0.37439013  0.73885480  0.74429048  1
  O  O406  1  0.88413916  0.24293366  0.24879733  1
  O  O407  1  0.88225028  0.24518982  0.74397197  1
  O  O408  1  0.88086869  0.74449952  0.24472420  1
  O  O409  1  0.88133470  0.74803784  0.74364815  1
  O  O410  1  0.37958536  0.49290076  0.49724604  1
  O  O411  1  0.38005326  0.50021550  0.99127282  1
  O  O412  1  0.38759324  1.00515668  0.50021959  1
  O  O413  1  0.38130554  0.99895310  0.99212581  1
  O  O414  1  0.88119675  0.49408705  0.49593825  1
  O  O415  1  0.88365068  0.49281844  1.00005775  1
  O  O416  1  0.88658222  0.99919682  0.49697207  1
  O  O417  1  0.88167564  0.99678047  0.99534099  1
  O  O418  1  0.11631696  0.00792894  0.00078973  1
  O  O419  1  0.11155749  0.00768073  0.50166765  1
  O  O420  1  0.12094283  0.50689779  0.00415923  1
  O  O421  1  0.12040633  0.50470938  0.50805693  1
  O  O422  1  0.61737271  0.00139731  0.00753100  1
  O  O423  1  0.61754625  0.00716158  0.50533727  1
  O  O424  1  0.61896416  0.50512150  0.00615759  1
  O  O425  1  0.62058937  0.49849878  0.50969811  1
  O  O426  1  0.36095587  0.38332428  0.12347012  1
  O  O427  1  0.38157417  0.36581156  0.61559084  1
  O  O428  1  0.37617737  0.86229536  0.12360675  1
  O  O429  1  0.36499468  0.86408070  0.63104645  1
  O  O430  1  0.86887751  0.37192907  0.11834762  1
  O  O431  1  0.87149430  0.36914182  0.61909856  1
  O  O432  1  0.87323192  0.86739321  0.11852005  1
  O  O433  1  0.86788516  0.86827360  0.62299124  1
  O  O434  1  0.13286650  0.13062498  0.38023177  1
  O  O435  1  0.13693890  0.12015771  0.88473406  1
  O  O436  1  0.13075036  0.62622134  0.38369266  1
  O  O437  1  0.11764108  0.63349984  0.88561602  1
  O  O438  1  0.63019906  0.13082864  0.38027904  1
  O  O439  1  0.63692975  0.12536223  0.87618538  1
  O  O440  1  0.63769534  0.62538408  0.37614975  1
  O  O441  1  0.63008706  0.62529552  0.88182287  1
