# generated using pymatgen
data_V93Zn93O256
_symmetry_space_group_name_H-M   'P 1'
_cell_length_a   17.05759775
_cell_length_b   17.06201672
_cell_length_c   17.06153808
_cell_angle_alpha   90.04970100
_cell_angle_beta   89.96044375
_cell_angle_gamma   90.03623867
_symmetry_Int_Tables_number   1
_chemical_formula_structural   V93Zn93O256
_chemical_formula_sum   'V93 Zn93 O256'
_cell_volume   4965.53512242
_cell_formula_units_Z   1
loop_
 _symmetry_equiv_pos_site_id
 _symmetry_equiv_pos_as_xyz
  1  'x, y, z'
loop_
 _atom_site_type_symbol
 _atom_site_label
 _atom_site_symmetry_multiplicity
 _atom_site_fract_x
 _atom_site_fract_y
 _atom_site_fract_z
 _atom_site_occupancy
  V  V0  1  0.74948193  0.37552436  0.12438983  1
  V  V1  1  0.87449743  0.25059512  0.12398848  1
  V  V2  1  0.88207799  0.87817473  0.49935244  1
  V  V3  1  0.37555615  0.74815482  0.62576048  1
  V  V4  1  0.87335347  0.12480876  0.24906177  1
  V  V5  1  0.12418465  0.87479739  0.25040848  1
  V  V6  1  0.87385684  0.75012437  0.12612856  1
  V  V7  1  0.37576773  0.24871567  0.62451554  1
  V  V8  1  0.88185019  0.00050716  0.37818140  1
  V  V9  1  0.25004890  -0.00026343  0.25184693  1
  V  V10  1  0.62635944  -0.00058133  0.62553475  1
  V  V11  1  0.50698439  0.25725426  0.74854508  1
  V  V12  1  0.12596764  0.12582352  -0.00143282  1
  V  V13  1  0.49972867  0.12516739  0.12428888  1
  V  V14  1  0.24916383  0.37382472  0.62511694  1
  V  V15  1  0.88115421  0.24744246  0.62503021  1
  V  V16  1  0.75013398  0.87545593  0.62607753  1
  V  V17  1  0.87431163  0.87549395  0.00021133  1
  V  V18  1  0.87557568  0.62510635  0.75101461  1
  V  V19  1  0.87431637  0.00014432  0.87509033  1
  V  V20  1  0.37491528  0.87506441  -0.00106646  1
  V  V21  1  0.74453360  0.49295254  0.74925702  1
  V  V22  1  0.12543302  0.62580238  0.49957851  1
  V  V23  1  0.75046376  0.25072231  -0.00104407  1
  V  V24  1  0.62449003  0.74988653  0.87519299  1
  V  V25  1  0.24901982  0.50058852  0.24943930  1
  V  V26  1  0.62531984  -0.00162290  0.12477877  1
  V  V27  1  0.74892872  0.25031065  0.50026382  1
  V  V28  1  0.88214664  0.12555365  0.74665133  1
  V  V29  1  0.24922929  0.12370766  0.37707095  1
  V  V30  1  0.37639479  0.12569943  0.75048077  1
  V  V31  1  0.24839333  0.24693992  0.49980699  1
  V  V32  1  0.49999312  0.25078224  0.25054046  1
  V  V33  1  0.87376859  0.62470570  0.25061975  1
  V  V34  1  0.25001021  0.12617924  0.87483364  1
  V  V35  1  0.74912568  0.00044610  0.74900629  1
  V  V36  1  0.62286137  0.50049119  0.12222929  1
  V  V37  1  0.74901847  0.74733218  0.49901830  1
  V  V38  1  0.50028263  0.74924039  0.74985095  1
  V  V39  1  0.25317575  0.50158867  0.75114599  1
  V  V40  1  0.62558792  0.12428208  0.49945315  1
  V  V41  1  0.88006215  0.50088632  0.87997856  1
  V  V42  1  0.50105508  -0.00407806  0.49255753  1
  V  V43  1  0.87809008  0.37760849  0.00035677  1
  V  V44  1  0.00013774  0.62077991  0.11900184  1
  V  V45  1  -0.00045639  0.12513013  0.12355896  1
  V  V46  1  0.75012962  0.12614707  0.87404964  1
  V  V47  1  0.37463300  0.62484836  0.24960465  1
  V  V48  1  0.74940969  0.12473604  0.37529112  1
  V  V49  1  0.12068731  0.49979382  0.11684748  1
  V  V50  1  0.24942499  0.87733928  0.62409694  1
  V  V51  1  0.12407347  0.00041851  0.12596204  1
  V  V52  1  0.00143200  0.37619243  0.87872732  1
  V  V53  1  0.00029213  0.62500294  0.62506608  1
  V  V54  1  -0.00063196  0.25125864  0.24898077  1
  V  V55  1  0.37912042  0.49898085  0.88207629  1
  V  V56  1  0.00098880  0.74974783  0.75169596  1
  V  V57  1  0.11279730  0.00660638  0.61882343  1
  V  V58  1  0.50075131  0.50155325  0.50007941  1
  V  V59  1  0.24916754  0.62517284  0.37477133  1
  V  V60  1  0.12334296  0.37437226  0.74984391  1
  V  V61  1  0.37430982  0.74978657  0.12439523  1
  V  V62  1  0.50090483  0.12477550  0.62504874  1
  V  V63  1  0.25047185  0.00129237  0.74746187  1
  V  V64  1  0.24983823  0.87385917  0.12517776  1
  V  V65  1  0.74910064  0.50047993  0.25042076  1
  V  V66  1  0.74855311  0.74989416  0.00103142  1
  V  V67  1  0.87268129  0.37608879  0.50207040  1
  V  V68  1  0.74813948  0.87470741  0.12635122  1
  V  V69  1  0.50340878  0.37778899  0.88046533  1
  V  V70  1  0.00305830  0.87371266  0.87583817  1
  V  V71  1  -0.00137172  0.50136845  0.50009106  1
  V  V72  1  0.37524646  0.37514215  0.49681048  1
  V  V73  1  0.50057780  0.75636862  0.25431913  1
  V  V74  1  0.37594187  0.00032082  0.87489636  1
  V  V75  1  0.62642305  0.25480642  0.87107930  1
  V  V76  1  0.75024108  0.62531294  0.87586659  1
  V  V77  1  0.12470407  0.24953879  0.37604018  1
  V  V78  1  0.49970320  0.62038567  0.12115060  1
  V  V79  1  0.37957566  0.87476154  0.49363258  1
  V  V80  1  0.62304012  0.37465443  0.24939804  1
  V  V81  1  0.37315069  0.25021436  0.12400119  1
  V  V82  1  0.00033036  0.75186962  0.25220406  1
  V  V83  1  0.87466254  0.75040113  0.62526020  1
  V  V84  1  0.12477962  0.37548130  0.24989411  1
  V  V85  1  0.87322301  0.50107311  0.37454099  1
  V  V86  1  0.62226666  0.62219301  0.00101253  1
  V  V87  1  0.37402253  0.12395030  0.25053333  1
  V  V88  1  0.62131586  0.75619039  0.37648454  1
  V  V89  1  0.25004481  0.37373403  0.12422365  1
  V  V90  1  0.62565039  0.87461774  0.75104259  1
  V  V91  1  0.62497099  0.12613466  -0.00040867  1
  V  V92  1  -0.00053185  0.37653878  0.37469897  1
  Zn  Zn93  1  0.37631764  0.49989606  0.37337594  1
  Zn  Zn94  1  0.37810838  -0.00439171  0.37220967  1
  Zn  Zn95  1  0.62340235  0.62310500  0.50114353  1
  Zn  Zn96  1  0.12934132  0.74559964  0.87439543  1
  Zn  Zn97  1  0.49993458  0.00065172  -0.00200588  1
  Zn  Zn98  1  0.25217398  0.25205192  -0.00350599  1
  Zn  Zn99  1  0.00434443  0.87981177  0.37916235  1
  Zn  Zn100  1  0.37522066  0.62447005  0.75193213  1
  Zn  Zn101  1  0.61950932  0.49522794  0.62825576  1
  Zn  Zn102  1  0.50121688  0.37548971  0.37403697  1
  Zn  Zn103  1  0.50056455  0.87683739  0.87598007  1
  Zn  Zn104  1  0.00245359  0.24723553  0.74724650  1
  Zn  Zn105  1  0.50296099  0.62308329  0.62488682  1
  Zn  Zn106  1  0.62254581  0.25085574  0.37467114  1
  Zn  Zn107  1  0.12513911  0.24916922  0.87351631  1
  Zn  Zn108  1  0.24710310  0.74752054  -0.00371784  1
  Zn  Zn109  1  0.12536657  0.62680066  -0.00344739  1
  Zn  Zn110  1  0.74258439  0.36995641  0.63140488  1
  Zn  Zn111  1  0.74972698  -0.00309021  0.25159560  1
  Zn  Zn112  1  0.12476177  0.50010833  0.62559334  1
  Zn  Zn113  1  0.12475336  0.75320178  0.37653362  1
  Zn  Zn114  1  0.10565559  0.12472850  0.50055485  1
  Zn  Zn115  1  0.25110285  0.75013411  0.49984509  1
  Zn  Zn116  1  0.62254653  0.87816745  0.25585171  1
  Zn  Zn117  1  0.25037093  0.62597919  0.87862254  1
  Zn  Zn118  1  0.12573499  0.87455548  0.74961147  1
  Zn  Zn119  1  0.37666291  0.37589640  0.00195084  1
  Zn  Zn120  1  0.74701031  0.62505393  0.37419474  1
  Zn  Zn121  1  -0.00122172  0.00010761  0.00015698  1
  Zn  Zn122  1  0.18787035  0.18727360  0.18800864  1
  Zn  Zn123  1  0.18753342  0.18666144  0.68690329  1
  Zn  Zn124  1  0.18587046  0.68730579  0.18501495  1
  Zn  Zn125  1  0.18648347  0.68829618  0.68927437  1
  Zn  Zn126  1  0.68664332  0.18766514  0.18765963  1
  Zn  Zn127  1  0.69046716  0.18511544  0.68570181  1
  Zn  Zn128  1  0.68522181  0.68801473  0.18976593  1
  Zn  Zn129  1  0.68559865  0.68141787  0.68526396  1
  Zn  Zn130  1  0.31144926  0.31035320  0.31136860  1
  Zn  Zn131  1  0.31513101  0.31292175  0.81368523  1
  Zn  Zn132  1  0.31076972  0.80980828  0.31120378  1
  Zn  Zn133  1  0.31157825  0.81348668  0.81263370  1
  Zn  Zn134  1  0.81159824  0.31386911  0.31246239  1
  Zn  Zn135  1  0.81560856  0.31183506  0.81336447  1
  Zn  Zn136  1  0.81040517  0.81447140  0.31356242  1
  Zn  Zn137  1  0.81315875  0.81217434  0.81354022  1
  Zn  Zn138  1  0.18752283  0.43827268  0.43768139  1
  Zn  Zn139  1  0.19122547  0.43727245  0.93688407  1
  Zn  Zn140  1  0.18790895  0.93828070  0.43875272  1
  Zn  Zn141  1  0.18871416  0.93907931  0.93843973  1
  Zn  Zn142  1  0.68485365  0.43575716  0.43616693  1
  Zn  Zn143  1  0.68755793  0.43820279  0.93700669  1
  Zn  Zn144  1  0.69261233  0.93759867  0.44016211  1
  Zn  Zn145  1  0.68746147  0.93743667  0.93783478  1
  Zn  Zn146  1  0.31140889  0.06157869  0.06276738  1
  Zn  Zn147  1  0.31330868  0.06173520  0.56075723  1
  Zn  Zn148  1  0.30960073  0.56256202  0.06139859  1
  Zn  Zn149  1  0.31293994  0.56077259  0.56372184  1
  Zn  Zn150  1  0.81098532  0.06186054  0.06130983  1
  Zn  Zn151  1  0.93020587  0.06201412  0.56318417  1
  Zn  Zn152  1  0.81061892  0.56322832  0.06330295  1
  Zn  Zn153  1  0.81332371  0.56334981  0.56490199  1
  Zn  Zn154  1  0.43611900  0.43750955  0.18785151  1
  Zn  Zn155  1  0.43657947  0.43624077  0.68714455  1
  Zn  Zn156  1  0.43734649  0.93836482  0.18523030  1
  Zn  Zn157  1  0.43875011  0.93693466  0.68538395  1
  Zn  Zn158  1  0.93715073  0.43845906  0.18769978  1
  Zn  Zn159  1  0.93407604  0.43695968  0.68776798  1
  Zn  Zn160  1  0.93645959  0.93884390  0.18887523  1
  Zn  Zn161  1  0.93547357  0.93387918  0.69203309  1
  Zn  Zn162  1  0.06301076  0.06540213  0.31229775  1
  Zn  Zn163  1  0.06441930  0.05717442  0.81121866  1
  Zn  Zn164  1  0.06214900  0.56318262  0.30974406  1
  Zn  Zn165  1  0.06412168  0.56189024  0.81354418  1
  Zn  Zn166  1  0.56303136  0.06415528  0.31034631  1
  Zn  Zn167  1  0.56142017  0.06447032  0.81345796  1
  Zn  Zn168  1  0.56259854  0.56559652  0.31535155  1
  Zn  Zn169  1  0.56100944  0.56401096  0.81413508  1
  Zn  Zn170  1  0.43729756  0.18610325  0.43570221  1
  Zn  Zn171  1  0.43850874  0.18989921  0.93774671  1
  Zn  Zn172  1  0.43722788  0.68708343  0.43688041  1
  Zn  Zn173  1  0.43457188  0.68665583  0.93659006  1
  Zn  Zn174  1  0.93460608  0.19170703  0.43414579  1
  Zn  Zn175  1  0.93941650  0.18968697  0.93494306  1
  Zn  Zn176  1  0.93607315  0.68805991  0.43693168  1
  Zn  Zn177  1  0.93763638  0.68958353  0.93826601  1
  Zn  Zn178  1  0.06363510  0.31206284  0.06111628  1
  Zn  Zn179  1  0.06219029  0.31341397  0.56108297  1
  Zn  Zn180  1  0.06310669  0.81034432  0.06138186  1
  Zn  Zn181  1  0.06450902  0.81156849  0.56544518  1
  Zn  Zn182  1  0.56176831  0.31201097  0.06148376  1
  Zn  Zn183  1  0.56526804  0.31708460  0.56447350  1
  Zn  Zn184  1  0.55973057  0.81048167  0.06378867  1
  Zn  Zn185  1  0.56272540  0.81317309  0.56314428  1
  O  O186  1  0.12003834  0.12053008  0.11836909  1
  O  O187  1  0.12739431  0.10953233  0.62472720  1
  O  O188  1  0.11581853  0.61534563  0.12692997  1
  O  O189  1  0.11968079  0.62338671  0.61545997  1
  O  O190  1  0.62139064  0.11749187  0.11980658  1
  O  O191  1  0.62055420  0.11879980  0.61882047  1
  O  O192  1  0.61748212  0.62105808  0.12126112  1
  O  O193  1  0.62153674  0.61528311  0.61921135  1
  O  O194  1  0.37250649  0.37524240  0.38722097  1
  O  O195  1  0.38424459  0.38136020  0.87616950  1
  O  O196  1  0.36783764  0.87377099  0.39005225  1
  O  O197  1  0.37534543  0.88183921  0.88379586  1
  O  O198  1  0.88047730  0.38089750  0.38033289  1
  O  O199  1  0.88261920  0.38189923  0.87974691  1
  O  O200  1  0.87429843  0.88416677  0.38247111  1
  O  O201  1  0.88158579  0.87990049  0.88003601  1
  O  O202  1  0.25161367  0.00595904  0.36882339  1
  O  O203  1  0.25551867  0.00563107  0.86715288  1
  O  O204  1  0.24938140  0.51056878  0.36900254  1
  O  O205  1  0.26065527  0.49650405  0.86459155  1
  O  O206  1  0.75890923  0.01003658  0.37547767  1
  O  O207  1  0.75438642  0.00546803  0.86884334  1
  O  O208  1  0.75567262  0.50158138  0.36875135  1
  O  O209  1  0.75881614  0.50542899  0.86688047  1
  O  O210  1  0.24106666  0.49423801  0.13185007  1
  O  O211  1  0.24987305  0.49185123  0.63412900  1
  O  O212  1  0.24390698  0.99431887  0.13254194  1
  O  O213  1  0.24657005  0.99231180  0.62861524  1
  O  O214  1  0.74478211  0.49402965  0.13115867  1
  O  O215  1  0.75636710  0.50158966  0.64378038  1
  O  O216  1  0.74009441  0.99528732  0.12527207  1
  O  O217  1  0.74098534  0.99034386  0.63455394  1
  O  O218  1  0.00441165  0.37023790  0.25509033  1
  O  O219  1  0.00866180  0.37689116  0.75781861  1
  O  O220  1  0.00461684  0.86553652  0.24913884  1
  O  O221  1  -0.00138727  0.86819775  0.76068777  1
  O  O222  1  0.50515247  0.36861235  0.24951647  1
  O  O223  1  0.49446246  0.36152518  0.75699656  1
  O  O224  1  0.50082852  0.86021240  0.24268332  1
  O  O225  1  0.50657907  0.86497667  0.74980963  1
  O  O226  1  0.49411868  0.13003150  0.24354055  1
  O  O227  1  0.49496891  0.13374178  0.74445347  1
  O  O228  1  0.49457849  0.63379858  0.24199957  1
  O  O229  1  0.49900905  0.63858667  0.74743340  1
  O  O230  1  0.99377847  0.13248652  0.24348362  1
  O  O231  1  0.98584775  0.12676803  0.76007823  1
  O  O232  1  0.99431795  0.63326709  0.24225379  1
  O  O233  1  0.99447379  0.62916603  0.74464941  1
  O  O234  1  0.37228230  0.25045980  0.00984628  1
  O  O235  1  0.37040833  0.25680376  0.50502706  1
  O  O236  1  0.37442652  0.76030046  0.00613967  1
  O  O237  1  0.37613580  0.75784750  0.50951269  1
  O  O238  1  0.86972875  0.25603659  0.00495474  1
  O  O239  1  0.86630516  0.25552787  0.50635345  1
  O  O240  1  0.86786704  0.75534255  0.00663719  1
  O  O241  1  0.86685049  0.75601274  0.50445452  1
  O  O242  1  0.13052993  0.24855872  0.49418110  1
  O  O243  1  0.12728984  0.23630074  0.99861155  1
  O  O244  1  0.12690080  0.73760924  0.49887628  1
  O  O245  1  0.12820396  0.74803101  0.99551958  1
  O  O246  1  0.63361416  0.24366988  0.49913850  1
  O  O247  1  0.63218741  0.24490461  0.99395609  1
  O  O248  1  0.63318665  0.75149527  0.49475068  1
  O  O249  1  0.62971946  0.74408532  0.99537848  1
  O  O250  1  0.49418355  0.24414996  0.13074549  1
  O  O251  1  0.49613733  0.24500077  0.63089886  1
  O  O252  1  0.49518468  0.74020657  0.13414025  1
  O  O253  1  0.49180466  0.75096913  0.63304343  1
  O  O254  1  0.99391857  0.24557694  0.12969839  1
  O  O255  1  0.98491192  0.25791256  0.62702783  1
  O  O256  1  0.99383976  0.74300181  0.13503849  1
  O  O257  1  0.99386107  0.74471218  0.63141097  1
  O  O258  1  0.00400069  0.25785038  0.36774345  1
  O  O259  1  0.00147441  0.26319646  0.86882325  1
  O  O260  1  -0.00008918  0.75061855  0.36128007  1
  O  O261  1  -0.00258729  0.76034362  0.86943663  1
  O  O262  1  0.50146326  0.25159421  0.36604155  1
  O  O263  1  0.50556778  0.25654903  0.86614748  1
  O  O264  1  0.50788369  0.74430476  0.36523158  1
  O  O265  1  0.50514147  0.75159003  0.86515224  1
  O  O266  1  0.25182692  0.13220793  0.49362089  1
  O  O267  1  0.24037438  0.12406936  0.99432354  1
  O  O268  1  0.24227406  0.62368398  0.49281003  1
  O  O269  1  0.24580289  0.62884798  0.99844873  1
  O  O270  1  0.74395175  0.13713973  0.48723161  1
  O  O271  1  0.74544881  0.13186368  0.99381431  1
  O  O272  1  0.75190427  0.63872363  0.50063665  1
  O  O273  1  0.74432017  0.63184956  0.99537398  1
  O  O274  1  0.25166485  0.37136107  0.00950536  1
  O  O275  1  0.25598854  0.36920709  0.50453078  1
  O  O276  1  0.26065830  0.87641544  0.00674490  1
  O  O277  1  0.25880838  0.87387925  0.51013118  1
  O  O278  1  0.75680502  0.36945953  0.00520592  1
  O  O279  1  0.75535377  0.36320903  0.49669167  1
  O  O280  1  0.75483985  0.86856413  0.00527042  1
  O  O281  1  0.75953215  0.86536078  0.50604665  1
  O  O282  1  0.12963774  0.49386846  0.24259243  1
  O  O283  1  0.13391748  0.48893662  0.74886843  1
  O  O284  1  0.12971551  0.99520711  0.24518680  1
  O  O285  1  0.13082862  0.99697304  0.73619741  1
  O  O286  1  0.62990888  0.49549988  0.24366187  1
  O  O287  1  0.64323424  0.50704031  0.75468350  1
  O  O288  1  0.62602969  0.99814305  0.23827156  1
  O  O289  1  0.62870013  0.99514780  0.74622067  1
  O  O290  1  0.36929168  0.00471350  0.25140237  1
  O  O291  1  0.37135975  0.00598489  0.75362109  1
  O  O292  1  0.36670051  0.50709034  0.25108617  1
  O  O293  1  0.36610631  0.49862181  0.75621784  1
  O  O294  1  0.87069240  0.00696093  0.25796767  1
  O  O295  1  0.86905161  0.00726518  0.75452920  1
  O  O296  1  0.86876033  0.50424469  0.25504811  1
  O  O297  1  0.86789468  0.50612384  0.76118972  1
  O  O298  1  0.11936257  0.37027550  0.36988470  1
  O  O299  1  0.11750051  0.37616924  0.86759613  1
  O  O300  1  0.12234743  0.87307264  0.36878168  1
  O  O301  1  0.11191686  0.87871720  0.87346107  1
  O  O302  1  0.62285891  0.37062921  0.36428505  1
  O  O303  1  0.61645499  0.36805056  0.87950111  1
  O  O304  1  0.63166348  0.86171274  0.37538086  1
  O  O305  1  0.62419127  0.86778456  0.86940938  1
  O  O306  1  0.37924359  0.12886528  0.13129468  1
  O  O307  1  0.38100441  0.12973247  0.63007690  1
  O  O308  1  0.38203863  0.62880995  0.12972870  1
  O  O309  1  0.37366503  0.63930611  0.62681320  1
  O  O310  1  0.87873245  0.13091846  0.12847971  1
  O  O311  1  0.87494335  0.13327275  0.63707177  1
  O  O312  1  0.88108753  0.62913828  0.13069184  1
  O  O313  1  0.88129978  0.63201347  0.63041275  1
  O  O314  1  0.25592329  0.25647297  0.12652749  1
  O  O315  1  0.25605925  0.25417340  0.62003514  1
  O  O316  1  0.25812740  0.75744907  0.12753494  1
  O  O317  1  0.25807444  0.76016200  0.62597065  1
  O  O318  1  0.75528414  0.25562887  0.11923529  1
  O  O319  1  0.75917302  0.24786675  0.61463239  1
  O  O320  1  0.75426403  0.75396663  0.12023271  1
  O  O321  1  0.75462226  0.75524542  0.61871542  1
  O  O322  1  0.24315193  0.24432805  0.37953810  1
  O  O323  1  0.24718730  0.24180540  0.87538038  1
  O  O324  1  0.24678945  0.73668847  0.37683178  1
  O  O325  1  0.24834339  0.74621350  0.87491701  1
  O  O326  1  0.75168122  0.24198516  0.38230489  1
  O  O327  1  0.74637271  0.24630191  0.87962635  1
  O  O328  1  0.74382263  0.74871235  0.38445272  1
  O  O329  1  0.74508462  0.74449203  0.88074827  1
  O  O330  1  0.00832762  0.12430805  0.00437433  1
  O  O331  1  -0.00619088  0.12564138  0.49829033  1
  O  O332  1  -0.00150863  0.63086168  0.01682241  1
  O  O333  1  0.00655546  0.62157619  0.50388697  1
  O  O334  1  0.50756875  0.12516699  0.00672643  1
  O  O335  1  0.50492068  0.11724790  0.50578612  1
  O  O336  1  0.50573738  0.63348503  0.01365115  1
  O  O337  1  0.49636538  0.61304397  0.50182295  1
  O  O338  1  0.48869836  0.38098198  0.49901963  1
  O  O339  1  0.49699108  0.36902676  0.98544835  1
  O  O340  1  0.49127443  0.88540125  0.50795298  1
  O  O341  1  0.48697728  0.87634862  0.99986451  1
  O  O342  1  0.99356803  0.38170831  0.49400362  1
  O  O343  1  0.99428909  0.37003840  0.98834325  1
  O  O344  1  0.98584519  0.86308412  0.49759131  1
  O  O345  1  0.99228636  0.87592806  0.99196514  1
  O  O346  1  0.49515328  0.49737336  0.38385116  1
  O  O347  1  0.49155386  0.48817546  0.86365179  1
  O  O348  1  0.50038619  1.00443007  0.38870839  1
  O  O349  1  0.49252244  0.99785540  0.87725985  1
  O  O350  1  0.99403383  0.49557919  0.37936447  1
  O  O351  1  0.98836781  0.49056810  0.86927452  1
  O  O352  1  0.98559965  0.99944213  0.36781431  1
  O  O353  1  0.99257129  0.98960836  0.87560665  1
  O  O354  1  0.00550725  0.00748224  0.12411512  1
  O  O355  1  0.00896120  -0.00341795  0.62702194  1
  O  O356  1  0.00847184  0.50953992  0.13331817  1
  O  O357  1  -0.00111154  0.50709278  0.61828248  1
  O  O358  1  0.50961443  0.00632293  0.12297951  1
  O  O359  1  0.50674729  0.00564435  0.61767234  1
  O  O360  1  0.50573199  0.51347539  0.13260978  1
  O  O361  1  0.49623599  0.50115987  0.61453318  1
  O  O362  1  0.24363187  0.38005027  0.24524413  1
  O  O363  1  0.24287761  0.38062967  0.74575915  1
  O  O364  1  0.24446368  0.87984313  0.24523819  1
  O  O365  1  0.25091233  0.88229503  0.73808981  1
  O  O366  1  0.74480078  0.37990915  0.24289654  1
  O  O367  1  0.75597532  0.39054937  0.75419549  1
  O  O368  1  0.74569552  0.87645475  0.24101935  1
  O  O369  1  0.74524406  0.87910977  0.74646009  1
  O  O370  1  0.25412246  0.11907019  0.25593386  1
  O  O371  1  0.25690794  0.12067706  0.75446306  1
  O  O372  1  0.25341460  0.62107964  0.25657605  1
  O  O373  1  0.25026411  0.61042307  0.74837996  1
  O  O374  1  0.75442034  0.12603736  0.26010976  1
  O  O375  1  0.75859149  0.11986258  0.75591657  1
  O  O376  1  0.75676741  0.61845513  0.24915682  1
  O  O377  1  0.75759300  0.61949982  0.75768199  1
  O  O378  1  0.36755333  0.12266229  0.36738948  1
  O  O379  1  0.37042436  0.12030167  0.87003234  1
  O  O380  1  0.36372280  0.62455836  0.36924836  1
  O  O381  1  0.37560522  0.61298301  0.87049962  1
  O  O382  1  0.86663665  0.11931373  0.36939124  1
  O  O383  1  0.86843918  0.12099208  0.86914317  1
  O  O384  1  0.87335513  0.61827096  0.36812695  1
  O  O385  1  0.87179673  0.61846821  0.87248136  1
  O  O386  1  0.12759710  0.38093622  0.13105187  1
  O  O387  1  0.12975686  0.37673318  0.63328578  1
  O  O388  1  0.12953861  0.88119700  0.13052658  1
  O  O389  1  0.13392840  0.88500405  0.62402200  1
  O  O390  1  0.63005590  0.38038809  0.12850417  1
  O  O391  1  0.63147735  0.38253418  0.62406576  1
  O  O392  1  0.62939796  0.88427296  0.12243353  1
  O  O393  1  0.63035034  0.87918116  0.63182103  1
  O  O394  1  0.11870554  0.25567101  0.25527463  1
  O  O395  1  0.12343059  0.26186743  0.74940600  1
  O  O396  1  0.11521189  0.75567678  0.24935948  1
  O  O397  1  0.11556106  0.75489270  0.75101289  1
  O  O398  1  0.61785366  0.25640951  0.24843070  1
  O  O399  1  0.61483468  0.24176436  0.75474265  1
  O  O400  1  0.61698382  0.75136300  0.25816666  1
  O  O401  1  0.61906531  0.75423963  0.75430241  1
  O  O402  1  0.37968822  0.24368346  0.24363777  1
  O  O403  1  0.38402991  0.24458123  0.74372072  1
  O  O404  1  0.38198830  0.74472969  0.24528752  1
  O  O405  1  0.38426052  0.75265999  0.74130546  1
  O  O406  1  0.87953943  0.24568259  0.24360819  1
  O  O407  1  0.87319127  0.24218218  0.74160466  1
  O  O408  1  0.88108488  0.74608949  0.24527669  1
  O  O409  1  0.87963951  0.74469163  0.74473531  1
  O  O410  1  0.37967182  0.48966630  0.49911405  1
  O  O411  1  0.37133656  0.49734286  0.98599126  1
  O  O412  1  0.38469684  0.99171722  0.49981568  1
  O  O413  1  0.37560695  0.99156565  0.99512421  1
  O  O414  1  0.87872092  0.49630985  0.49488577  1
  O  O415  1  0.86633843  0.49444204  0.98734811  1
  O  O416  1  0.87434264  0.98789731  0.49196124  1
  O  O417  1  0.87495493  0.99378181  0.99304258  1
  O  O418  1  0.12349205  0.01045644  0.00678688  1
  O  O419  1  0.12763199  0.00097624  0.51603942  1
  O  O420  1  0.12766760  0.49820951  0.01522909  1
  O  O421  1  0.11844496  0.50984329  0.50104224  1
  O  O422  1  0.62457786  0.00663402  0.00856403  1
  O  O423  1  0.61936022  0.00319861  0.50515559  1
  O  O424  1  0.63309179  0.50973206  0.00899087  1
  O  O425  1  0.61116415  0.50003270  0.49716059  1
  O  O426  1  0.36832581  0.36913188  0.12475957  1
  O  O427  1  0.36918212  0.36791146  0.61555617  1
  O  O428  1  0.36974622  0.87073713  0.11756469  1
  O  O429  1  0.36790111  0.86833679  0.61737672  1
  O  O430  1  0.87018838  0.37055355  0.12034389  1
  O  O431  1  0.86738199  0.36686980  0.61997543  1
  O  O432  1  0.86916405  0.86996715  0.12008042  1
  O  O433  1  0.87028967  0.87012985  0.61842639  1
  O  O434  1  0.13072379  0.13182458  0.37775740  1
  O  O435  1  0.12990924  0.12320391  0.88253043  1
  O  O436  1  0.13172546  0.62542076  0.38252266  1
  O  O437  1  0.12773985  0.62494049  0.87906458  1
  O  O438  1  0.63456073  0.12566535  0.37904349  1
  O  O439  1  0.63124707  0.13210744  0.87988681  1
  O  O440  1  0.62843582  0.63878954  0.37969429  1
  O  O441  1  0.62970367  0.63087766  0.88162214  1
