# generated using pymatgen
data_V93Zn93O256
_symmetry_space_group_name_H-M   'P 1'
_cell_length_a   17.05143735
_cell_length_b   17.05466249
_cell_length_c   17.05403957
_cell_angle_alpha   90.00645434
_cell_angle_beta   90.03566818
_cell_angle_gamma   90.02029339
_symmetry_Int_Tables_number   1
_chemical_formula_structural   V93Zn93O256
_chemical_formula_sum   'V93 Zn93 O256'
_cell_volume   4959.42440649
_cell_formula_units_Z   1
loop_
 _symmetry_equiv_pos_site_id
 _symmetry_equiv_pos_as_xyz
  1  'x, y, z'
loop_
 _atom_site_type_symbol
 _atom_site_label
 _atom_site_symmetry_multiplicity
 _atom_site_fract_x
 _atom_site_fract_y
 _atom_site_fract_z
 _atom_site_occupancy
  V  V0  1  0.49526221  -0.00264802  0.49742104  1
  V  V1  1  0.26007177  0.11816072  0.36864165  1
  V  V2  1  0.74961830  0.37514525  0.62484354  1
  V  V3  1  0.50159070  0.74830135  0.25053451  1
  V  V4  1  0.24881878  0.24948471  0.49951148  1
  V  V5  1  0.50033207  0.62397309  0.12472461  1
  V  V6  1  -0.00393107  -0.00604362  0.50047009  1
  V  V7  1  0.87352464  0.37519836  0.00042626  1
  V  V8  1  0.87130026  0.12084022  0.74971344  1
  V  V9  1  0.24969847  0.75053974  0.49980146  1
  V  V10  1  -0.00087733  0.50285155  0.00363680  1
  V  V11  1  0.74901129  -0.00045577  0.25045987  1
  V  V12  1  0.74931577  0.24936533  0.49830121  1
  V  V13  1  0.12466765  0.62625150  0.49971321  1
  V  V14  1  0.62587938  0.62538179  0.50003225  1
  V  V15  1  0.49964522  0.50012503  -0.00082163  1
  V  V16  1  0.25003894  0.74985368  0.00145893  1
  V  V17  1  0.50049792  0.62547494  0.62428804  1
  V  V18  1  0.37431749  0.37545476  0.49991394  1
  V  V19  1  0.37549130  0.24660094  0.12972086  1
  V  V20  1  0.74926783  0.12049729  0.87140250  1
  V  V21  1  0.50003015  0.37400967  0.37469782  1
  V  V22  1  0.50030852  0.12505795  0.62527051  1
  V  V23  1  0.12193767  0.75098506  0.36737362  1
  V  V24  1  0.37619421  0.87585980  -0.00179187  1
  V  V25  1  0.49301657  0.87687877  0.37430376  1
  V  V26  1  0.88799768  0.74720579  0.12732216  1
  V  V27  1  0.37393235  0.49981690  0.37459358  1
  V  V28  1  0.12469081  0.87478630  0.75161396  1
  V  V29  1  0.62441409  0.37477110  0.74931659  1
  V  V30  1  0.62527717  0.75088377  0.87400201  1
  V  V31  1  0.12474099  -0.00028800  0.62444366  1
  V  V32  1  -0.00144953  0.62671215  0.62554223  1
  V  V33  1  0.12363724  0.12430307  0.50080157  1
  V  V34  1  -0.00256611  0.12539132  0.12714974  1
  V  V35  1  0.25060209  0.37328092  0.12264129  1
  V  V36  1  -0.00267790  0.25006039  0.25120738  1
  V  V37  1  0.11995497  0.62589013  0.00526267  1
  V  V38  1  0.37430467  0.12353628  0.75188629  1
  V  V39  1  -0.00097576  0.37532613  0.87495483  1
  V  V40  1  0.37551303  0.62329470  0.25001349  1
  V  V41  1  0.62325254  0.12273223  -0.00048077  1
  V  V42  1  0.49718390  0.12429225  0.12839146  1
  V  V43  1  0.12974099  0.00078186  0.13432239  1
  V  V44  1  0.37450014  0.62632149  0.75008380  1
  V  V45  1  0.75045943  0.62515576  0.87456021  1
  V  V46  1  0.74958307  0.50329223  0.25023098  1
  V  V47  1  0.75070813  0.74980702  0.00082614  1
  V  V48  1  0.25041356  0.87561274  0.62550842  1
  V  V49  1  0.37513496  0.25003776  0.62517855  1
  V  V50  1  0.75771355  0.75306312  0.49976168  1
  V  V51  1  0.50026299  0.50093124  0.50027094  1
  V  V52  1  0.62452742  0.49865403  0.12497673  1
  V  V53  1  0.88883859  0.62787410  0.24620937  1
  V  V54  1  0.50130503  0.75070183  0.74937467  1
  V  V55  1  0.37504513  0.75181518  0.62422326  1
  V  V56  1  0.87518642  0.50083231  0.87589619  1
  V  V57  1  0.63045007  0.00029728  0.62909608  1
  V  V58  1  0.63051367  0.87736795  0.74991340  1
  V  V59  1  0.87481180  0.24926457  0.62461012  1
  V  V60  1  0.75019090  0.87365680  0.12569405  1
  V  V61  1  -0.00134488  0.24996599  0.75005814  1
  V  V62  1  0.00015150  -0.00067729  0.00145854  1
  V  V63  1  0.12689414  0.12546011  0.00000567  1
  V  V64  1  0.87527492  0.37566960  0.49876301  1
  V  V65  1  0.62434620  0.24876695  0.37413162  1
  V  V66  1  0.62467102  0.12467247  0.49833304  1
  V  V67  1  0.00034082  0.87488896  0.87470942  1
  V  V68  1  0.62639631  0.74854608  0.37598639  1
  V  V69  1  0.12505156  0.24935697  0.87579997  1
  V  V70  1  0.12117524  0.50148480  0.12519128  1
  V  V71  1  0.87537673  0.87392741  0.00058726  1
  V  V72  1  0.24883247  0.62485869  0.87665477  1
  V  V73  1  0.49988951  0.37422942  0.87428329  1
  V  V74  1  0.37523668  0.74950208  0.12463426  1
  V  V75  1  0.75156724  0.24967540  0.00091169  1
  V  V76  1  0.12350403  0.37456536  0.25015458  1
  V  V77  1  0.00010769  0.87273383  0.36836876  1
  V  V78  1  0.87580333  0.62694324  0.74859683  1
  V  V79  1  0.12491729  0.50060301  0.62560321  1
  V  V80  1  0.62531599  0.62514877  -0.00050178  1
  V  V81  1  0.75057344  0.49971815  0.74974595  1
  V  V82  1  -0.00137472  0.49920417  0.49944024  1
  V  V83  1  0.24904072  0.37603219  0.62491471  1
  V  V84  1  0.37457712  0.50005927  0.87499300  1
  V  V85  1  0.25021931  0.49948429  0.25044831  1
  V  V86  1  0.12367636  0.24923603  0.37556959  1
  V  V87  1  0.75522559  0.87582588  0.62101136  1
  V  V88  1  0.87228213  -0.00605624  0.37924188  1
  V  V89  1  0.62469748  0.37432021  0.24987738  1
  V  V90  1  0.87350435  -0.00011935  0.87420216  1
  V  V91  1  0.24869975  0.50042928  0.74963367  1
  V  V92  1  0.62585572  0.87253752  0.24992981  1
  Zn  Zn93  1  0.62421279  0.24856123  0.87386868  1
  Zn  Zn94  1  0.37507304  0.37422403  -0.00045470  1
  Zn  Zn95  1  0.87112978  0.12564004  0.25126761  1
  Zn  Zn96  1  0.12968409  0.87521498  0.24977515  1
  Zn  Zn97  1  0.12480334  0.37454241  0.75038906  1
  Zn  Zn98  1  0.62545197  0.50092577  0.62339892  1
  Zn  Zn99  1  0.49959513  0.24969096  0.75021252  1
  Zn  Zn100  1  0.25191351  0.12428506  0.87431905  1
  Zn  Zn101  1  0.49951066  -0.00086732  -0.00249073  1
  Zn  Zn102  1  0.87388646  0.25201442  0.12702334  1
  Zn  Zn103  1  0.24930755  0.62638203  0.37452267  1
  Zn  Zn104  1  0.25243047  0.87794606  0.12961137  1
  Zn  Zn105  1  -0.00191447  0.37591142  0.37519731  1
  Zn  Zn106  1  0.62305774  -0.00105850  0.12480597  1
  Zn  Zn107  1  0.49696588  0.24682062  0.25210410  1
  Zn  Zn108  1  0.37464726  0.00089128  0.87600014  1
  Zn  Zn109  1  0.25239143  0.24965542  -0.00041559  1
  Zn  Zn110  1  0.50021063  0.87811353  0.87385925  1
  Zn  Zn111  1  0.28543761  -0.00628367  0.26013726  1
  Zn  Zn112  1  0.37260594  0.87759048  0.49795023  1
  Zn  Zn113  1  0.87881245  0.75577770  0.62250677  1
  Zn  Zn114  1  0.12341577  0.74986221  0.87675822  1
  Zn  Zn115  1  -0.00132273  0.12413121  0.62432746  1
  Zn  Zn116  1  -0.00156606  0.75057139  0.74932798  1
  Zn  Zn117  1  0.25055813  0.00055227  0.75262564  1
  Zn  Zn118  1  0.74810713  0.12335574  0.37324335  1
  Zn  Zn119  1  0.75303302  0.62597222  0.37583312  1
  Zn  Zn120  1  0.87615581  0.50085112  0.37365622  1
  Zn  Zn121  1  0.74961007  0.37381877  0.12516113  1
  Zn  Zn122  1  0.18830084  0.18692566  0.19040763  1
  Zn  Zn123  1  0.18769609  0.18673994  0.68723029  1
  Zn  Zn124  1  0.18943016  0.68628348  0.18655772  1
  Zn  Zn125  1  0.18654256  0.68923597  0.68723288  1
  Zn  Zn126  1  0.68370813  0.18643183  0.18672083  1
  Zn  Zn127  1  0.68702108  0.18921124  0.68655834  1
  Zn  Zn128  1  0.69133566  0.68686332  0.18640796  1
  Zn  Zn129  1  0.68871959  0.68962561  0.68514515  1
  Zn  Zn130  1  0.31103797  0.30953710  0.31232702  1
  Zn  Zn131  1  0.31156292  0.31103122  0.81100992  1
  Zn  Zn132  1  0.30964904  0.81117561  0.31035911  1
  Zn  Zn133  1  0.31039944  0.81188605  0.81413723  1
  Zn  Zn134  1  0.81117990  0.31452226  0.31398763  1
  Zn  Zn135  1  0.81235869  0.31014637  0.81357233  1
  Zn  Zn136  1  0.81479832  0.81099373  0.31259352  1
  Zn  Zn137  1  0.81267017  0.81200713  0.81016929  1
  Zn  Zn138  1  0.18554143  0.43745907  0.43696815  1
  Zn  Zn139  1  0.18530769  0.43842689  0.93782831  1
  Zn  Zn140  1  0.18596237  0.93711282  0.43796077  1
  Zn  Zn141  1  0.19199428  0.94014037  0.93775845  1
  Zn  Zn142  1  0.68797094  0.43765140  0.43545932  1
  Zn  Zn143  1  0.68680380  0.43760825  0.93681841  1
  Zn  Zn144  1  0.68273714  0.93515900  0.43865253  1
  Zn  Zn145  1  0.68894590  0.93770867  0.93675202  1
  Zn  Zn146  1  0.31287446  0.06106230  0.06552980  1
  Zn  Zn147  1  0.31052635  0.06349244  0.56281516  1
  Zn  Zn148  1  0.31112335  0.56155763  0.06219252  1
  Zn  Zn149  1  0.31183896  0.56444860  0.56185225  1
  Zn  Zn150  1  0.81150670  0.06121327  0.06236806  1
  Zn  Zn151  1  0.81158706  0.06298815  0.56089735  1
  Zn  Zn152  1  0.81293356  0.56355603  0.06548811  1
  Zn  Zn153  1  0.81252704  0.56335125  0.56286725  1
  Zn  Zn154  1  0.43735638  0.43496633  0.18788846  1
  Zn  Zn155  1  0.43631880  0.43947119  0.68699887  1
  Zn  Zn156  1  0.43902412  0.93945586  0.18328060  1
  Zn  Zn157  1  0.44051499  0.93832799  0.68627976  1
  Zn  Zn158  1  0.93537714  0.43784476  0.18523752  1
  Zn  Zn159  1  0.93774754  0.43786323  0.68711246  1
  Zn  Zn160  1  0.93721282  0.93665369  0.18950752  1
  Zn  Zn161  1  0.93862128  0.93948093  0.68901844  1
  Zn  Zn162  1  0.06248734  0.06444265  0.31708157  1
  Zn  Zn163  1  0.05944863  0.06187156  0.81175201  1
  Zn  Zn164  1  0.06407986  0.56130764  0.31487644  1
  Zn  Zn165  1  0.06231620  0.56363249  0.81412274  1
  Zn  Zn166  1  0.55656375  0.06024088  0.31139181  1
  Zn  Zn167  1  0.55837675  0.06032354  0.81384806  1
  Zn  Zn168  1  0.56331039  0.56197700  0.31430278  1
  Zn  Zn169  1  0.56288169  0.56226788  0.81134497  1
  Zn  Zn170  1  0.43886513  0.18761588  0.43975445  1
  Zn  Zn171  1  0.43605325  0.19148711  0.94058283  1
  Zn  Zn172  1  0.43713182  0.68840105  0.43736419  1
  Zn  Zn173  1  0.43810058  0.68957669  0.93604993  1
  Zn  Zn174  1  0.93440246  0.18198745  0.43627517  1
  Zn  Zn175  1  0.93761133  0.18762495  0.93762227  1
  Zn  Zn176  1  0.93884117  0.68596541  0.43390120  1
  Zn  Zn177  1  0.93895038  0.68948097  0.93684060  1
  Zn  Zn178  1  0.06065926  0.31424080  0.06276297  1
  Zn  Zn179  1  0.06131336  0.31281139  0.56341366  1
  Zn  Zn180  1  0.06621688  0.81571875  0.06311830  1
  Zn  Zn181  1  0.06279763  0.81213788  0.56001433  1
  Zn  Zn182  1  0.56311431  0.31020900  0.06193977  1
  Zn  Zn183  1  0.56203805  0.31231464  0.56198391  1
  Zn  Zn184  1  0.56182016  0.81232290  0.06289632  1
  Zn  Zn185  1  0.56533897  0.81239577  0.56137311  1
  O  O186  1  0.11623363  0.12145582  0.11878013  1
  O  O187  1  0.12244415  0.11841228  0.61924123  1
  O  O188  1  0.13198517  0.61747221  0.11298110  1
  O  O189  1  0.11924412  0.62015790  0.61989011  1
  O  O190  1  0.61823645  0.12502390  0.11295448  1
  O  O191  1  0.62179300  0.11806765  0.62081751  1
  O  O192  1  0.61949882  0.61988045  0.11876841  1
  O  O193  1  0.61806310  0.62383474  0.61907160  1
  O  O194  1  0.37910943  0.37926985  0.38032620  1
  O  O195  1  0.38391696  0.38082288  0.87416695  1
  O  O196  1  0.39046379  0.86536829  0.37742521  1
  O  O197  1  0.37666138  0.87244191  0.88630741  1
  O  O198  1  0.87756202  0.37805137  0.38346642  1
  O  O199  1  0.87903633  0.38118600  0.88005508  1
  O  O200  1  0.88379133  0.88552835  0.36978437  1
  O  O201  1  0.87820582  0.88013034  0.88006903  1
  O  O202  1  0.24607951  0.01470074  0.37721847  1
  O  O203  1  0.25577458  0.00683908  0.87091443  1
  O  O204  1  0.25596945  0.50027691  0.36823547  1
  O  O205  1  0.25472119  0.50431597  0.87010165  1
  O  O206  1  0.75542618  -0.00437779  0.36820091  1
  O  O207  1  0.75722266  0.01351080  0.88052452  1
  O  O208  1  0.75235863  0.50200411  0.36251483  1
  O  O209  1  0.75548880  0.50590602  0.87016944  1
  O  O210  1  0.24425999  0.49104679  0.13037426  1
  O  O211  1  0.24505322  0.49605330  0.62983663  1
  O  O212  1  0.23924571  1.00246199  0.13065267  1
  O  O213  1  0.24193330  0.99309144  0.62561060  1
  O  O214  1  0.74213831  0.49939245  0.13323524  1
  O  O215  1  0.74853463  0.49245256  0.63206942  1
  O  O216  1  0.75016191  0.99290525  0.13454125  1
  O  O217  1  0.73721782  0.99192646  0.61565274  1
  O  O218  1  0.00407539  0.36449370  0.24897022  1
  O  O219  1  0.00055220  0.36846211  0.75730375  1
  O  O220  1  0.00568399  0.88119308  0.26437315  1
  O  O221  1  0.00865149  0.87584008  0.75586789  1
  O  O222  1  0.50720206  0.37437815  0.25757640  1
  O  O223  1  0.50734651  0.37732127  0.75723887  1
  O  O224  1  0.50716203  0.86649628  0.25605662  1
  O  O225  1  0.51302528  0.86837706  0.74832685  1
  O  O226  1  0.51211928  0.12963795  0.23210742  1
  O  O227  1  0.49278070  0.12798083  0.74329816  1
  O  O228  1  0.49582826  0.62844967  0.24417515  1
  O  O229  1  0.49456604  0.62998478  0.74483893  1
  O  O230  1  1.00023902  0.13382269  0.24227187  1
  O  O231  1  0.98810012  0.13170247  0.74944934  1
  O  O232  1  0.98692881  0.61930665  0.24931427  1
  O  O233  1  0.99412878  0.62559668  0.74421959  1
  O  O234  1  0.37065167  0.25607079  0.01118919  1
  O  O235  1  0.36915179  0.25686072  0.50628541  1
  O  O236  1  0.37028150  0.75427152  0.00515097  1
  O  O237  1  0.36844455  0.75059915  0.50719597  1
  O  O238  1  0.86686717  0.25513312  -0.00005007  1
  O  O239  1  0.86956421  0.25360821  0.50452908  1
  O  O240  1  0.86970958  0.75387833  0.00719607  1
  O  O241  1  0.86142890  0.74459983  0.49975376  1
  O  O242  1  0.12909398  0.24526191  0.49609275  1
  O  O243  1  0.12168314  0.24158883  0.99227724  1
  O  O244  1  0.13121002  0.74509794  0.49247504  1
  O  O245  1  0.13060380  0.74143695  1.00165716  1
  O  O246  1  0.62947101  0.24495289  0.49465865  1
  O  O247  1  0.63458925  0.24091192  0.99656148  1
  O  O248  1  0.63305255  0.74379441  0.49537380  1
  O  O249  1  0.63085183  0.74449175  0.99477165  1
  O  O250  1  0.49196042  0.24398634  0.12457976  1
  O  O251  1  0.49318820  0.24330182  0.62453098  1
  O  O252  1  0.49598634  0.74225131  0.13094278  1
  O  O253  1  0.49572408  0.74489834  0.62972126  1
  O  O254  1  1.00062193  0.24166115  0.13367560  1
  O  O255  1  0.99229573  0.24750416  0.63122374  1
  O  O256  1  0.98657276  0.75599255  0.12124627  1
  O  O257  1  0.99718376  0.74349632  0.62504652  1
  O  O258  1  0.00414643  0.24743289  0.36518042  1
  O  O259  1  0.00648961  0.25498182  0.87101889  1
  O  O260  1  0.00983218  0.76180084  0.38425551  1
  O  O261  1  0.00300435  0.75995852  0.87252088  1
  O  O262  1  0.50549465  0.25598843  0.37420971  1
  O  O263  1  0.50196711  0.26394145  0.87338098  1
  O  O264  1  0.50674216  0.75585092  0.36992502  1
  O  O265  1  0.50849231  0.75101243  0.86696204  1
  O  O266  1  0.24309205  0.13080945  0.49370013  1
  O  O267  1  0.23522796  0.12723557  1.00097283  1
  O  O268  1  0.24263556  0.63175644  0.49864408  1
  O  O269  1  0.24213281  0.62862528  0.99551405  1
  O  O270  1  0.74192526  0.13152898  0.49764847  1
  O  O271  1  0.74484841  0.13114644  0.99271363  1
  O  O272  1  0.74391530  0.63347806  0.49894029  1
  O  O273  1  0.74473510  0.62959448  0.99450577  1
  O  O274  1  0.24807505  0.37456400  0.01313094  1
  O  O275  1  0.25500461  0.37008566  0.50495437  1
  O  O276  1  0.25870512  0.86757514  0.00305489  1
  O  O277  1  0.25178923  0.86930480  0.50672130  1
  O  O278  1  0.75366730  0.36482399  -0.00229315  1
  O  O279  1  0.75443235  0.36955846  0.50529066  1
  O  O280  1  0.75622165  0.86969131  0.00472687  1
  O  O281  1  0.74161778  0.86467920  0.50980556  1
  O  O282  1  0.12993564  0.49471065  0.24502522  1
  O  O283  1  0.13121015  0.49922060  0.74417528  1
  O  O284  1  0.11965711  1.00394445  0.23800813  1
  O  O285  1  0.12335397  0.99075994  0.74393062  1
  O  O286  1  0.63135862  0.49551834  0.24542637  1
  O  O287  1  0.63117757  0.49016411  0.74887146  1
  O  O288  1  0.63503500  0.99178450  0.25036649  1
  O  O289  1  0.61968973  0.99134827  0.73867397  1
  O  O290  1  0.39402126  0.00648789  0.25534451  1
  O  O291  1  0.37584583  0.01270990  0.74783951  1
  O  O292  1  0.37045491  0.50365459  0.25493846  1
  O  O293  1  0.36881253  0.50714369  0.75504069  1
  O  O294  1  0.86371702  -0.00046825  0.25782002  1
  O  O295  1  0.88035833  0.01384893  0.75721836  1
  O  O296  1  0.86728477  0.51157563  0.24609990  1
  O  O297  1  0.86965847  0.50538691  0.75665413  1
  O  O298  1  0.12269835  0.36737243  0.36790097  1
  O  O299  1  0.11833545  0.36512291  0.87557339  1
  O  O300  1  0.11814641  0.86751411  0.37392286  1
  O  O301  1  0.11980530  0.87701478  0.86734526  1
  O  O302  1  0.61892887  0.36905786  0.37048266  1
  O  O303  1  0.61691742  0.37597382  0.86585773  1
  O  O304  1  0.61597573  0.86702835  0.36925480  1
  O  O305  1  0.62762857  0.86983836  0.86577514  1
  O  O306  1  0.38592227  0.13538581  0.11436664  1
  O  O307  1  0.38016613  0.13072063  0.63139344  1
  O  O308  1  0.38146091  0.62828556  0.12965949  1
  O  O309  1  0.38016409  0.63119375  0.63102824  1
  O  O310  1  0.88797072  0.12538096  0.12566905  1
  O  O311  1  0.87247636  0.12988240  0.63446740  1
  O  O312  1  0.87124234  0.63313118  0.13668852  1
  O  O313  1  0.88156877  0.62522307  0.63227324  1
  O  O314  1  0.25524413  0.25767021  0.12571064  1
  O  O315  1  0.25427921  0.25614946  0.61883581  1
  O  O316  1  0.25826312  0.75086997  0.11881948  1
  O  O317  1  0.25481096  0.75559943  0.61977012  1
  O  O318  1  0.75160809  0.24847926  0.11199644  1
  O  O319  1  0.75496236  0.25584877  0.61846945  1
  O  O320  1  0.75766558  0.75535703  0.11852495  1
  O  O321  1  0.75110597  0.75870718  0.61604437  1
  O  O322  1  0.24288601  0.24308421  0.38074720  1
  O  O323  1  0.23718616  0.24855554  0.87786023  1
  O  O324  1  0.24090265  0.74892812  0.38221322  1
  O  O325  1  0.24703900  0.74193096  0.88323457  1
  O  O326  1  0.74254709  0.24775513  0.38099527  1
  O  O327  1  0.75007081  0.23916672  0.88498333  1
  O  O328  1  0.74409080  0.75128996  0.38340876  1
  O  O329  1  0.74526680  0.74444626  0.88107098  1
  O  O330  1  0.00715457  0.12092801  0.00816547  1
  O  O331  1  0.00511167  0.11345703  0.50039940  1
  O  O332  1  0.01154879  0.61894238  -0.00599209  1
  O  O333  1  0.00490131  0.61911436  0.50537796  1
  O  O334  1  0.51133084  0.12858312  0.00484420  1
  O  O335  1  0.50542957  0.11698774  0.50528382  1
  O  O336  1  0.50580967  0.62012569  0.00422589  1
  O  O337  1  0.50480867  0.62043230  0.50504559  1
  O  O338  1  0.49376098  0.38059145  0.49494552  1
  O  O339  1  0.50253722  0.38187979  0.98882811  1
  O  O340  1  0.50123715  0.88069545  0.49215778  1
  O  O341  1  0.48980957  0.87303720  0.99781016  1
  O  O342  1  0.99269435  0.38104737  0.50047853  1
  O  O343  1  0.99353277  0.38107797  0.99387654  1
  O  O344  1  1.00588027  0.88842805  0.49006017  1
  O  O345  1  0.99444971  0.88073155  0.99482920  1
  O  O346  1  0.49375306  0.49393327  0.38080892  1
  O  O347  1  0.49500049  0.49323498  0.87858645  1
  O  O348  1  0.50943012  0.98785959  0.38670259  1
  O  O349  1  0.49361834  0.99556002  0.88051578  1
  O  O350  1  0.99835413  0.49674875  0.38411487  1
  O  O351  1  0.99394887  0.49485904  0.88182995  1
  O  O352  1  0.99274519  0.99409161  0.38155947  1
  O  O353  1  0.99330704  0.99499757  0.88236422  1
  O  O354  1  0.00570061  0.00818431  0.12111818  1
  O  O355  1  0.00428333  0.00038502  0.61549255  1
  O  O356  1  0.00940033  0.49254973  0.11616557  1
  O  O357  1  0.00564363  0.50560596  0.61963485  1
  O  O358  1  0.50509176  0.01115548  0.11572663  1
  O  O359  1  0.51197616  0.00407283  0.61735869  1
  O  O360  1  0.50468979  0.50464339  0.11944372  1
  O  O361  1  0.50025848  0.50724920  0.61797143  1
  O  O362  1  0.24404715  0.37894238  0.24103027  1
  O  O363  1  0.24874665  0.38240080  0.74311983  1
  O  O364  1  0.24813076  0.88308634  0.24839254  1
  O  O365  1  0.24040352  0.87623837  0.74480221  1
  O  O366  1  0.74470199  0.38592892  0.24789875  1
  O  O367  1  0.74312827  0.37885417  0.74676995  1
  O  O368  1  0.74569328  0.88057881  0.24569586  1
  O  O369  1  0.73643114  0.86858644  0.74012878  1
  O  O370  1  0.24656208  0.12507930  0.26665059  1
  O  O371  1  0.26162715  0.12407480  0.74963327  1
  O  O372  1  0.25786353  0.61656300  0.25068838  1
  O  O373  1  0.25470667  0.62060568  0.75557928  1
  O  O374  1  0.74866618  0.11218689  0.25020401  1
  O  O375  1  0.75940224  0.13382796  0.76062886  1
  O  O376  1  0.75355883  0.61413391  0.25125919  1
  O  O377  1  0.75399879  0.61975751  0.75519825  1
  O  O378  1  0.35792408  0.13246495  0.38242355  1
  O  O379  1  0.37533026  0.12941818  0.86364556  1
  O  O380  1  0.37475414  0.61781432  0.36789352  1
  O  O381  1  0.36975904  0.61984715  0.86953452  1
  O  O382  1  0.87044439  0.10951773  0.37100168  1
  O  O383  1  0.86868192  0.12093924  0.86920552  1
  O  O384  1  0.87286730  0.62452603  0.35868559  1
  O  O385  1  0.86940871  0.62010033  0.87021422  1
  O  O386  1  0.13261676  0.37919735  0.13011938  1
  O  O387  1  0.13164131  0.38175057  0.62676599  1
  O  O388  1  0.12719566  0.88731149  0.12746961  1
  O  O389  1  0.12934791  0.87956178  0.63282596  1
  O  O390  1  0.62592352  0.38131961  0.13055685  1
  O  O391  1  0.62981281  0.37612465  0.63385182  1
  O  O392  1  0.63195077  0.87495035  0.13119692  1
  O  O393  1  0.63215315  0.88157829  0.63126340  1
  O  O394  1  0.11549142  0.25459541  0.25446117  1
  O  O395  1  0.11855882  0.24899159  0.76037704  1
  O  O396  1  0.13056260  0.74875119  0.26390652  1
  O  O397  1  0.12316343  0.76343608  0.75207963  1
  O  O398  1  0.62544566  0.25769872  0.25637919  1
  O  O399  1  0.62312671  0.26261469  0.75194145  1
  O  O400  1  0.62140520  0.75271768  0.25471680  1
  O  O401  1  0.62099602  0.75700323  0.75419804  1
  O  O402  1  0.37726253  0.25542113  0.23507669  1
  O  O403  1  0.37648410  0.24217122  0.74257390  1
  O  O404  1  0.38160441  0.74267206  0.24470883  1
  O  O405  1  0.38011608  0.74475003  0.74487237  1
  O  O406  1  0.88395419  0.24759052  0.24880256  1
  O  O407  1  0.87892736  0.24194513  0.74553477  1
  O  O408  1  0.86978334  0.73603464  0.24226419  1
  O  O409  1  0.87668123  0.74154124  0.74638599  1
  O  O410  1  0.37957407  0.49501354  0.49488646  1
  O  O411  1  0.38162800  0.49815218  0.99309761  1
  O  O412  1  0.39165648  0.99772895  0.50951296  1
  O  O413  1  0.37387921  0.98653582  1.00131103  1
  O  O414  1  0.88045459  0.49404682  0.49936765  1
  O  O415  1  0.87834110  0.49654611  0.99503399  1
  O  O416  1  0.88338259  1.00410370  0.49092992  1
  O  O417  1  0.88003307  0.99354350  0.99553437  1
  O  O418  1  0.11964545  0.00881363  0.00871777  1
  O  O419  1  0.11577456  0.00485894  0.50516962  1
  O  O420  1  0.11983302  0.50751696  0.00504645  1
  O  O421  1  0.11995967  0.50564805  0.50601225  1
  O  O422  1  0.62788574  0.01295476  0.00068912  1
  O  O423  1  0.61637707  0.00442249  0.50865636  1
  O  O424  1  0.62008996  0.50615971  0.00411835  1
  O  O425  1  0.61827627  0.50599912  0.50034185  1
  O  O426  1  0.36555011  0.36927486  0.12316451  1
  O  O427  1  0.36909706  0.37113053  0.61959003  1
  O  O428  1  0.37659395  0.86611493  0.11476046  1
  O  O429  1  0.36909078  0.86809981  0.62582443  1
  O  O430  1  0.86987549  0.37225878  0.11562587  1
  O  O431  1  0.86872868  0.36879331  0.62015344  1
  O  O432  1  0.87019067  0.86760001  0.12073047  1
  O  O433  1  0.85896292  0.87753610  0.63373399  1
  O  O434  1  0.13166306  0.13144164  0.38267925  1
  O  O435  1  0.12056281  0.13282440  0.88442700  1
  O  O436  1  0.12480213  0.63414906  0.38148053  1
  O  O437  1  0.13128794  0.62503794  0.88645498  1
  O  O438  1  0.62299468  0.13045728  0.38107913  1
  O  O439  1  0.63294488  0.12578500  0.87991650  1
  O  O440  1  0.62594979  0.63191638  0.38200699  1
  O  O441  1  0.63074123  0.62999711  0.87964212  1
