# generated using pymatgen
data_H2O
_symmetry_space_group_name_H-M   'P 1'
_cell_length_a   17.98356558
_cell_length_b   17.99174140
_cell_length_c   21.99156314
_cell_angle_alpha   89.99438533
_cell_angle_beta   90.00747356
_cell_angle_gamma   120.01228910
_symmetry_Int_Tables_number   1
_chemical_formula_structural   H2O
_chemical_formula_sum   'H384 O192'
_cell_volume   6161.43593821
_cell_formula_units_Z   192
loop_
 _symmetry_equiv_pos_site_id
 _symmetry_equiv_pos_as_xyz
  1  'x, y, z'
loop_
 _atom_type_symbol
 _atom_type_oxidation_number
  H+  1.0
  O2-  -2.0
loop_
 _atom_site_type_symbol
 _atom_site_label
 _atom_site_symmetry_multiplicity
 _atom_site_fract_x
 _atom_site_fract_y
 _atom_site_fract_z
 _atom_site_occupancy
  H+  H0  1  0.89859557  0.26133371  0.36579678  1
  H+  H1  1  0.60798399  0.87665656  1.00237356  1
  H+  H2  1  0.67724929  0.05288674  0.34178780  1
  H+  H3  1  0.58951932  0.72980868  0.49747122  1
  H+  H4  1  -0.01944673  0.11936108  0.84653448  1
  H+  H5  1  0.38644285  0.35857414  0.50678493  1
  H+  H6  1  0.72846460  0.63103946  0.17629728  1
  H+  H7  1  0.12708002  0.48967371  0.99903169  1
  H+  H8  1  -0.02202711  0.11424989  0.66163436  1
  H+  H9  1  0.48672830  0.12122012  0.00078773  1
  H+  H10  1  0.40049647  0.27919597  1.00385510  1
  H+  H11  1  0.47221047  0.85402548  0.00205602  1
  H+  H12  1  0.11151979  0.62938792  0.67514334  1
  H+  H13  1  0.89582146  0.28043788  0.84171974  1
  H+  H14  1  0.37332624  -0.01820586  1.01278639  1
  H+  H15  1  0.22489693  0.37277002  0.84600442  1
  H+  H16  1  0.86209338  -0.01886427  0.98330259  1
  H+  H17  1  0.40388164  0.77732013  0.51409560  1
  H+  H18  1  0.83533494  0.82617370  0.35767309  1
  H+  H19  1  0.63200301  0.51823155  0.65255583  1
  H+  H20  1  0.89524353  0.86722076  0.98573113  1
  H+  H21  1  0.22294713  0.60397529  0.50770748  1
  H+  H22  1  0.60780412  0.71260939  0.67616505  1
  H+  H23  1  0.09275586  0.87566444  0.33447499  1
  H+  H24  1  0.38605076  0.51988793  0.32970833  1
  H+  H25  1  0.64106106  0.00829202  0.49736599  1
  H+  H26  1  0.61341317  0.89926898  0.67869583  1
  H+  H27  1  0.13200256  0.23104283  0.34680738  1
  H+  H28  1  0.13009631  0.39556855  0.18146299  1
  H+  H29  1  0.22693654  0.12489841  0.83693582  1
  H+  H30  1  0.89131837  0.11618900  1.00145609  1
  H+  H31  1  0.15680658  0.57300514  0.93976785  1
  H+  H32  1  0.29571874  0.03253514  0.89446478  1
  H+  H33  1  0.54441125  0.39052816  1.00021156  1
  H+  H34  1  0.47813570  0.61000415  -0.00630396  1
  H+  H35  1  0.38281863  0.11287881  0.69500350  1
  H+  H36  1  0.71140054  0.22394915  0.83534608  1
  H+  H37  1  0.47284886  0.86523062  0.66786624  1
  H+  H38  1  0.13215522  0.35597038  0.32237226  1
  H+  H39  1  0.90651944  0.36507745  0.18592156  1
  H+  H40  1  0.32862491  0.66608323  0.59484051  1
  H+  H41  1  0.11570975  0.73714266  1.00937841  1
  H+  H42  1  0.38029038  0.27173435  0.17424929  1
  H+  H43  1  1.05395338  0.70793180  0.17932236  1
  H+  H44  1  0.42824132  0.04631972  0.51506771  1
  H+  H45  1  0.39106482  0.15088771  0.50673551  1
  H+  H46  1  0.87016798  0.39017108  0.82812844  1
  H+  H47  1  0.11168897  0.76214792  0.31735646  1
  H+  H48  1  0.36014218  0.47988700  0.16000168  1
  H+  H49  1  0.12675554  0.50420922  0.19424289  1
  H+  H50  1  0.35021395  0.96502348  0.83807122  1
  H+  H51  1  -0.01007405  0.86086544  0.68431217  1
  H+  H52  1  0.14732323  0.27754497  0.17525559  1
  H+  H53  1  0.88722632  0.19981482  0.52505784  1
  H+  H54  1  0.68157103  0.06262650  0.91858586  1
  H+  H55  1  0.74952902  0.35998815  0.18051979  1
  H+  H56  1  0.86296190  0.66178568  0.15793212  1
  H+  H57  1  0.11907305  0.22493617  0.49717399  1
  H+  H58  1  0.86274194  -0.02646544  0.29509210  1
  H+  H59  1  0.47591298  0.60974892  0.32980858  1
  H+  H60  1  0.11828465  0.51539213  0.85768259  1
  H+  H61  1  0.11514296  1.01079895  0.32347664  1
  H+  H62  1  0.69663382  0.35132666  0.94561941  1
  H+  H63  1  0.60945574  0.71724093  0.00450807  1
  H+  H64  1  0.32969418  0.87609398  0.16357762  1
  H+  H65  1  0.38249995  0.85731918  0.84922220  1
  H+  H66  1  0.39194659  0.26984463  0.51201619  1
  H+  H67  1  0.65487657  0.09715218  0.86328092  1
  H+  H68  1  0.37113010  0.35451635  0.17914763  1
  H+  H69  1  0.81818118  0.61778904  0.83840613  1
  H+  H70  1  0.11806279  0.22751636  0.00984790  1
  H+  H71  1  0.88179031  0.77370373  0.69582223  1
  H+  H72  1  0.89684770  0.64332188  0.97958609  1
  H+  H73  1  0.60986922  0.72284523  0.34650187  1
  H+  H74  1  0.14477155  0.87485562  -0.00358533  1
  H+  H75  1  0.96736398  0.88241842  0.16597339  1
  H+  H76  1  0.87346655  -0.02045164  0.67656412  1
  H+  H77  1  -0.01331306  0.11194941  0.51036629  1
  H+  H78  1  0.61679311  0.87112777  0.51777001  1
  H+  H79  1  0.73157654  0.82662348  0.18031827  1
  H+  H80  1  0.36720214  0.88867072  0.01089879  1
  H+  H81  1  0.88652095  0.53429179  0.49965326  1
  H+  H82  1  0.62982425  0.26867619  0.32795779  1
  H+  H83  1  0.12364126  0.09280286  0.64981235  1
  H+  H84  1  0.12296250  0.89294635  0.82916243  1
  H+  H85  1  0.10834954  0.87259162  0.67471025  1
  H+  H86  1  0.38440562  0.77531802  0.65600902  1
  H+  H87  1  0.76665223  0.90055122  0.52408601  1
  H+  H88  1  0.22008679  0.85725519  0.66692107  1
  H+  H89  1  0.26729556  0.13442900  0.67165645  1
  H+  H90  1  1.00989092  0.16280312  0.32768471  1
  H+  H91  1  0.53192416  0.12219299  0.33704163  1
  H+  H92  1  0.64100245  1.01871180  0.00798794  1
  H+  H93  1  0.70992353  0.92611775  0.13441792  1
  H+  H94  1  0.96419898  0.60788693  0.31885690  1
  H+  H95  1  0.16438319  0.83209166  0.90389490  1
  H+  H96  1  0.37094743  0.38820169  0.00808326  1
  H+  H97  1  0.75556820  0.83904501  0.36904223  1
  H+  H98  1  0.50575120  0.12776841  0.66404277  1
  H+  H99  1  0.89369444  0.46696733  0.15381620  1
  H+  H100  1  0.20349139  0.60852065  0.85112697  1
  H+  H101  1  0.63139055  0.14681657  0.33918591  1
  H+  H102  1  0.22476278  0.10884380  0.16587703  1
  H+  H103  1  0.38249432  0.36269039  0.66193025  1
  H+  H104  1  0.67595843  0.82597848  0.28143467  1
  H+  H105  1  0.89654518  0.87229486  0.68393576  1
  H+  H106  1  0.22656372  0.37007224  0.66073943  1
  H+  H107  1  0.59988422  0.70650889  0.16152485  1
  H+  H108  1  0.81016834  0.14087334  0.17374583  1
  H+  H109  1  0.61761130  0.36139653  0.15086350  1
  H+  H110  1  0.88778354  0.35468963  1.00535775  1
  H+  H111  1  0.84157496  0.70566693  0.30294255  1
  H+  H112  1  0.78265288  0.13801083  1.01860512  1
  H+  H113  1  0.62177342  0.10897890  0.64493714  1
  H+  H114  1  0.77712531  0.12402462  0.83483488  1
  H+  H115  1  0.17130570  0.33433410  0.93801610  1
  H+  H116  1  0.48121111  0.37232834  0.84164999  1
  H+  H117  1  0.47494647  0.60810982  0.66341158  1
  H+  H118  1  0.72561889  0.60809640  0.34687352  1
  H+  H119  1  0.62123552  0.84119893  0.83764173  1
  H+  H120  1  0.87480380  0.52845293  0.83366844  1
  H+  H121  1  0.93409868  0.89614446  0.49490245  1
  H+  H122  1  0.61749981  0.08843301  0.15532290  1
  H+  H123  1  0.51315576  0.13411646  0.50214103  1
  H+  H124  1  0.36031184  0.47445758  0.67524427  1
  H+  H125  1  0.00799419  0.13698804  0.17777975  1
  H+  H126  1  0.90682139  0.33495977  0.55546914  1
  H+  H127  1  0.83957542  0.61636982  0.30000671  1
  H+  H128  1  0.37323963  0.48584236  0.82707091  1
  H+  H129  1  0.13592827  0.98245838  0.48572788  1
  H+  H130  1  0.65362752  0.29931811  0.85987086  1
  H+  H131  1  0.60752011  0.23021633  0.15805832  1
  H+  H132  1  0.76393992  0.85786399  0.51976357  1
  H+  H133  1  0.15185819  0.11483581  0.50221044  1
  H+  H134  1  0.90869870  -0.01356989  0.48354706  1
  H+  H135  1  0.92350706  0.17125726  0.32851367  1
  H+  H136  1  1.03611151  0.38933166  0.18348920  1
  H+  H137  1  0.19837934  0.85056415  0.32183374  1
  H+  H138  1  0.64920138  0.87088583  0.33528967  1
  H+  H139  1  0.76460455  0.12982968  0.67285924  1
  H+  H140  1  0.86318578  0.73661680  0.00712252  1
  H+  H141  1  0.89570203  0.59600035  0.65103965  1
  H+  H142  1  0.36820330  0.39557543  0.83112833  1
  H+  H143  1  0.11540849  0.24212449  0.83715350  1
  H+  H144  1  0.76304265  0.37243031  0.66917343  1
  H+  H145  1  0.50768943  0.37226226  0.49477043  1
  H+  H146  1  0.12930736  0.77030651  0.84446105  1
  H+  H147  1  0.77360971  0.64552372  0.00549329  1
  H+  H148  1  0.12913184  1.00766812  0.65708107  1
  H+  H149  1  0.68617199  0.59150430  0.41489798  1
  H+  H150  1  0.41365511  0.33422211  0.60184579  1
  H+  H151  1  0.58205364  0.06755856  0.17845859  1
  H+  H152  1  0.91743765  0.79180945  0.51102183  1
  H+  H153  1  0.44769675  0.84181827  0.32550592  1
  H+  H154  1  0.96154616  0.84791996  0.32443169  1
  H+  H155  1  0.46902541  0.85245177  0.84750186  1
  H+  H156  1  0.38097556  1.02347876  0.69633837  1
  H+  H157  1  0.22565918  0.59674325  -0.00301899  1
  H+  H158  1  0.87399118  0.25968996  0.65149664  1
  H+  H159  1  0.13573145  0.12040974  0.83890566  1
  H+  H160  1  0.63921364  0.60962243  0.98703563  1
  H+  H161  1  0.36919355  0.63126697  0.50645341  1
  H+  H162  1  0.60943247  0.47303645  0.35895789  1
  H+  H163  1  0.36143520  0.92896343  0.44226842  1
  H+  H164  1  0.61305002  0.96059969  0.84010849  1
  H+  H165  1  0.09022152  0.62693310  0.32142369  1
  H+  H166  1  0.72784553  0.38036343  0.50109746  1
  H+  H167  1  0.14309518  0.89689052  0.48871991  1
  H+  H168  1  0.88234641  0.66068348  0.50095377  1
  H+  H169  1  0.64985583  0.52617954  0.98666308  1
  H+  H170  1  0.62640932  0.35629390  0.32927804  1
  H+  H171  1  0.13223175  0.36056604  0.50085561  1
  H+  H172  1  0.98434403  0.59949030  0.66209913  1
  H+  H173  1  0.13304259  1.02316566  0.16685021  1
  H+  H174  1  0.62078454  0.87279952  0.16522133  1
  H+  H175  1  0.69297506  1.02078016  0.19459028  1
  H+  H176  1  0.29703735  0.14063672  0.49946884  1
  H+  H177  1  0.19197979  0.84652743  0.16502276  1
  H+  H178  1  0.60479928  0.37587604  0.49178170  1
  H+  H179  1  0.39210896  0.28391228  0.84135561  1
  H+  H180  1  0.09205889  0.88394030  0.15773667  1
  H+  H181  1  0.56010023  0.92286958  0.34567640  1
  H+  H182  1  1.02489434  0.38158588  1.00382857  1
  H+  H183  1  0.61005284  0.98553693  0.67374655  1
  H+  H184  1  0.11682653  -0.01765267  1.00469764  1
  H+  H185  1  0.33025266  0.41686178  0.73558369  1
  H+  H186  1  0.90803856  0.83862484  0.26363009  1
  H+  H187  1  0.38799809  0.07745166  0.92090850  1
  H+  H188  1  0.69366984  0.59438352  0.89524665  1
  H+  H189  1  0.28825984  0.81684329  0.35199190  1
  H+  H190  1  0.26464048  0.62922075  0.64853418  1
  H+  H191  1  0.42698932  0.83936029  0.20084214  1
  H+  H192  1  0.15189298  0.07348155  0.26555105  1
  H+  H193  1  0.85652399  0.45774749  0.66889595  1
  H+  H194  1  0.87160760  0.34735688  0.65316837  1
  H+  H195  1  0.91078476  0.27905289  0.18866592  1
  H+  H196  1  0.59157437  0.61806051  0.16028116  1
  H+  H197  1  0.83221750  0.40865293  0.76705948  1
  H+  H198  1  0.27138074  0.38260207  0.49422420  1
  H+  H199  1  0.61974008  0.39729619  0.82581822  1
  H+  H200  1  0.62951237  0.23009512  0.00393250  1
  H+  H201  1  0.75885747  0.12758123  0.51092325  1
  H+  H202  1  0.07291522  0.59062795  0.17408749  1
  H+  H203  1  0.11533731  0.13412080  0.34228727  1
  H+  H204  1  0.91153761  0.56840683  1.07407032  1
  H+  H205  1  0.13379168  0.37476737  0.85200284  1
  H+  H206  1  0.26744544  0.10169372  0.32899897  1
  H+  H207  1  0.38488992  0.60761504  0.65237353  1
  H+  H208  1  0.07359057  0.41319418  0.42336156  1
  H+  H209  1  0.34575021  0.62776838  0.16570224  1
  H+  H210  1  0.54632548  0.92117995  0.49406989  1
  H+  H211  1  0.31055741  0.70797686  0.32717271  1
  H+  H212  1  0.23155729  0.36210975  -0.00252010  1
  H+  H213  1  0.12809007  0.24044384  0.67216941  1
  H+  H214  1  0.70253624  0.73944851  0.21601395  1
  H+  H215  1  0.61244998  0.63506576  0.35916486  1
  H+  H216  1  0.39478365  0.37396936  0.33172205  1
  H+  H217  1  0.51371133  0.38555476  0.34280587  1
  H+  H218  1  -0.01105164  0.87308480  0.84093088  1
  H+  H219  1  0.85664077  0.40125768  0.48853528  1
  H+  H220  1  0.91691221  0.14186803  0.17499749  1
  H+  H221  1  0.38857498  1.05053040  0.32813827  1
  H+  H222  1  0.83459152  0.64256084  0.71374904  1
  H+  H223  1  0.66655587  0.34036255  0.56058860  1
  H+  H224  1  0.46534981  0.11725252  0.16549093  1
  H+  H225  1  0.34948801  0.75139242  0.17513499  1
  H+  H226  1  0.13783883  0.11137696  0.99379608  1
  H+  H227  1  0.65080717  0.64246647  0.50153170  1
  H+  H228  1  0.79242856  0.67151956  0.76210774  1
  H+  H229  1  0.35521962  0.88378978  0.68009586  1
  H+  H230  1  0.13343035  0.51612211  0.49898000  1
  H+  H231  1  0.02800309  0.13899863  0.01160681  1
  H+  H232  1  0.12379980  0.14051745  0.16047669  1
  H+  H233  1  0.36486277  0.61901998  0.35040131  1
  H+  H234  1  0.47447239  0.60653172  0.50833725  1
  H+  H235  1  0.46308751  0.61108296  0.17384237  1
  H+  H236  1  0.62115416  0.48421703  0.81792062  1
  H+  H237  1  1.01641321  0.87684111  0.50644128  1
  H+  H238  1  0.66648142  0.82009765  0.59961111  1
  H+  H239  1  0.86977360  0.45003845  0.02197301  1
  H+  H240  1  0.62028603  0.26225662  0.64020494  1
  H+  H241  1  0.96389669  0.35608082  0.28143282  1
  H+  H242  1  0.76180855  0.38596477  0.34295282  1
  H+  H243  1  0.35681818  0.71709443  0.01011857  1
  H+  H244  1  0.64476893  0.11043094  1.00386370  1
  H+  H245  1  0.71207203  0.61170352  0.66185283  1
  H+  H246  1  0.09426877  0.63038376  0.83436835  1
  H+  H247  1  0.89247481  0.10269782  0.50740758  1
  H+  H248  1  0.25374773  0.62191019  0.16695468  1
  H+  H249  1  0.23396273  0.87356625  0.99545006  1
  H+  H250  1  0.78935185  0.88565657  0.67279751  1
  H+  H251  1  0.37774705  1.02335888  0.16889777  1
  H+  H252  1  0.10931226  0.62712258  0.47912919  1
  H+  H253  1  0.23648669  0.36726354  0.17470138  1
  H+  H254  1  0.07311297  0.65435861  0.38842413  1
  H+  H255  1  0.36168537  0.46999977  0.49670321  1
  H+  H256  1  0.19823686  0.63480767  0.28174817  1
  H+  H257  1  0.12386573  -0.01600689  0.82407902  1
  H+  H258  1  0.58400999  0.38300955  0.09041088  1
  H+  H259  1  0.86258644  0.97993466  0.83504956  1
  H+  H260  1  0.76143067  0.14633975  0.34400224  1
  H+  H261  1  0.46491602  0.82359566  0.30187315  1
  H+  H262  1  0.87849937  0.28378380  0.49387624  1
  H+  H263  1  0.36814306  0.47577431  1.00368499  1
  H+  H264  1  0.36340450  0.13101045  0.15008175  1
  H+  H265  1  1.01619359  0.38740660  0.48296658  1
  H+  H266  1  0.63524010  0.39236686  1.00308296  1
  H+  H267  1  0.71584216  0.85492611  0.98080863  1
  H+  H268  1  0.63666794  0.24171636  0.48596571  1
  H+  H269  1  0.35355427  0.14163220  0.83245754  1
  H+  H270  1  0.89063104  0.11672724  0.84352024  1
  H+  H271  1  0.84897593  0.89487240  0.14768487  1
  H+  H272  1  0.17472409  0.33252834  0.26800870  1
  H+  H273  1  0.02959515  0.89001088  0.00515092  1
  H+  H274  1  0.38804953  0.60971643  0.99411162  1
  H+  H275  1  0.74975232  0.35950150  0.00828466  1
  H+  H276  1  0.61810902  0.17959294  0.81093418  1
  H+  H277  1  0.00211972  0.36881408  0.65892783  1
  H+  H278  1  0.86608055  0.55766729  0.07947107  1
  H+  H279  1  0.12345116  0.51125425  0.65642657  1
  H+  H280  1  0.82984815  0.91298511  -0.06919783  1
  H+  H281  1  0.62852986  0.35446600  0.65459133  1
  H+  H282  1  0.73947307  0.38413378  0.84397543  1
  H+  H283  1  0.34396806  0.71906552  0.83548671  1
  H+  H284  1  0.11690942  0.38137162  0.00435997  1
  H+  H285  1  0.52331855  0.13484502  0.59429071  1
  H+  H286  1  0.51978109  0.38382307  0.66978605  1
  H+  H287  1  0.88991292  0.99522276  0.32256749  1
  H+  H288  1  0.85619235  0.17940538  0.10747515  1
  H+  H289  1  0.42969456  0.83959468  0.57294246  1
  H+  H290  1  0.95533184  0.13680272  0.24450915  1
  H+  H291  1  0.59856946  0.62176552  0.67127295  1
  H+  H292  1  0.43312516  0.59351883  0.90077312  1
  H+  H293  1  0.33984299  0.66306223  0.44926964  1
  H+  H294  1  0.59729406  0.90843806  0.06676790  1
  H+  H295  1  0.87905823  0.79404398  0.16628377  1
  H+  H296  1  0.41263382  0.82573191  0.94270006  1
  H+  H297  1  0.92347293  0.09395505  0.93901585  1
  H+  H298  1  0.42197817  0.32994591  0.93960603  1
  H+  H299  1  0.16121335  0.08118188  0.93214211  1
  H+  H300  1  0.61274792  0.94322246  0.40718781  1
  H+  H301  1  0.85153407  0.47189953  0.33502685  1
  H+  H302  1  0.09032950  0.91272046  0.73699382  1
  H+  H303  1  0.57817752  0.65547234  0.06333564  1
  H+  H304  1  0.82517979  0.42958859  0.42907080  1
  H+  H305  1  0.35462296  0.22722383  0.67229531  1
  H+  H306  1  0.68250393  0.33476818  0.23664155  1
  H+  H307  1  0.08050677  0.65997540  0.73489893  1
  H+  H308  1  0.17514988  0.07665284  0.55926613  1
  H+  H309  1  0.40831151  0.58273282  0.23574299  1
  H+  H310  1  0.09202659  0.17188014  0.10189154  1
  H+  H311  1  0.32202835  0.90343860  0.74235259  1
  H+  H312  1  0.56765176  0.39976449  0.42454401  1
  H+  H313  1  0.15032560  0.56926028  0.59640093  1
  H+  H314  1  0.57377806  0.67276758  0.43635586  1
  H+  H315  1  0.98647881  0.37041720  0.84542528  1
  H+  H316  1  0.67987784  0.58830712  0.23685460  1
  H+  H317  1  0.89893593  0.87033822  0.84421218  1
  H+  H318  1  0.57279442  0.21619730  0.75356287  1
  H+  H319  1  0.07631410  0.92258537  0.09689887  1
  H+  H320  1  0.33252239  0.17417315  0.76941370  1
  H+  H321  1  0.09187038  0.16523396  0.43857699  1
  H+  H322  1  0.82845450  0.68125190  0.09643235  1
  H+  H323  1  0.24126315  0.83169269  0.40688179  1
  H+  H324  1  0.80019258  0.67372411  0.49848150  1
  H+  H325  1  0.54131235  0.80140819  0.55453992  1
  H+  H326  1  0.33880584  0.63122045  0.82277381  1
  H+  H327  1  0.93151138  0.58553224  0.25276629  1
  H+  H328  1  0.54390227  0.24522649  0.12297550  1
  H+  H329  1  0.13957236  0.82501016  0.22689028  1
  H+  H330  1  0.84783787  0.39578517  0.10095169  1
  H+  H331  1  0.39751427  0.90202807  0.49872098  1
  H+  H332  1  0.72033978  0.77562617  0.61119619  1
  H+  H333  1  0.60029135  0.19960580  0.73978419  1
  H+  H334  1  0.67632397  0.59574848  0.55088985  1
  H+  H335  1  1.02435977  0.63338349  0.48039221  1
  H+  H336  1  0.26921768  0.58642107  0.37080533  1
  H+  H337  1  0.80022320  0.88685903  0.08633621  1
  H+  H338  1  0.64667767  0.81265241  0.92864218  1
  H+  H339  1  0.31696627  0.91272398  0.10110450  1
  H+  H340  1  0.01060595  0.63918949  0.82245559  1
  H+  H341  1  0.71997883  0.08542878  0.25279361  1
  H+  H342  1  0.26613595  0.87479634  0.83518090  1
  H+  H343  1  0.82765147  0.15908899  0.77109063  1
  H+  H344  1  0.41763865  0.33461175  0.27475136  1
  H+  H345  1  0.18749604  0.84608870  0.56357341  1
  H+  H346  1  0.07589317  0.90878781  0.39694955  1
  H+  H347  1  0.41778130  0.57246762  0.56991455  1
  H+  H348  1  0.32288274  0.65411216  0.06742244  1
  H+  H349  1  0.39923671  0.11740395  1.02240586  1
  H+  H350  1  0.11093646  0.44193840  0.79468948  1
  H+  H351  1  0.85340327  0.12810340  0.67186325  1
  H+  H352  1  0.13229632  0.36208538  0.65762039  1
  H+  H353  1  0.90984498  0.60204801  0.88623827  1
  H+  H354  1  0.66910751  0.13331338  0.50475612  1
  H+  H355  1  0.06982236  0.66200257  0.05844304  1
  H+  H356  1  0.93002184  0.58485845  0.56016543  1
  H+  H357  1  0.04991948  0.38995521  0.72179247  1
  H+  H358  1  0.08254540  0.18424499  0.77690933  1
  H+  H359  1  0.58384335  0.41571313  0.72662760  1
  H+  H360  1  0.70740328  0.83709083  0.83929336  1
  H+  H361  1  0.86567403  0.90466397  0.43358936  1
  H+  H362  1  0.67256121  0.08570161  0.59777405  1
  H+  H363  1  0.33592380  0.42084149  0.09966559  1
  H+  H364  1  0.92902790  0.83439842  0.93174141  1
  H+  H365  1  0.33209950  0.41835281  0.40226861  1
  H+  H366  1  0.16372891  0.33735175  0.56300108  1
  H+  H367  1  0.31575240  0.76248029  0.26691227  1
  H+  H368  1  0.57869352  0.91465141  0.77580183  1
  H+  H369  1  0.27384584  0.39089700  0.34166685  1
  H+  H370  1  0.98754516  0.64663982  0.97583020  1
  H+  H371  1  0.91959319  0.33144471  0.94094692  1
  H+  H372  1  0.87213087  0.22816095  0.01225371  1
  H+  H373  1  0.92336155  0.07965465  0.60017270  1
  H+  H374  1  0.60596086  0.17701035  0.42814285  1
  H+  H375  1  0.83319004  0.91813802  0.77802645  1
  H+  H376  1  0.16177713  0.18874479  0.70879292  1
  H+  H377  1  0.26227401  0.89002364  0.51451734  1
  H+  H378  1  0.08872924  0.46683910  0.31616796  1
  H+  H379  1  0.86385832  0.18983747  0.41989821  1
  H+  H380  1  0.58526813  0.17649551  0.06296375  1
  H+  H381  1  0.43022476  0.06434938  0.26583101  1
  H+  H382  1  0.13296334  0.76749938  0.66005469  1
  H+  H383  1  0.56155640  0.68340686  0.84429107  1
  O2-  O384  1  0.09499979  0.17416155  0.14778499  1
  O2-  O385  1  0.09133549  0.16367482  0.48439594  1
  O2-  O386  1  0.08424896  0.18044097  0.82155084  1
  O2-  O387  1  0.09884589  0.42764408  0.17277299  1
  O2-  O388  1  0.07678531  0.41343649  0.46828123  1
  O2-  O389  1  0.08729795  0.42066660  0.83481592  1
  O2-  O390  1  0.02927190  0.59556630  0.14767683  1
  O2-  O391  1  0.08023386  0.65464945  0.45903293  1
  O2-  O392  1  0.07290349  0.66521793  0.81259545  1
  O2-  O393  1  0.06977362  0.92160728  0.14262203  1
  O2-  O394  1  0.10567909  0.92032804  0.47374112  1
  O2-  O395  1  0.09520043  0.92317141  0.80924672  1
  O2-  O396  1  0.33671088  0.16375986  0.12943906  1
  O2-  O397  1  0.35921430  0.17944293  0.49241554  1
  O2-  O398  1  0.33292144  0.17889152  0.81483622  1
  O2-  O399  1  0.33248787  0.41966389  0.14506887  1
  O2-  O400  1  0.33218664  0.41035473  0.47986399  1
  O2-  O401  1  0.33781546  0.42489363  0.81444380  1
  O2-  O402  1  0.31220274  0.65426280  0.14890122  1
  O2-  O403  1  0.34162285  0.66660076  0.49468742  1
  O2-  O404  1  0.30577363  0.66054833  0.81883270  1
  O2-  O405  1  0.30659333  0.91107467  0.14599125  1
  O2-  O406  1  0.37359351  0.93884797  0.48617518  1
  O2-  O407  1  0.32782220  0.90668479  0.82118534  1
  O2-  O408  1  0.55645967  0.19718420  0.13147660  1
  O2-  O409  1  0.61393124  0.18073003  0.47366212  1
  O2-  O410  1  0.65154737  0.19232156  0.84861014  1
  O2-  O411  1  0.56507033  0.34809922  0.12793474  1
  O2-  O412  1  0.56799013  0.39979858  0.47467410  1
  O2-  O413  1  0.58716709  0.42277011  0.80654016  1
  O2-  O414  1  0.56359519  0.64918317  0.14287555  1
  O2-  O415  1  0.57420127  0.67199320  0.48224636  1
  O2-  O416  1  0.52917057  0.61977176  0.84623525  1
  O2-  O417  1  0.65357824  0.92259524  0.13915546  1
  O2-  O418  1  0.60652358  0.94627305  0.48047074  1
  O2-  O419  1  0.57676725  0.90352865  0.82006701  1
  O2-  O420  1  0.86613347  0.18281968  0.15255718  1
  O2-  O421  1  0.84948892  0.16525735  0.49219690  1
  O2-  O422  1  0.83422609  0.16334150  0.81608091  1
  O2-  O423  1  0.85605943  0.40505563  0.14886577  1
  O2-  O424  1  0.82675561  0.43255857  0.47593484  1
  O2-  O425  1  0.83598387  0.41634063  0.81192897  1
  O2-  O426  1  0.82871758  0.68628993  0.14299328  1
  O2-  O427  1  0.86261058  0.70148022  0.48943960  1
  O2-  O428  1  0.78520705  0.64968219  0.83353708  1
  O2-  O429  1  0.80180542  0.90271000  0.12893630  1
  O2-  O430  1  0.91660899  0.94294742  0.46088219  1
  O2-  O431  1  0.83089679  0.91778335  0.82307638  1
  O2-  O432  1  0.16632771  0.08343930  0.18302115  1
  O2-  O433  1  0.18236352  0.08357016  0.51458308  1
  O2-  O434  1  0.16549475  0.08794765  0.84943784  1
  O2-  O435  1  0.17703349  0.33648463  0.19326669  1
  O2-  O436  1  0.16457016  0.33379317  0.51778234  1
  O2-  O437  1  0.16589165  0.34025937  0.86271537  1
  O2-  O438  1  0.14893074  0.57476340  0.20580809  1
  O2-  O439  1  0.16128810  0.57389299  0.51885434  1
  O2-  O440  1  0.14442154  0.57943848  0.86915655  1
  O2-  O441  1  0.13232375  0.81825688  0.18151956  1
  O2-  O442  1  0.19921350  0.85707450  0.51964028  1
  O2-  O443  1  0.16368374  0.83143751  0.85800307  1
  O2-  O444  1  0.40687141  0.08341370  0.18406885  1
  O2-  O445  1  0.45976077  0.10753740  0.52764875  1
  O2-  O446  1  0.35548084  0.05992530  0.88126472  1
  O2-  O447  1  0.38500998  0.31609895  0.20240327  1
  O2-  O448  1  0.42064999  0.33423563  0.52486050  1
  O2-  O449  1  0.42218168  0.34285172  0.85920972  1
  O2-  O450  1  0.40336957  0.58357328  0.19047133  1
  O2-  O451  1  0.41389031  0.57390824  0.52417956  1
  O2-  O452  1  0.43933247  0.59920680  0.85502201  1
  O2-  O453  1  0.36462771  0.80630537  0.19791706  1
  O2-  O454  1  0.44070163  0.83778676  0.52820600  1
  O2-  O455  1  0.40997582  0.82461441  0.86487251  1
  O2-  O456  1  0.74034584  0.06951493  0.21542415  1
  O2-  O457  1  0.69304254  0.09888989  0.52328894  1
  O2-  O458  1  0.67884519  0.05938872  0.87271589  1
  O2-  O459  1  0.68782995  0.33090640  0.19183802  1
  O2-  O460  1  0.66618100  0.34315022  0.51496953  1
  O2-  O461  1  0.68147037  0.36207124  0.86341583  1
  O2-  O462  1  0.67343346  0.61189035  0.19852675  1
  O2-  O463  1  0.68914306  0.61833797  0.50891614  1
  O2-  O464  1  0.69584119  0.58831764  0.84965049  1
  O2-  O465  1  0.68765999  0.78468072  0.20913336  1
  O2-  O466  1  0.59993306  0.81773691  0.54256435  1
  O2-  O467  1  0.64694355  0.80654752  0.85291766  1
  O2-  O468  1  0.94825651  0.11478112  0.19757696  1
  O2-  O469  1  0.92592863  0.07590158  0.52505901  1
  O2-  O470  1  0.91941176  0.08591571  0.86065689  1
  O2-  O471  1  0.93799121  0.33816167  0.20640302  1
  O2-  O472  1  0.91037727  0.34307469  0.51036189  1
  O2-  O473  1  0.92221610  0.34010266  0.85660469  1
  O2-  O474  1  1.00392060  0.64794250  0.18339546  1
  O2-  O475  1  0.92467317  0.59362333  0.51641983  1
  O2-  O476  1  0.89632837  0.59039198  0.84072389  1
  O2-  O477  1  0.90595836  0.85492138  0.18033087  1
  O2-  O478  1  0.95573794  0.85638823  0.52277008  1
  O2-  O479  1  0.93049425  0.84193791  0.85865974  1
  O2-  O480  1  0.14755399  0.07221598  0.31053627  1
  O2-  O481  1  0.15906531  0.06693324  0.63989751  1
  O2-  O482  1  0.16223743  0.07698031  0.97692447  1
  O2-  O483  1  0.17159477  0.33408270  0.31386252  1
  O2-  O484  1  0.16679273  0.33621270  0.64310979  1
  O2-  O485  1  0.17018987  0.33140154  0.98386022  1
  O2-  O486  1  0.14460557  0.57802793  0.27334573  1
  O2-  O487  1  0.15454385  0.57164403  0.64203056  1
  O2-  O488  1  0.16355343  0.56320336  0.98485916  1
  O2-  O489  1  0.14058729  0.82336135  0.30284263  1
  O2-  O490  1  0.16118688  0.82905745  0.64797882  1
  O2-  O491  1  0.17368219  0.84363418  0.97988722  1
  O2-  O492  1  0.43608934  0.04732083  0.30757976  1
  O2-  O493  1  0.41774629  0.08577527  0.70422856  1
  O2-  O494  1  0.42284087  0.09043889  0.99435287  1
  O2-  O495  1  0.42925766  0.34758433  0.31923624  1
  O2-  O496  1  0.41236519  0.33171440  0.64753183  1
  O2-  O497  1  0.42817375  0.33634324  0.98474554  1
  O2-  O498  1  0.41519751  0.58151557  0.31470293  1
  O2-  O499  1  0.41453704  0.57433919  0.64546937  1
  O2-  O500  1  0.41822736  0.58073243  0.97666449  1
  O2-  O501  1  0.28087098  0.73303719  0.30377642  1
  O2-  O502  1  0.41488482  0.83848610  0.64876179  1
  O2-  O503  1  0.41117457  0.82481746  0.98836546  1
  O2-  O504  1  0.70367057  0.11174681  0.32448623  1
  O2-  O505  1  0.65954291  0.08240487  0.64275680  1
  O2-  O506  1  0.67630052  0.07912321  0.99327104  1
  O2-  O507  1  0.66003912  0.32998575  0.31411572  1
  O2-  O508  1  0.65981004  0.32613234  0.63755711  1
  O2-  O509  1  0.68856467  0.33726936  0.98938465  1
  O2-  O510  1  0.67014393  0.58353760  0.37165939  1
  O2-  O511  1  0.65897008  0.57912266  0.63800281  1
  O2-  O512  1  0.67620437  0.58704782  0.97148814  1
  O2-  O513  1  0.66698191  0.82788468  0.32569334  1
  O2-  O514  1  0.69975789  0.80993097  0.63189797  1
  O2-  O515  1  0.65270598  0.81991072  0.97431111  1
  O2-  O516  1  0.96768281  0.16975168  0.30190788  1
  O2-  O517  1  0.91909638  0.08013982  0.64639746  1
  O2-  O518  1  0.92104472  0.08589850  0.98418478  1
  O2-  O519  1  0.97271476  0.36735501  0.32678510  1
  O2-  O520  1  0.90272468  0.31941586  0.63452766  1
  O2-  O521  1  0.92307506  0.32760657  0.98580808  1
  O2-  O522  1  0.90960624  0.57605104  0.29480304  1
  O2-  O523  1  0.92510790  0.56410972  0.64275778  1
  O2-  O524  1  0.93373370  0.63171819  0.95272453  1
  O2-  O525  1  0.90262060  0.81705667  0.30582169  1
  O2-  O526  1  0.92113870  0.83214587  0.67670431  1
  O2-  O527  1  0.92572201  0.83512540  0.97801739  1
  O2-  O528  1  0.08840556  0.16763511  0.02659953  1
  O2-  O529  1  0.09550322  0.17164310  0.36261908  1
  O2-  O530  1  0.10850108  0.18258615  0.69235150  1
  O2-  O531  1  0.08769120  0.41448483  0.01648277  1
  O2-  O532  1  0.06634468  0.41031481  0.33670679  1
  O2-  O533  1  0.06145974  0.39902721  0.67819480  1
  O2-  O534  1  0.07739408  0.67441344  0.01491555  1
  O2-  O535  1  0.06684186  0.65917125  0.34240821  1
  O2-  O536  1  0.07999708  0.65896583  0.68909650  1
  O2-  O537  1  0.08894292  0.92183595  0.02235848  1
  O2-  O538  1  0.06304162  0.90491829  0.35247571  1
  O2-  O539  1  0.07851892  0.90417001  0.69131312  1
  O2-  O540  1  0.35405643  0.16833224  0.06705101  1
  O2-  O541  1  0.31935251  0.09697874  0.33621280  1
  O2-  O542  1  0.32373028  0.16899686  0.69173826  1
  O2-  O543  1  0.33793094  0.41651105  0.02116035  1
  O2-  O544  1  0.33440326  0.42320394  0.35683675  1
  O2-  O545  1  0.32673289  0.41351299  0.69002796  1
  O2-  O546  1  0.32797680  0.65508161  0.02233900  1
  O2-  O547  1  0.32619806  0.63761273  0.37209006  1
  O2-  O548  1  0.32770956  0.66421041  0.63934359  1
  O2-  O549  1  0.33734358  0.92003354  0.02437203  1
  O2-  O550  1  0.28285752  0.86198541  0.37442529  1
  O2-  O551  1  0.32002011  0.90741463  0.69704582  1
  O2-  O552  1  0.59450784  0.16903007  0.01869451  1
  O2-  O553  1  0.59070648  0.16585925  0.35307191  1
  O2-  O554  1  0.55519271  0.15131098  0.63380082  1
  O2-  O555  1  0.60516334  0.42511340  0.01341572  1
  O2-  O556  1  0.57555738  0.40923132  0.36351850  1
  O2-  O557  1  0.58208847  0.41354006  0.68115101  1
  O2-  O558  1  0.58096494  0.65603242  0.01806818  1
  O2-  O559  1  0.57556455  0.66229128  0.36147303  1
  O2-  O560  1  0.57046793  0.65269679  0.68863590  1
  O2-  O561  1  0.58251039  0.90839711  0.02335909  1
  O2-  O562  1  0.61805173  0.94329892  0.36122532  1
  O2-  O563  1  0.58083368  0.92593960  0.69270681  1
  O2-  O564  1  0.84440868  0.16861270  0.03084111  1
  O2-  O565  1  0.86367346  0.19921296  0.37429205  1
  O2-  O566  1  0.82537038  0.15970872  0.68779346  1
  O2-  O567  1  0.83851640  0.38983408  0.03414388  1
  O2-  O568  1  0.82160653  0.41868917  0.35925663  1
  O2-  O569  1  0.82333610  0.39803332  0.68485702  1
  O2-  O570  1  0.83152627  0.67756548  0.02530541  1
  O2-  O571  1  0.80206439  0.64254923  0.29924401  1
  O2-  O572  1  0.80859112  0.67868978  0.71688273  1
  O2-  O573  1  0.82876533  0.91683597  -0.02482422  1
  O2-  O574  1  0.79997300  0.83178868  0.39024432  1
  O2-  O575  1  0.84527392  0.91999620  0.69435738  1
