# generated using pymatgen
data_H2O
_symmetry_space_group_name_H-M   'P 1'
_cell_length_a   17.99328184
_cell_length_b   17.99762958
_cell_length_c   22.00283498
_cell_angle_alpha   90.01451783
_cell_angle_beta   89.99744534
_cell_angle_gamma   120.01518342
_symmetry_Int_Tables_number   1
_chemical_formula_structural   H2O
_chemical_formula_sum   'H384 O192'
_cell_volume   6169.76301007
_cell_formula_units_Z   192
loop_
 _symmetry_equiv_pos_site_id
 _symmetry_equiv_pos_as_xyz
  1  'x, y, z'
loop_
 _atom_type_symbol
 _atom_type_oxidation_number
  H+  1.0
  O2-  -2.0
loop_
 _atom_site_type_symbol
 _atom_site_label
 _atom_site_symmetry_multiplicity
 _atom_site_fract_x
 _atom_site_fract_y
 _atom_site_fract_z
 _atom_site_occupancy
  H+  H0  1  0.11583395  0.90529516  0.99521459  1
  H+  H1  1  0.64582691  0.53021063  0.50350796  1
  H+  H2  1  0.10984486  0.78986939  0.97422435  1
  H+  H3  1  0.63616657  0.85759306  0.14992611  1
  H+  H4  1  0.07788564  0.16526559  0.75042479  1
  H+  H5  1  0.28759151  0.15185102  0.16603436  1
  H+  H6  1  0.61176762  0.50679205  0.65683021  1
  H+  H7  1  0.53364273  0.63981742  0.48372965  1
  H+  H8  1  0.61710450  0.38022213  0.00640644  1
  H+  H9  1  0.87327236  0.52536248  0.17325203  1
  H+  H10  1  0.35964619  0.96602782  0.15596066  1
  H+  H11  1  0.72169443  0.85264854  0.83510813  1
  H+  H12  1  0.52853276  0.89209466  0.50335014  1
  H+  H13  1  0.83623045  0.42029121  0.61609578  1
  H+  H14  1  0.76946291  0.39965305  0.16627886  1
  H+  H15  1  0.62589204  0.01716673  0.33187446  1
  H+  H16  1  0.11788276  1.02022078  -0.01312439  1
  H+  H17  1  0.97877475  0.10772845  0.84528388  1
  H+  H18  1  0.10823653  0.63589410  0.82441201  1
  H+  H19  1  0.16493895  0.79403548  0.53379963  1
  H+  H20  1  0.71787568  0.62146723  0.66147736  1
  H+  H21  1  0.29130687  0.63444634  0.33465694  1
  H+  H22  1  0.61562306  0.72976894  0.33668417  1
  H+  H23  1  0.46059631  0.60541970  0.82842162  1
  H+  H24  1  1.01923174  0.10688722  0.53680877  1
  H+  H25  1  0.14293639  0.56345192  0.58730035  1
  H+  H26  1  0.60489241  0.70033195  0.81894764  1
  H+  H27  1  0.13641527  0.77753865  0.83626386  1
  H+  H28  1  0.39655016  0.27346567  0.16781956  1
  H+  H29  1  0.72688448  0.39471992  0.65770570  1
  H+  H30  1  0.86887728  0.97459700  0.16385659  1
  H+  H31  1  1.01840907  0.62613785  0.15614381  1
  H+  H32  1  0.38156696  0.85016589  0.16922816  1
  H+  H33  1  0.77474675  0.64255950  0.16774642  1
  H+  H34  1  0.62945299  0.85756674  0.33227747  1
  H+  H35  1  0.77283211  0.88182361  1.00801576  1
  H+  H36  1  0.90520056  0.61214309  1.00309413  1
  H+  H37  1  0.96596421  0.65205259  0.67685969  1
  H+  H38  1  0.64245916  0.77517440  0.65459553  1
  H+  H39  1  0.41340464  0.82684477  0.22911594  1
  H+  H40  1  0.11437741  0.38334386  0.16671165  1
  H+  H41  1  0.92532836  0.83531552  0.23847949  1
  H+  H42  1  0.27228622  0.88770550  0.81719074  1
  H+  H43  1  0.61589929  0.88047114  0.83149005  1
  H+  H44  1  0.38006383  0.39602609  -0.00100125  1
  H+  H45  1  0.85822559  0.97112956  0.33450169  1
  H+  H46  1  0.09387221  0.09800966  0.50781365  1
  H+  H47  1  1.04698115  0.67884926  0.49835988  1
  H+  H48  1  1.01944969  0.63608797  0.83463639  1
  H+  H49  1  0.69390236  0.34911383  0.45520741  1
  H+  H50  1  0.14012699  0.12082155  0.33495502  1
  H+  H51  1  0.27311694  0.63614818  -0.01944563  1
  H+  H52  1  0.88022140  0.10248058  0.17563987  1
  H+  H53  1  0.89184480  0.77562305  0.32487192  1
  H+  H54  1  0.34496582  0.96985986  0.65686852  1
  H+  H55  1  0.82578681  0.90411024  0.38927532  1
  H+  H56  1  0.31995929  0.65921414  0.75558591  1
  H+  H57  1  0.90070433  0.64495482  0.50913844  1
  H+  H58  1  -0.00218955  0.92095866  0.67309774  1
  H+  H59  1  0.51882110  0.63391530  -0.00557961  1
  H+  H60  1  0.78909618  0.65895832  0.93900348  1
  H+  H61  1  0.90717827  0.08232868  0.63984542  1
  H+  H62  1  0.48345954  0.35832701  0.98763198  1
  H+  H63  1  0.60371141  0.64422277  0.65839298  1
  H+  H64  1  0.42459140  0.81246838  0.69882511  1
  H+  H65  1  0.46234677  0.09753088  0.33074249  1
  H+  H66  1  0.14028779  0.52116547  0.82741965  1
  H+  H67  1  0.38306021  0.59246489  0.17119297  1
  H+  H68  1  0.67393512  0.60029307  0.59289929  1
  H+  H69  1  0.86662726  0.47317361  0.01117642  1
  H+  H70  1  0.88861221  0.86156014  0.32289672  1
  H+  H71  1  0.33752713  0.67762569  0.13999843  1
  H+  H72  1  0.22166551  0.50108678  1.06776998  1
  H+  H73  1  0.76434287  0.12117292  0.00569735  1
  H+  H74  1  0.02873230  0.13786154  0.33708430  1
  H+  H75  1  0.86143311  0.97126130  0.00705166  1
  H+  H76  1  0.14466702  0.60191017  0.98333583  1
  H+  H77  1  0.27655928  0.13984389  0.34681233  1
  H+  H78  1  0.90274855  0.38207748  0.67421532  1
  H+  H79  1  0.51767152  0.43872747  0.80982149  1
  H+  H80  1  0.10629157  0.57647155  0.65199790  1
  H+  H81  1  0.35449362  0.63398828  0.81515333  1
  H+  H82  1  0.38613594  0.10363434  0.17245527  1
  H+  H83  1  0.37922340  0.85637956  0.98227599  1
  H+  H84  1  0.62691646  0.10444849  -0.00028463  1
  H+  H85  1  0.50314562  0.03754203  0.72119479  1
  H+  H86  1  0.20787032  -0.01290500  0.40972765  1
  H+  H87  1  0.47452224  0.10092621  0.99693733  1
  H+  H88  1  0.36853612  0.73418331  -0.01765996  1
  H+  H89  1  0.13125619  0.02067173  0.14721705  1
  H+  H90  1  0.11465408  0.23518506  1.01333547  1
  H+  H91  1  0.74537220  0.35716357  0.52203668  1
  H+  H92  1  0.64665067  0.06672550  0.91860635  1
  H+  H93  1  0.88594899  0.23435184  0.83847053  1
  H+  H94  1  0.63239037  0.10731846  0.17561845  1
  H+  H95  1  0.13589778  0.46726987  0.66460212  1
  H+  H96  1  0.71266959  0.35194165  0.32802580  1
  H+  H97  1  0.36241634  0.58828314  0.65415233  1
  H+  H98  1  0.27138363  0.87713136  0.63831482  1
  H+  H99  1  0.64697648  0.61992158  0.50057145  1
  H+  H100  1  0.76110747  0.11516234  0.16062989  1
  H+  H101  1  0.27487285  0.35903263  0.66480580  1
  H+  H102  1  0.52177447  0.13128772  0.16405209  1
  H+  H103  1  0.39170822  0.77788572  0.32690543  1
  H+  H104  1  0.87320356  0.50154867  0.66053731  1
  H+  H105  1  0.38319397  0.86224771  0.66588359  1
  H+  H106  1  0.93973499  0.35009794  0.89128574  1
  H+  H107  1  0.76053565  0.01909109  0.46149773  1
  H+  H108  1  0.03263240  0.90070521  0.82298365  1
  H+  H109  1  0.42407170  0.57522487  0.42924206  1
  H+  H110  1  0.51792995  0.88001782  1.00267042  1
  H+  H111  1  0.52150487  0.13256761  0.83949612  1
  H+  H112  1  0.38239927  0.73451602  0.49495998  1
  H+  H113  1  0.12444895  0.60497689  0.50269819  1
  H+  H114  1  0.19387705  0.22227290  0.62720183  1
  H+  H115  1  0.59692701  0.21354599  0.34303967  1
  H+  H116  1  0.63606458  0.61270397  0.17028080  1
  H+  H117  1  0.62331533  1.00673321  0.85005433  1
  H+  H118  1  0.96678716  0.33779276  0.16967615  1
  H+  H119  1  1.01096230  0.36572841  0.50847391  1
  H+  H120  1  0.60079373  0.62468506  -0.01170683  1
  H+  H121  1  0.25298735  0.14877730  1.00007499  1
  H+  H122  1  0.55512411  0.51182375  0.92121218  1
  H+  H123  1  0.63268927  0.36031612  0.17242547  1
  H+  H124  1  0.39138027  0.36049294  0.16831024  1
  H+  H125  1  0.04286039  0.39170796  0.81366013  1
  H+  H126  1  0.12075562  0.15709741  0.17121679  1
  H+  H127  1  0.91695530  -0.01060869  0.61058484  1
  H+  H128  1  0.01641994  0.35782239  0.31913082  1
  H+  H129  1  0.85151520  0.96595601  0.47666966  1
  H+  H130  1  0.49575997  0.39514220  0.64962656  1
  H+  H131  1  0.37225445  0.47476423  0.33633529  1
  H+  H132  1  0.84077100  0.91603256  0.76392994  1
  H+  H133  1  0.39728731  0.87224615  0.51787405  1
  H+  H134  1  0.97201001  0.11367427  0.99777309  1
  H+  H135  1  0.92539280  0.62347337  0.61033023  1
  H+  H136  1  0.66898617  0.87366623  0.66156547  1
  H+  H137  1  0.64541177  0.26571855  0.84433642  1
  H+  H138  1  0.65560234  0.35851321  0.84521298  1
  H+  H139  1  0.90779334  0.37340355  0.83079329  1
  H+  H140  1  0.76878570  0.63374498  0.33922623  1
  H+  H141  1  0.57295971  0.90886929  0.06513838  1
  H+  H142  1  0.27207034  0.88343103  -0.00134260  1
  H+  H143  1  0.86560008  0.67537546  0.08081794  1
  H+  H144  1  0.63992698  0.52595806  0.17152958  1
  H+  H145  1  0.34238782  0.91823805  0.41215587  1
  H+  H146  1  0.65771974  0.51105385  0.82387749  1
  H+  H147  1  0.65751516  1.03957942  0.66802366  1
  H+  H148  1  0.76852606  0.87647613  0.48799529  1
  H+  H149  1  0.89628916  0.73093065  0.02001878  1
  H+  H150  1  0.37481820  -0.01241381  0.50299673  1
  H+  H151  1  0.85843555  0.38052538  1.01413991  1
  H+  H152  1  0.35674883  0.46386639  0.48428909  1
  H+  H153  1  0.22441443  0.84320960  0.16209816  1
  H+  H154  1  0.39144748  0.26945877  0.32562031  1
  H+  H155  1  0.33311050  0.70059319  0.65610243  1
  H+  H156  1  0.12037473  0.22395217  0.83844593  1
  H+  H157  1  0.62886737  0.36080466  0.33064423  1
  H+  H158  1  0.90019231  0.35429394  0.31356461  1
  H+  H159  1  0.18110354  0.34279663  0.22973465  1
  H+  H160  1  0.51465608  0.87707848  0.15753651  1
  H+  H161  1  0.09672867  0.36731129  0.66469569  1
  H+  H162  1  0.73126651  0.36129795  1.00234823  1
  H+  H163  1  0.37491550  0.23824242  0.49119677  1
  H+  H164  1  0.14146999  0.28275761  0.17166688  1
  H+  H165  1  0.56199480  0.90502421  0.67579236  1
  H+  H166  1  0.25409206  0.59812659  0.16404982  1
  H+  H167  1  0.85521269  0.12436576  0.00450067  1
  H+  H168  1  0.62253535  0.01028907  0.99828062  1
  H+  H169  1  0.40711387  0.57745615  0.92129702  1
  H+  H170  1  0.10931106  0.14448325  1.01733712  1
  H+  H171  1  0.71346771  0.10747132  0.33017777  1
  H+  H172  1  -0.02103106  0.86867268  0.51879759  1
  H+  H173  1  0.85876832  0.97716996  0.82250138  1
  H+  H174  1  0.51884935  0.88821679  0.34592256  1
  H+  H175  1  0.23420442  0.36382835  0.32180781  1
  H+  H176  1  0.63040900  0.12248314  0.51289279  1
  H+  H177  1  0.14925032  0.02148678  0.82405323  1
  H+  H178  1  0.86651405  0.73379664  0.17303864  1
  H+  H179  1  0.09532413  1.00897025  0.16941725  1
  H+  H180  1  0.91517733  0.56658714  0.52260978  1
  H+  H181  1  0.48113718  0.36684001  0.50064003  1
  H+  H182  1  0.12419439  0.59452525  0.17393318  1
  H+  H183  1  0.36086777  0.12894552  0.34254652  1
  H+  H184  1  0.39024413  0.37560291  0.65386792  1
  H+  H185  1  0.24443509  0.61396068  0.66206138  1
  H+  H186  1  0.01009752  0.84531196  0.15246259  1
  H+  H187  1  0.26867739  0.38012721  0.82267862  1
  H+  H188  1  0.57590398  0.14729293  0.78044552  1
  H+  H189  1  0.10540312  0.20976907  0.68320156  1
  H+  H190  1  0.86532613  0.25041060  0.69610915  1
  H+  H191  1  0.87485560  0.61501979  0.32213442  1
  H+  H192  1  0.78435435  0.64553701  0.49070413  1
  H+  H193  1  0.13634266  0.60150685  0.33420270  1
  H+  H194  1  0.89058161  0.86291291  0.50100483  1
  H+  H195  1  0.83815512  0.63189503  0.68511988  1
  H+  H196  1  0.38628534  0.36835777  0.83149025  1
  H+  H197  1  0.16552422  0.49939933  0.01278702  1
  H+  H198  1  0.88057906  0.24515453  0.54264101  1
  H+  H199  1  0.60996514  0.22255664  0.16367311  1
  H+  H200  1  0.27641478  0.22571184  0.04245194  1
  H+  H201  1  0.41702498  0.07504800  0.93735978  1
  H+  H202  1  0.87862267  0.24679865  0.16821296  1
  H+  H203  1  0.12472531  0.13590716  0.83117094  1
  H+  H204  1  0.77265890  0.16128760  0.68796163  1
  H+  H205  1  0.14182765  0.35915531  0.31589697  1
  H+  H206  1  0.87251513  0.73734045  0.48838505  1
  H+  H207  1  0.64040974  0.86750646  0.50913121  1
  H+  H208  1  0.63536826  0.85701847  -0.00712155  1
  H+  H209  1  0.14200337  0.36129096  0.83873239  1
  H+  H210  1  0.91503695  0.57412904  0.90437447  1
  H+  H211  1  0.38322373  0.52348066  -0.01531436  1
  H+  H212  1  0.28111683  0.38761135  0.15363484  1
  H+  H213  1  0.89490645  0.86359343  0.17698529  1
  H+  H214  1  0.12310176  0.09225064  0.66230092  1
  H+  H215  1  -0.02560276  0.11395772  0.18057237  1
  H+  H216  1  0.48923983  0.61468113  0.32552725  1
  H+  H217  1  0.12680286  0.82846250  0.15561412  1
  H+  H218  1  0.71836770  0.12031964  0.51492206  1
  H+  H219  1  0.36445792  0.96892602  0.00074262  1
  H+  H220  1  0.88162845  0.62448024  0.17581532  1
  H+  H221  1  0.38112636  0.63922756  0.33313581  1
  H+  H222  1  0.47914866  0.12750085  0.51251909  1
  H+  H223  1  0.61297755  0.47669395  0.33820060  1
  H+  H224  1  0.04411550  0.86710001  0.66528748  1
  H+  H225  1  0.27058840  0.14138326  0.67223747  1
  H+  H226  1  0.57803476  0.32219941  0.75795744  1
  H+  H227  1  0.87857935  0.14122827  0.69124503  1
  H+  H228  1  0.65292368  0.54520485  0.91335257  1
  H+  H229  1  0.91993644  0.83854749  0.94085268  1
  H+  H230  1  0.38361734  0.86218362  0.33261010  1
  H+  H231  1  0.88599332  0.85991460  0.00119836  1
  H+  H232  1  0.36725589  0.10910268  0.66009579  1
  H+  H233  1  0.24055673  0.35920346  -0.00873493  1
  H+  H234  1  0.61873376  0.09967779  0.85106983  1
  H+  H235  1  0.11901658  0.50328189  0.18232484  1
  H+  H236  1  0.37739968  0.23628631  0.82212378  1
  H+  H237  1  0.11811064  0.22613192  0.33117860  1
  H+  H238  1  0.11347581  0.70875970  0.15174363  1
  H+  H239  1  0.28912882  0.14500236  0.82349354  1
  H+  H240  1  0.33310600  0.90914507  0.09505328  1
  H+  H241  1  0.13647770  0.70701633  0.01711474  1
  H+  H242  1  0.14271196  0.85052411  0.39013245  1
  H+  H243  1  0.36790899  0.63596288  0.98413770  1
  H+  H244  1  0.52748484  0.38853010  0.15848300  1
  H+  H245  1  0.79428904  0.87080588  0.66323423  1
  H+  H246  1  0.90791283  0.58857389  0.24201766  1
  H+  H247  1  0.89751733  0.88978699  0.84210912  1
  H+  H248  1  0.91212406  0.08238717  0.27183116  1
  H+  H249  1  0.89280309  0.11499053  0.84625595  1
  H+  H250  1  0.22336363  0.61462627  0.82821028  1
  H+  H251  1  0.54086894  0.30202599  0.77966651  1
  H+  H252  1  0.24024531  0.21870271  0.22507284  1
  H+  H253  1  0.32845213  0.40168060  0.42878787  1
  H+  H254  1  0.09996222  0.37181444  0.49887633  1
  H+  H255  1  0.85338671  0.22116511  0.33574497  1
  H+  H256  1  0.62080208  0.73112336  0.49343836  1
  H+  H257  1  0.61308611  0.98365016  0.50302191  1
  H+  H258  1  0.77372441  0.62087708  -0.04052139  1
  H+  H259  1  0.98466427  0.59867467  0.99215821  1
  H+  H260  1  0.39305988  0.11736785  0.83889371  1
  H+  H261  1  0.99095482  0.49841268  0.33134487  1
  H+  H262  1  0.37214725  0.51657549  0.82991625  1
  H+  H263  1  0.08592219  0.64009019  0.06852080  1
  H+  H264  1  0.82805571  0.59276762  0.84128571  1
  H+  H265  1  0.38425336  0.77268213  0.82542849  1
  H+  H266  1  0.86725657  0.25531728  0.98956550  1
  H+  H267  1  0.87064036  0.02987781  0.56014187  1
  H+  H268  1  0.71772243  0.85832562  0.32323246  1
  H+  H269  1  0.78367893  0.38036388  0.82258695  1
  H+  H270  1  0.61663345  0.38882364  0.49180487  1
  H+  H271  1  0.08181074  0.17320638  0.10964555  1
  H+  H272  1  0.88326694  0.11124875  0.33187999  1
  H+  H273  1  0.06608574  0.70646872  0.74972535  1
  H+  H274  1  0.07363768  -0.08199700  0.75633863  1
  H+  H275  1  0.90305780  0.53926628  0.32117091  1
  H+  H276  1  0.61500998  0.23252774  0.49218291  1
  H+  H277  1  0.38691006  0.02529308  0.83483319  1
  H+  H278  1  0.47954140  0.60670283  0.16842212  1
  H+  H279  1  0.89075439  0.51858291  0.84251114  1
  H+  H280  1  0.97211975  0.13341971  0.69768966  1
  H+  H281  1  0.61586982  0.22044718  1.01164512  1
  H+  H282  1  0.15093051  0.83326217  0.69305084  1
  H+  H283  1  0.36873419  0.38388646  0.33485963  1
  H+  H284  1  0.63606556  0.61252497  0.32633167  1
  H+  H285  1  0.12595166  0.24631755  0.50917799  1
  H+  H286  1  0.60378407  0.46142103  -0.00299814  1
  H+  H287  1  0.35119778  0.46169546  0.66622543  1
  H+  H288  1  0.12043110  0.56861099  0.26345257  1
  H+  H289  1  0.42951354  0.34711519  0.88781471  1
  H+  H290  1  0.83439575  0.17005104  0.78712860  1
  H+  H291  1  0.52419725  0.38620939  0.33850566  1
  H+  H292  1  0.08415950  0.67536022  0.27959769  1
  H+  H293  1  0.17123347  0.33485126  0.90108587  1
  H+  H294  1  0.32585333  0.40724672  0.76094482  1
  H+  H295  1  0.58319930  0.16085463  0.07109878  1
  H+  H296  1  0.16566069  0.37605464  1.00243977  1
  H+  H297  1  0.85202727  0.09222670  0.44584574  1
  H+  H298  1  0.59352071  0.67085986  0.39674008  1
  H+  H299  1  0.45118775  0.09735058  0.66331654  1
  H+  H300  1  0.16728816  0.88184725  0.54597758  1
  H+  H301  1  0.82457233  0.28636015  0.94318394  1
  H+  H302  1  0.38750008  0.36257098  0.49839504  1
  H+  H303  1  0.63664056  0.76893258  0.99097608  1
  H+  H304  1  0.81625033  0.18290024  0.40063536  1
  H+  H305  1  0.67585474  0.83692366  0.56554081  1
  H+  H306  1  0.84306795  0.91712022  0.10327479  1
  H+  H307  1  0.11951685  0.73118994  0.44781293  1
  H+  H308  1  0.28990583  0.89764254  0.51260331  1
  H+  H309  1  0.11264433  0.41749452  0.75844684  1
  H+  H310  1  0.41370592  0.83317740  0.92051470  1
  H+  H311  1  0.83214447  0.42910000  0.10846533  1
  H+  H312  1  0.81932995  0.14263795  0.09973707  1
  H+  H313  1  0.19363750  0.12464394  0.24918395  1
  H+  H314  1  0.12536965  0.76379280  0.24366589  1
  H+  H315  1  0.06970169  0.88522804  0.09372678  1
  H+  H316  1  0.38654586  0.28035788  0.98233772  1
  H+  H317  1  0.90558844  0.30371390  0.25352503  1
  H+  H318  1  0.85443640  0.42529597  0.51441487  1
  H+  H319  1  0.35003527  0.68180571  0.43345181  1
  H+  H320  1  0.97416831  0.94944986  0.88299472  1
  H+  H321  1  0.60025600  0.12638083  0.34320534  1
  H+  H322  1  0.42749451  0.58025575  0.26630111  1
  H+  H323  1  0.13140491  0.77668367  0.34448856  1
  H+  H324  1  0.57919076  0.91876373  0.40587519  1
  H+  H325  1  0.57064775  0.47314964  0.74821389  1
  H+  H326  1  0.34723332  0.42071457  0.06024737  1
  H+  H327  1  0.42537483  0.34883103  0.58877665  1
  H+  H328  1  0.17443564  0.28906397  0.59294431  1
  H+  H329  1  0.18074849  0.07399521  0.88646309  1
  H+  H330  1  0.93105523  0.33425788  0.62867586  1
  H+  H331  1  0.65750099  0.32818125  0.23295386  1
  H+  H332  1  0.32972986  0.16265204  0.10043338  1
  H+  H333  1  0.57850065  0.65203428  0.09351408  1
  H+  H334  1  0.58752696  0.10223702  0.68640554  1
  H+  H335  1  0.61098231  0.92844048  0.73885589  1
  H+  H336  1  0.21321549  0.33700161  0.50124296  1
  H+  H337  1  0.37715938  0.14335811  0.49738264  1
  H+  H338  1  0.34488410  0.17131942  0.42978508  1
  H+  H339  1  0.83356705  0.66565204  0.39691278  1
  H+  H340  1  0.39690620  0.61656343  0.48095094  1
  H+  H341  1  0.11119505  0.50770752  0.50310368  1
  H+  H342  1  0.58647860  0.41668617  0.09888908  1
  H+  H343  1  0.42074533  0.32769359  0.26471440  1
  H+  H344  1  0.09314166  0.45343583  0.31982522  1
  H+  H345  1  0.37254632  0.00967310  0.33240616  1
  H+  H346  1  0.72587917  0.85776899  0.15478065  1
  H+  H347  1  0.60261920  -0.03145129  0.15847117  1
  H+  H348  1  0.41078478  0.09458945  0.56991247  1
  H+  H349  1  0.32411862  0.91439979  0.75536790  1
  H+  H350  1  0.66786077  0.09883203  0.61074053  1
  H+  H351  1  0.09411716  0.42068295  0.10887978  1
  H+  H352  1  0.09928458  0.08187955  0.94324748  1
  H+  H353  1  0.61369297  0.41704573  0.66690899  1
  H+  H354  1  0.02138800  0.89384035  0.00353438  1
  H+  H355  1  0.66453510  0.58146656  0.26689188  1
  H+  H356  1  0.15062170  0.03617647  0.34006738  1
  H+  H357  1  0.57709313  0.60157436  0.80095272  1
  H+  H358  1  0.65721346  0.07341223  0.23488876  1
  H+  H359  1  0.37328486  0.47275992  0.15663153  1
  H+  H360  1  0.11873348  0.94822753  0.43904732  1
  H+  H361  1  0.93280699  0.45788044  0.38873612  1
  H+  H362  1  0.67681047  0.32787528  0.94080064  1
  H+  H363  1  0.83844662  0.41866974  0.76227758  1
  H+  H364  1  0.38692399  0.86319929  0.82498070  1
  H+  H365  1  0.16522610  0.84665763  0.91945981  1
  H+  H366  1  0.42552337  0.83506377  0.57399342  1
  H+  H367  1  0.15874246  0.07420345  0.60141928  1
  H+  H368  1  0.17033015  0.57661762  0.91793223  1
  H+  H369  1  0.45481622  0.59812703  0.65205707  1
  H+  H370  1  0.91741536  0.07940554  0.93541466  1
  H+  H371  1  0.33447766  0.16701503  0.72986934  1
  H+  H372  1  0.58499203  0.41930043  0.43428566  1
  H+  H373  1  0.78589780  0.62606700  0.74497188  1
  H+  H374  1  0.56873428  0.66735669  0.71751654  1
  H+  H375  1  0.26530413  0.86927297  0.36808082  1
  H+  H376  1  0.61198355  0.72107471  0.14620440  1
  H+  H377  1  0.40852403  0.06953081  0.23280873  1
  H+  H378  1  0.66138033  0.35443964  0.60434876  1
  H+  H379  1  0.52637608  0.88167340  0.82457703  1
  H+  H380  1  0.13702180  0.86696896  0.82700215  1
  H+  H381  1  0.66583622  0.82333570  0.89578799  1
  H+  H382  1  0.57409095  0.16089308  0.43954126  1
  H+  H383  1  0.86567401  0.32684480  0.54440789  1
  O2-  O384  1  0.08166929  0.17631476  0.15494827  1
  O2-  O385  1  0.06763033  0.13455921  0.50794736  1
  O2-  O386  1  0.08792908  0.16221680  0.82519325  1
  O2-  O387  1  0.07778980  0.40782643  0.15215507  1
  O2-  O388  1  0.06660834  0.39983040  0.48786052  1
  O2-  O389  1  0.10536810  0.42049060  0.80391757  1
  O2-  O390  1  0.07694193  0.64485493  0.14057009  1
  O2-  O391  1  0.10811809  0.70116013  0.48781262  1
  O2-  O392  1  0.07902479  0.66996079  0.81774830  1
  O2-  O393  1  0.05571242  0.84436113  0.12720793  1
  O2-  O394  1  0.10211104  0.93794726  0.52138322  1
  O2-  O395  1  0.08822188  0.92085266  0.80150471  1
  O2-  O396  1  0.34171518  0.16519583  0.14440185  1
  O2-  O397  1  0.34745074  0.17577231  0.47678879  1
  O2-  O398  1  0.35028412  0.17470665  0.81008453  1
  O2-  O399  1  0.34154185  0.41341442  0.13819863  1
  O2-  O400  1  0.32811062  0.40149158  0.47437639  1
  O2-  O401  1  0.32866831  0.41321170  0.80626973  1
  O2-  O402  1  0.30641650  0.61468548  0.13924821  1
  O2-  O403  1  0.35565116  0.67608481  0.47748946  1
  O2-  O404  1  0.32734880  0.66767931  0.80068974  1
  O2-  O405  1  0.33027246  0.90596468  0.14024219  1
  O2-  O406  1  0.34830830  0.92594113  0.49232906  1
  O2-  O407  1  0.33194457  0.91657960  0.79993029  1
  O2-  O408  1  0.58207294  0.16203476  0.14845905  1
  O2-  O409  1  0.57869122  0.16773547  0.48482056  1
  O2-  O410  1  0.58333563  0.15820161  0.82522651  1
  O2-  O411  1  0.58839482  0.41883530  0.14427179  1
  O2-  O412  1  0.58436832  0.41881262  0.47982186  1
  O2-  O413  1  0.56722420  0.49041961  0.79101892  1
  O2-  O414  1  0.57944287  0.65626999  0.13842816  1
  O2-  O415  1  0.59695050  0.67202675  0.47629329  1
  O2-  O416  1  0.56204724  0.64741906  0.79788783  1
  O2-  O417  1  0.57367435  0.91052316  0.13929678  1
  O2-  O418  1  0.58893050  0.92442134  0.48696382  1
  O2-  O419  1  0.58970329  0.91574273  0.81666477  1
  O2-  O420  1  0.82137778  0.14159841  0.14498534  1
  O2-  O421  1  0.81440790  0.06210001  0.48018302  1
  O2-  O422  1  0.84900640  0.17203461  0.83074789  1
  O2-  O423  1  0.82942000  0.43930250  0.15268430  1
  O2-  O424  1  0.81597804  0.38122176  0.54283724  1
  O2-  O425  1  0.84336962  0.41522935  0.80642972  1
  O2-  O426  1  0.83719575  0.67194851  0.15710152  1
  O2-  O427  1  0.84400825  0.67491594  0.47409382  1
  O2-  O428  1  0.77814628  0.59962892  0.82807747  1
  O2-  O429  1  0.84189779  0.91445467  0.14844698  1
  O2-  O430  1  0.82732879  0.90463201  0.46881602  1
  O2-  O431  1  0.83097328  0.91604290  0.80864224  1
  O2-  O432  1  0.21114374  0.15956520  0.21048620  1
  O2-  O433  1  0.14054133  0.02224483  0.52807973  1
  O2-  O434  1  0.18167898  0.08145535  0.84208002  1
  O2-  O435  1  0.17864227  0.34439576  0.18360409  1
  O2-  O436  1  0.15649617  0.30828457  0.52148923  1
  O2-  O437  1  0.16995486  0.32934320  0.85599793  1
  O2-  O438  1  0.15027100  0.56501372  0.19699749  1
  O2-  O439  1  0.14339447  0.56698081  0.52050582  1
  O2-  O440  1  0.16356585  0.58085970  0.84469019  1
  O2-  O441  1  0.16282115  0.80416644  0.17276475  1
  O2-  O442  1  0.20040994  0.85222014  0.55248616  1
  O2-  O443  1  0.16912081  0.84038456  0.84607442  1
  O2-  O444  1  0.41433277  0.07169940  0.18768457  1
  O2-  O445  1  0.41651241  0.09922080  0.52377467  1
  O2-  O446  1  0.41875649  0.08251574  0.85449471  1
  O2-  O447  1  0.42259781  0.33220240  0.18575264  1
  O2-  O448  1  0.41971285  0.33406625  0.51560474  1
  O2-  O449  1  0.42790286  0.34866736  0.84255743  1
  O2-  O450  1  0.42109820  0.57155725  0.18759963  1
  O2-  O451  1  0.42305403  0.57805138  0.47351668  1
  O2-  O452  1  0.40103654  0.57732816  0.84551926  1
  O2-  O453  1  0.41109900  0.81945303  0.18433719  1
  O2-  O454  1  0.42792393  0.84039081  0.52950457  1
  O2-  O455  1  0.41700150  0.83323006  0.84103727  1
  O2-  O456  1  0.65905506  0.07306901  0.18954516  1
  O2-  O457  1  0.66014320  0.09213683  0.53125911  1
  O2-  O458  1  0.64546970  0.06589721  0.86924014  1
  O2-  O459  1  0.66192472  0.32903553  0.18798962  1
  O2-  O460  1  0.67514193  0.33542280  0.49741263  1
  O2-  O461  1  0.68317083  0.32632943  0.85852770  1
  O2-  O462  1  0.66801116  0.58540611  0.18832201  1
  O2-  O463  1  0.67862781  0.59120678  0.51671051  1
  O2-  O464  1  0.70506950  0.52062109  0.85335152  1
  O2-  O465  1  0.66298369  0.82124951  0.14998105  1
  O2-  O466  1  0.67120034  0.83610921  0.51990489  1
  O2-  O467  1  0.66143189  0.82091597  0.85041721  1
  O2-  O468  1  0.91411709  0.07809109  0.19479411  1
  O2-  O469  1  0.92039609  0.04729600  0.58625262  1
  O2-  O470  1  0.91767536  0.07715734  0.85868186  1
  O2-  O471  1  0.90753212  0.30571595  0.18580526  1
  O2-  O472  1  0.90859417  0.30634229  0.55078442  1
  O2-  O473  1  0.94323308  0.34919120  0.84658310  1
  O2-  O474  1  0.91072320  0.58965683  0.19008119  1
  O2-  O475  1  0.93946391  0.62731934  0.53162404  1
  O2-  O476  1  0.91329072  0.57757200  0.85879879  1
  O2-  O477  1  0.92210466  0.83039732  0.19200603  1
  O2-  O478  1  0.91648463  0.82962067  0.51688250  1
  O2-  O479  1  0.94585885  0.89117325  0.86684014  1
  O2-  O480  1  0.17726742  0.09415750  0.32210236  1
  O2-  O481  1  0.17423781  0.11419597  0.63651289  1
  O2-  O482  1  0.14424361  0.08130145  0.96777388  1
  O2-  O483  1  0.17641632  0.33168994  0.30258212  1
  O2-  O484  1  0.18848095  0.27405932  0.63403321  1
  O2-  O485  1  0.17797605  0.33395513  0.98194190  1
  O2-  O486  1  0.09231722  0.56712121  0.30445699  1
  O2-  O487  1  0.14610583  0.56017927  0.63505900  1
  O2-  O488  1  0.18071354  0.58048498  0.96375365  1
  O2-  O489  1  0.15812182  0.80516677  0.38484504  1
  O2-  O490  1  0.12198806  0.77501864  0.67622206  1
  O2-  O491  1  0.16050953  0.84521367  0.96565550  1
  O2-  O492  1  0.40209563  0.06931017  0.31515104  1
  O2-  O493  1  0.39589827  0.07585010  0.64181912  1
  O2-  O494  1  0.41459578  0.06751654  0.98201253  1
  O2-  O495  1  0.42069115  0.32964855  0.31019201  1
  O2-  O496  1  0.43098777  0.35575239  0.63464562  1
  O2-  O497  1  0.42626989  0.33945297  0.96786418  1
  O2-  O498  1  0.42695266  0.58242442  0.31190504  1
  O2-  O499  1  0.39370601  0.55833140  0.64243108  1
  O2-  O500  1  0.40960535  0.58294179  0.96712689  1
  O2-  O501  1  0.41870376  0.83895265  0.31421302  1
  O2-  O502  1  0.42096584  0.83625037  0.65980486  1
  O2-  O503  1  0.41061644  0.82685438  0.96584561  1
  O2-  O504  1  0.65329256  0.07751031  0.31513349  1
  O2-  O505  1  0.67017193  0.09842072  0.65606290  1
  O2-  O506  1  0.65350749  0.07111712  0.98124906  1
  O2-  O507  1  0.65277948  0.32369538  0.31530800  1
  O2-  O508  1  0.66474103  0.36661538  0.64777680  1
  O2-  O509  1  0.67111846  0.32765390  0.98569159  1
  O2-  O510  1  0.66376689  0.57880449  0.31243094  1
  O2-  O511  1  0.66167263  0.59899456  0.63744410  1
  O2-  O512  1  0.60905888  0.54010306  0.94367205  1
  O2-  O513  1  0.65497116  0.82464875  0.31501791  1
  O2-  O514  1  0.68572506  0.83523673  0.64122837  1
  O2-  O515  1  0.66785750  0.82987193  0.97683886  1
  O2-  O516  1  0.91340936  0.08150594  0.31752652  1
  O2-  O517  1  0.90740916  0.10468317  0.68516010  1
  O2-  O518  1  0.91320009  0.07813843  0.98118612  1
  O2-  O519  1  0.90801604  0.30603147  0.30095804  1
  O2-  O520  1  0.92907916  0.34508908  0.67278988  1
  O2-  O521  1  0.87681636  0.30834922  0.96742136  1
  O2-  O522  1  0.90726215  0.58985104  0.30024803  1
  O2-  O523  1  0.91367272  0.60873682  0.65426705  1
  O2-  O524  1  0.92347029  0.57364837  0.98128742  1
  O2-  O525  1  0.92339771  0.83540430  0.30990854  1
  O2-  O526  1  0.91827446  0.92900257  0.64355509  1
  O2-  O527  1  0.92098037  0.83432540  0.98571300  1
  O2-  O528  1  0.08012558  0.17565772  0.03081030  1
  O2-  O529  1  0.09036623  0.16687688  0.34783950  1
  O2-  O530  1  0.06241096  0.15833775  0.70627188  1
  O2-  O531  1  0.17023363  0.46222943  0.04442460  1
  O2-  O532  1  0.07760160  0.39505945  0.33129500  1
  O2-  O533  1  0.13734947  0.41922217  0.68617251  1
  O2-  O534  1  0.09570885  0.64610501  0.02260214  1
  O2-  O535  1  0.09282281  0.73337534  0.28086867  1
  O2-  O536  1  0.04699577  0.73209935  0.71683458  1
  O2-  O537  1  0.08457285  0.93227882  0.01371521  1
  O2-  O538  1  0.14718113  0.95403917  0.39914952  1
  O2-  O539  1  0.04986627  0.91713864  0.68655911  1
  O2-  O540  1  0.30074567  0.19297420  0.02448902  1
  O2-  O541  1  0.33893745  0.16645374  0.35983585  1
  O2-  O542  1  0.33077634  0.16187260  0.68494639  1
  O2-  O543  1  0.34626859  0.42246148  0.01456295  1
  O2-  O544  1  0.33899598  0.41411812  0.35096141  1
  O2-  O545  1  0.33247829  0.40158161  0.68242218  1
  O2-  O546  1  0.33666730  0.66943898  -0.00465952  1
  O2-  O547  1  0.35045321  0.67005483  0.34782739  1
  O2-  O548  1  0.30558379  0.64559329  0.67758301  1
  O2-  O549  1  0.33135310  0.90555210  0.01326513  1
  O2-  O550  1  0.32927706  0.90958988  0.36772771  1
  O2-  O551  1  0.31873278  0.90712621  0.66759944  1
  O2-  O552  1  0.58478638  0.15937278  0.02540068  1
  O2-  O553  1  0.56794438  0.15433455  0.35974031  1
  O2-  O554  1  0.53716019  0.09793714  0.70990333  1
  O2-  O555  1  0.58227130  0.40677058  0.01979080  1
  O2-  O556  1  0.58427885  0.41627880  0.35474424  1
  O2-  O557  1  0.57830683  0.44554599  0.67510299  1
  O2-  O558  1  0.57900068  0.65888525  0.00882777  1
  O2-  O559  1  0.58786550  0.66720886  0.35155596  1
  O2-  O560  1  0.57115821  0.67301521  0.67253888  1
  O2-  O561  1  0.57722482  0.91074947  0.01894019  1
  O2-  O562  1  0.57989332  0.91882566  0.36067707  1
  O2-  O563  1  0.61966858  0.93554785  0.69364884  1
  O2-  O564  1  0.82455956  0.15412760  0.02034878  1
  O2-  O565  1  0.82054491  0.16463827  0.35971587  1
  O2-  O566  1  0.82982422  0.18716902  0.70801298  1
  O2-  O567  1  0.83266626  0.41442144  0.02971634  1
  O2-  O568  1  0.92989195  0.46246313  0.34475737  1
  O2-  O569  1  0.84249977  0.43702244  0.66029642  1
  O2-  O570  1  0.88891594  0.67830189  0.03945165  1
  O2-  O571  1  0.83062286  0.66281126  0.35138262  1
  O2-  O572  1  0.79683288  0.64737577  0.70284284  1
  O2-  O573  1  0.83350031  0.91130035  0.02281841  1
  O2-  O574  1  0.82633238  0.90858054  0.34419049  1
  O2-  O575  1  0.84793087  0.89942308  0.68771605  1
