# generated using pymatgen
data_H2O
_symmetry_space_group_name_H-M   'P 1'
_cell_length_a   17.99073609
_cell_length_b   17.99749746
_cell_length_c   22.00352043
_cell_angle_alpha   89.99529486
_cell_angle_beta   90.01923523
_cell_angle_gamma   119.99671365
_symmetry_Int_Tables_number   1
_chemical_formula_structural   H2O
_chemical_formula_sum   'H384 O192'
_cell_volume   6170.18535524
_cell_formula_units_Z   192
loop_
 _symmetry_equiv_pos_site_id
 _symmetry_equiv_pos_as_xyz
  1  'x, y, z'
loop_
 _atom_type_symbol
 _atom_type_oxidation_number
  H+  1.0
  O2-  -2.0
loop_
 _atom_site_type_symbol
 _atom_site_label
 _atom_site_symmetry_multiplicity
 _atom_site_fract_x
 _atom_site_fract_y
 _atom_site_fract_z
 _atom_site_occupancy
  H+  H0  1  0.04118876  0.90145648  0.01081154  1
  H+  H1  1  0.22911994  0.36456334  0.98263096  1
  H+  H2  1  0.12702577  0.87567894  0.34029902  1
  H+  H3  1  0.61377135  0.72145163  0.49661291  1
  H+  H4  1  0.63477273  0.60560560  0.50393666  1
  H+  H5  1  0.84390767  0.15849269  0.08384774  1
  H+  H6  1  0.76520494  0.11030592  0.33353055  1
  H+  H7  1  0.37418334  0.89570193  0.15997932  1
  H+  H8  1  0.77444513  0.63327754  0.48934527  1
  H+  H9  1  0.00703191  0.32316549  0.38123689  1
  H+  H10  1  0.63177316  0.10809652  0.51640069  1
  H+  H11  1  0.53044180  0.18418115  0.05214067  1
  H+  H12  1  0.86104284  0.87902633  0.50083175  1
  H+  H13  1  0.36824678  0.26556574  0.98635479  1
  H+  H14  1  0.73532673  0.37003905  0.16070733  1
  H+  H15  1  0.11885489  0.48239790  0.83315398  1
  H+  H16  1  0.63686758  0.52084446  0.84035709  1
  H+  H17  1  0.61255061  0.22483105  0.50304867  1
  H+  H18  1  0.09045356  0.93004194  0.43198652  1
  H+  H19  1  0.85791298  0.41987935  0.33408038  1
  H+  H20  1  0.18114614  0.14242886  0.00003342  1
  H+  H21  1  0.63163180  0.85212412  0.84527116  1
  H+  H22  1  0.36252374  0.38922513  0.34342470  1
  H+  H23  1  0.41704533  0.58370214  0.59940361  1
  H+  H24  1  0.14274668  0.51919388  -0.01922720  1
  H+  H25  1  0.32534180  0.16483437  0.39333577  1
  H+  H26  1  0.88860514  0.76876538  0.17066143  1
  H+  H27  1  0.11393215  0.49335481  0.15240441  1
  H+  H28  1  0.94160211  0.36886268  0.31545565  1
  H+  H29  1  0.61095666  0.63260413  0.00043458  1
  H+  H30  1  0.63182240  0.51597268  0.16186591  1
  H+  H31  1  0.11792178  0.62226950  -0.00299737  1
  H+  H32  1  0.86176791  0.47342995  0.84370299  1
  H+  H33  1  0.04198030  0.91775056  0.68258365  1
  H+  H34  1  0.52295490  0.13345479  0.83420729  1
  H+  H35  1  0.36460165  0.47951514  0.67770519  1
  H+  H36  1  0.52472542  0.37766156  0.15524424  1
  H+  H37  1  0.08857913  0.42076002  0.77450961  1
  H+  H38  1  0.88044361  0.38875538  0.99995483  1
  H+  H39  1  0.02946821  0.89345514  0.48898590  1
  H+  H40  1  0.11298944  0.21336968  0.14226087  1
  H+  H41  1  0.59959611  0.45574489  0.67288599  1
  H+  H42  1  0.61608121  0.71981227  0.33461471  1
  H+  H43  1  0.63133628  0.52046225  0.30995690  1
  H+  H44  1  0.11196397  0.14338865  0.82484773  1
  H+  H45  1  0.10549904  0.11931662  0.15240069  1
  H+  H46  1  0.62688187  0.96665031  0.00252625  1
  H+  H47  1  0.85720379  0.18689231  0.34842879  1
  H+  H48  1  0.11496096  0.89280455  0.83094936  1
  H+  H49  1  0.35838419  0.88840776  0.77065802  1
  H+  H50  1  0.77369475  0.38853317  0.50057177  1
  H+  H51  1  0.14591237  0.27555318  0.66152175  1
  H+  H52  1  0.88725412  0.53608751  0.17397863  1
  H+  H53  1  0.89314806  0.55212094  0.31713529  1
  H+  H54  1  0.34587167  0.42450377  0.05483263  1
  H+  H55  1  0.89490746  0.23853522  0.65753343  1
  H+  H56  1  0.13988019  0.87174190  0.50717619  1
  H+  H57  1  0.30136945  0.15330519  0.06166388  1
  H+  H58  1  0.97780902  0.11546232  0.66475822  1
  H+  H59  1  0.38946330  0.06234566  0.93286375  1
  H+  H60  1  0.90957785  0.31210873  0.56462947  1
  H+  H61  1  0.34850646  0.68524216  0.73644687  1
  H+  H62  1  0.63653838  0.52594664  -0.00917797  1
  H+  H63  1  0.25357804  0.62071764  0.99581429  1
  H+  H64  1  0.87084455  0.22941074  0.13732322  1
  H+  H65  1  0.13979163  0.03433776  0.50746681  1
  H+  H66  1  0.47602593  0.61425000  0.50289866  1
  H+  H67  1  0.87007276  0.37366830  0.65715688  1
  H+  H68  1  0.63686351  0.28948824  0.99822995  1
  H+  H69  1  0.14135295  0.11554560  0.32195320  1
  H+  H70  1  0.13205333  0.85007086  0.99146514  1
  H+  H71  1  0.61888682  0.87042787  0.68175976  1
  H+  H72  1  0.64557234  0.36798008  0.53345036  1
  H+  H73  1  0.16595194  0.83198214  0.67377635  1
  H+  H74  1  0.59752803  0.97022606  0.52418745  1
  H+  H75  1  0.14580540  0.24183942  0.98787082  1
  H+  H76  1  0.26249370  0.12570555  0.15789075  1
  H+  H77  1  0.52197018  0.63422362  0.67173798  1
  H+  H78  1  0.77907846  0.89001584  0.68494455  1
  H+  H79  1  0.38129375  0.76583937  0.84000881  1
  H+  H80  1  0.63309499  0.10456323  0.83748240  1
  H+  H81  1  0.62192181  0.34237678  0.66758075  1
  H+  H82  1  0.58147630  0.16418302  0.77551764  1
  H+  H83  1  0.16788037  0.38646776  0.39606333  1
  H+  H84  1  0.33480799  0.42044620  0.73855998  1
  H+  H85  1  0.78505866  0.64344082  1.00974905  1
  H+  H86  1  0.86374862  0.63390386  0.49244770  1
  H+  H87  1  0.27899540  0.37708607  0.14342638  1
  H+  H88  1  0.85869634  0.98593533  0.01444952  1
  H+  H89  1  0.96466526  0.10238690  0.50736216  1
  H+  H90  1  0.26627683  0.86760299  0.49564178  1
  H+  H91  1  0.36360811  0.47777293  0.33023396  1
  H+  H92  1  0.68272062  0.11127375  0.98461346  1
  H+  H93  1  0.84598066  0.30605287  0.29491916  1
  H+  H94  1  0.63629002  0.51807472  0.49796566  1
  H+  H95  1  0.87698764  0.26341589  0.50281775  1
  H+  H96  1  0.37835965  0.30924319  0.50466049  1
  H+  H97  1  0.26088147  0.64356857  0.34324249  1
  H+  H98  1  0.36498728  0.23066987  0.67284728  1
  H+  H99  1  0.70231699  0.57939815  0.65926602  1
  H+  H100  1  0.13030215  0.01472653  0.16646744  1
  H+  H101  1  1.00206972  0.12703453  0.15527035  1
  H+  H102  1  0.82825346  0.67752309  0.65766335  1
  H+  H103  1  0.63410777  0.02611224  0.30647991  1
  H+  H104  1  0.72829043  0.38224672  0.32176670  1
  H+  H105  1  0.89999944  0.87219279  1.00334536  1
  H+  H106  1  0.35691050  0.01577773  0.65697929  1
  H+  H107  1  0.72987551  0.36272536  0.85114206  1
  H+  H108  1  0.85110738  0.11812051  0.67983063  1
  H+  H109  1  0.88906244  0.52530402  0.50893380  1
  H+  H110  1  0.12420722  0.48241620  0.66112393  1
  H+  H111  1  0.52720047  0.39253970  0.32878511  1
  H+  H112  1  0.13550825  0.77103075  0.83440095  1
  H+  H113  1  0.88645932  0.36262972  0.84259217  1
  H+  H114  1  0.61633725  0.98841176  0.15783068  1
  H+  H115  1  0.89838658  0.12995042  0.15731845  1
  H+  H116  1  0.91240085  0.02247485  0.30302824  1
  H+  H117  1  0.72356309  0.85702445  0.51564734  1
  H+  H118  1  0.35581807  0.18322772  0.49387705  1
  H+  H119  1  0.34902886  -0.03435374  1.00652581  1
  H+  H120  1  0.47998663  0.09760992  0.50625721  1
  H+  H121  1  0.41562073  0.82780555  0.22844302  1
  H+  H122  1  0.21663518  0.86246493  0.34254734  1
  H+  H123  1  0.13494055  1.03490061  0.84222554  1
  H+  H124  1  0.23001611  0.61794731  0.17351587  1
  H+  H125  1  0.65784667  0.58430138  0.24787926  1
  H+  H126  1  0.59629874  0.11516033  0.68284362  1
  H+  H127  1  0.37832793  0.84953773  0.32798297  1
  H+  H128  1  0.61970699  0.37252704  -0.00969439  1
  H+  H129  1  0.88900526  0.20631691  -0.01152502  1
  H+  H130  1  0.50794847  0.37693358  0.00054680  1
  H+  H131  1  0.22304337  0.85954290  0.82677883  1
  H+  H132  1  0.88273940  0.63945688  0.16476845  1
  H+  H133  1  0.87032726  0.87299127  0.15654581  1
  H+  H134  1  0.51072584  0.37031124  0.67703356  1
  H+  H135  1  0.58902193  0.36517015  0.45845797  1
  H+  H136  1  0.58474379  0.66382129  0.76899333  1
  H+  H137  1  0.85959894  0.38629326  0.49352793  1
  H+  H138  1  0.77915903  0.88164477  0.15685011  1
  H+  H139  1  0.13652981  0.98435461  0.01335338  1
  H+  H140  1  0.50957769  0.11981050  0.68121742  1
  H+  H141  1  0.36198959  0.63954334  0.82582214  1
  H+  H142  1  0.97754381  0.36501443  0.83908871  1
  H+  H143  1  0.12641606  0.37814645  0.67440543  1
  H+  H144  1  0.61630001  0.38283446  0.15223891  1
  H+  H145  1  0.84228067  0.36759334  0.62996679  1
  H+  H146  1  0.88696397  0.86970363  0.32530986  1
  H+  H147  1  0.18253957  0.35069898  0.57453484  1
  H+  H148  1  0.92312635  0.63485219  0.66187927  1
  H+  H149  1  0.93108422  0.58730449  0.60318858  1
  H+  H150  1  0.61134009  0.96086495  0.67903630  1
  H+  H151  1  0.24078921  0.36034685  0.30446342  1
  H+  H152  1  0.36493673  0.22473023  0.82669841  1
  H+  H153  1  0.77658830  0.62560166  0.82425115  1
  H+  H154  1  0.62715854  0.90539142  0.16337990  1
  H+  H155  1  0.14106408  0.35004842  0.14726710  1
  H+  H156  1  0.38958718  0.62034992  0.50690683  1
  H+  H157  1  0.36596792  0.72203415  0.15756878  1
  H+  H158  1  0.35667726  0.75520520  -0.00279846  1
  H+  H159  1  0.12868177  0.55578373  0.31944935  1
  H+  H160  1  0.52254581  0.63837698  -0.00404692  1
  H+  H161  1  0.13054307  0.58229597  0.66794650  1
  H+  H162  1  0.75633916  0.09034289  0.97619678  1
  H+  H163  1  0.35480146  0.48723335  0.48698653  1
  H+  H164  1  0.37054969  0.14382135  0.33650333  1
  H+  H165  1  0.27182627  0.38710123  0.82931869  1
  H+  H166  1  0.78998886  0.63974888  0.16073449  1
  H+  H167  1  0.51865542  0.88180322  0.32051420  1
  H+  H168  1  -0.02648861  0.89023077  0.84442027  1
  H+  H169  1  0.66049208  0.33773916  0.92822550  1
  H+  H170  1  -0.02221975  0.61538917  0.50722497  1
  H+  H171  1  0.39626767  0.62201592  0.65856272  1
  H+  H172  1  0.38902421  0.51031212  0.16570071  1
  H+  H173  1  0.60748623  0.62858421  0.67078468  1
  H+  H174  1  1.01276410  0.38437246  0.50929286  1
  H+  H175  1  0.61888419  0.39456740  0.31972214  1
  H+  H176  1  0.82720973  0.43435810  0.39892400  1
  H+  H177  1  0.63864342  0.27073919  0.84914265  1
  H+  H178  1  0.14365210  0.04785057  0.66122992  1
  H+  H179  1  0.12948291  0.52822184  0.51296357  1
  H+  H180  1  0.38884630  0.99099553  0.15578411  1
  H+  H181  1  0.48013309  0.86327109  0.17208117  1
  H+  H182  1  0.39087036  0.53321525  0.98665311  1
  H+  H183  1  0.31527586  0.60666635  0.37297956  1
  H+  H184  1  0.66702694  0.82693819  0.61152312  1
  H+  H185  1  0.02109421  0.89625082  0.33719596  1
  H+  H186  1  0.98542122  0.13004410  0.85119798  1
  H+  H187  1  0.60786252  0.97111015  0.82173860  1
  H+  H188  1  0.18458921  0.42880453  0.37983476  1
  H+  H189  1  0.13312702  0.61927732  0.51413105  1
  H+  H190  1  0.34696482  0.95120084  0.35405639  1
  H+  H191  1  0.36054989  0.13877780  0.67154775  1
  H+  H192  1  0.13897203  0.38080484  0.51918675  1
  H+  H193  1  0.13063670  0.69383142  0.67859010  1
  H+  H194  1  0.12111840  0.36420458  0.98782966  1
  H+  H195  1  0.90106105  0.78410149  0.00167209  1
  H+  H196  1  0.03032573  0.88768270  0.15880500  1
  H+  H197  1  0.51338751  0.12434787  0.16787516  1
  H+  H198  1  0.89723550  0.13074963  0.84947518  1
  H+  H199  1  0.85715608  1.00181478  0.83277643  1
  H+  H200  1  0.47734409  0.37675619  0.50364390  1
  H+  H201  1  0.37578003  0.76055491  0.53590342  1
  H+  H202  1  0.88996551  0.60409034  0.84112929  1
  H+  H203  1  1.03039067  0.36159583  0.66959342  1
  H+  H204  1  0.34902938  0.08692673  0.98812430  1
  H+  H205  1  0.63340252  0.85534042  0.52226477  1
  H+  H206  1  0.38079737  0.25873874  0.16581293  1
  H+  H207  1  0.09920261  0.13472989  0.49442819  1
  H+  H208  1  0.26742324  0.64283570  0.50729463  1
  H+  H209  1  0.89323818  0.78362051  0.32545976  1
  H+  H210  1  0.77474453  0.13725121  0.82465745  1
  H+  H211  1  0.35939944  0.62957424  0.15856783  1
  H+  H212  1  0.11730244  0.77153939  0.33888375  1
  H+  H213  1  0.25809313  0.15542455  0.48797721  1
  H+  H214  1  0.42723763  0.05830990  0.30254324  1
  H+  H215  1  0.42614259  0.33955379  0.39518364  1
  H+  H216  1  0.64607835  0.86069796  -0.00303694  1
  H+  H217  1  0.77623760  0.88986491  1.00912451  1
  H+  H218  1  0.38150345  0.06995894  0.50219467  1
  H+  H219  1  0.63901768  0.61067330  0.83922666  1
  H+  H220  1  0.88716283  0.09391288  0.31852016  1
  H+  H221  1  0.52872148  0.72088560  0.11738031  1
  H+  H222  1  0.23314391  0.13324119  0.65806030  1
  H+  H223  1  0.84874530  0.67966676  0.39065380  1
  H+  H224  1  0.63165822  0.85066870  0.31318039  1
  H+  H225  1  0.85836485  0.38700853  0.14449005  1
  H+  H226  1  0.71907709  0.85139724  0.32728468  1
  H+  H227  1  0.36779527  0.37768945  0.14969218  1
  H+  H228  1  0.07476666  0.40863172  0.35302125  1
  H+  H229  1  0.38655269  0.76619314  0.32708021  1
  H+  H230  1  0.66788526  0.32136238  0.58326261  1
  H+  H231  1  0.63878697  0.60798641  0.15529295  1
  H+  H232  1  0.91441864  0.10407309  0.94609143  1
  H+  H233  1  0.16943903  0.09754356  0.56610943  1
  H+  H234  1  0.40479489  0.62065042  0.30874662  1
  H+  H235  1  1.02358050  0.63029582  0.83472184  1
  H+  H236  1  -0.01295317  0.33114172  -0.01701693  1
  H+  H237  1  0.11605940  0.14965220  0.67470056  1
  H+  H238  1  0.11076778  0.66101762  0.33315228  1
  H+  H239  1  0.77005722  0.91076449  0.83025579  1
  H+  H240  1  0.71499898  0.09170505  0.67194590  1
  H+  H241  1  0.88715335  0.76409495  0.49686792  1
  H+  H242  1  0.62824817  0.25642977  0.67038667  1
  H+  H243  1  0.91463888  0.83510337  0.22839044  1
  H+  H244  1  0.84665557  0.49238904  0.69033113  1
  H+  H245  1  0.13218431  0.72958179  0.17855771  1
  H+  H246  1  0.35270153  0.86936080  0.00859582  1
  H+  H247  1  0.85221997  0.12138397  0.50194183  1
  H+  H248  1  0.64368863  0.78505830  0.16186857  1
  H+  H249  1  0.57136924  0.40911597  0.05992765  1
  H+  H250  1  0.38089946  0.85365087  0.85026740  1
  H+  H251  1  0.63201399  0.61557033  0.31623877  1
  H+  H252  1  0.14308790  0.36654942  0.84317758  1
  H+  H253  1  0.85898007  0.96782480  0.50305758  1
  H+  H254  1  0.22797605  0.11139920  0.31751406  1
  H+  H255  1  0.31272823  0.42481857  0.42755309  1
  H+  H256  1  0.38532984  0.02025899  0.82696815  1
  H+  H257  1  0.71644367  0.10008868  0.51638776  1
  H+  H258  1  0.36996106  0.39427303  -0.00574688  1
  H+  H259  1  0.22302554  0.12145912  0.83698914  1
  H+  H260  1  0.67153049  0.58599806  0.93274687  1
  H+  H261  1  0.27069159  0.63703690  0.82841155  1
  H+  H262  1  0.97705984  0.37333489  0.15051726  1
  H+  H263  1  0.47490027  0.61456194  0.83679946  1
  H+  H264  1  0.90471277  0.76061396  0.68255611  1
  H+  H265  1  0.11209839  0.71022391  0.00041175  1
  H+  H266  1  0.46994147  0.85051384  0.55090353  1
  H+  H267  1  0.38370207  0.61904045  0.98850228  1
  H+  H268  1  0.98584973  0.61090713  0.99210470  1
  H+  H269  1  0.51562053  0.87992682  0.82389077  1
  H+  H270  1  0.52836672  0.63017319  0.33493008  1
  H+  H271  1  0.11348199  -0.01575652  0.33433952  1
  H+  H272  1  0.23843105  0.36620301  0.66519331  1
  H+  H273  1  0.47319938  0.36276051  0.83885272  1
  H+  H274  1  0.62934649  0.15248992  0.33900968  1
  H+  H275  1  0.64760147  0.77220962  0.99284816  1
  H+  H276  1  0.03463133  0.14175607  0.33126839  1
  H+  H277  1  0.03193993  0.61908536  0.67323952  1
  H+  H278  1  0.56110137  0.14360651  0.00457445  1
  H+  H279  1  0.14436613  0.61230821  0.84543206  1
  H+  H280  1  0.01583205  0.65156851  0.33106239  1
  H+  H281  1  0.38557570  0.36635163  0.66504367  1
  H+  H282  1  0.12498071  0.22725579  0.33006096  1
  H+  H283  1  0.50538444  0.14533795  0.32485795  1
  H+  H284  1  0.81649664  0.96865835  0.36658431  1
  H+  H285  1  0.35420494  0.12934308  0.14994664  1
  H+  H286  1  0.89576955  0.88679859  0.68670185  1
  H+  H287  1  0.88190481  0.66087396  0.32811521  1
  H+  H288  1  0.30153315  0.91623526  0.73542524  1
  H+  H289  1  0.86229112  0.23008187  0.82443657  1
  H+  H290  1  0.83896479  0.91451451  0.09225758  1
  H+  H291  1  0.06914419  0.15996134  0.43441448  1
  H+  H292  1  0.09466743  0.91883720  0.10257640  1
  H+  H293  1  0.07354280  0.63919595  0.09144954  1
  H+  H294  1  0.63632681  0.76480746  0.66948579  1
  H+  H295  1  1.01200612  0.61626785  0.15338704  1
  H+  H296  1  0.65768573  0.27570499  0.17131353  1
  H+  H297  1  0.83265719  0.41903523  0.08620512  1
  H+  H298  1  0.84541181  0.67078088  0.06876950  1
  H+  H299  1  0.06895663  0.41887575  0.45165654  1
  H+  H300  1  0.82729591  0.15818534  0.73724122  1
  H+  H301  1  0.33522292  0.16580670  0.76756181  1
  H+  H302  1  0.91828584  0.30303141  0.92785343  1
  H+  H303  1  0.41757739  0.34292146  0.60348252  1
  H+  H304  1  0.67717323  0.83179937  0.22630840  1
  H+  H305  1  0.09460636  0.93567532  0.77534229  1
  H+  H306  1  0.08659972  0.40119150  0.04395028  1
  H+  H307  1  0.08371392  0.17713250  0.73534864  1
  H+  H308  1  0.09497908  0.16538862  0.03925626  1
  H+  H309  1  0.17193170  0.32309153  0.20724290  1
  H+  H310  1  0.93830657  0.81225992  0.55460917  1
  H+  H311  1  0.89019992  0.02373197  0.66826511  1
  H+  H312  1  0.58729426  0.42787875  0.41132767  1
  H+  H313  1  0.65535788  0.06399963  0.61272761  1
  H+  H314  1  0.05566757  0.48412565  0.09866045  1
  H+  H315  1  0.17243831  0.60813806  0.25978172  1
  H+  H316  1  0.84192884  0.66004829  0.76833940  1
  H+  H317  1  0.67415213  0.09999848  0.25642937  1
  H+  H318  1  0.41555970  0.59024273  0.89578106  1
  H+  H319  1  0.66922869  0.82808117  0.90297962  1
  H+  H320  1  0.17636832  0.58309777  0.90712940  1
  H+  H321  1  0.92712836  0.60159718  0.24900719  1
  H+  H322  1  0.81511567  0.13800593  0.44128398  1
  H+  H323  1  0.61073746  0.38316154  0.83065338  1
  H+  H324  1  0.45190747  0.11969949  0.21964776  1
  H+  H325  1  0.58203463  0.90398758  0.74860686  1
  H+  H326  1  0.41318073  0.31995802  0.22365690  1
  H+  H327  1  0.33917931  0.91819264  0.07471627  1
  H+  H328  1  0.13488574  0.60931267  0.16995238  1
  H+  H329  1  0.81900994  0.90431580  0.41191793  1
  H+  H330  1  0.40216165  0.79592344  0.61060394  1
  H+  H331  1  0.92033630  0.85786627  0.90276283  1
  H+  H332  1  0.63188887  0.15876168  0.11155015  1
  H+  H333  1  0.39898664  0.82340157  0.94287814  1
  H+  H334  1  0.08283561  0.67476104  0.43694358  1
  H+  H335  1  0.15337227  0.35702660  0.29535514  1
  H+  H336  1  0.38603753  0.27167277  0.34341284  1
  H+  H337  1  0.36180706  0.47731088  0.82866207  1
  H+  H338  1  0.59256546  0.91582101  0.06454230  1
  H+  H339  1  0.41415486  0.07795944  0.60482030  1
  H+  H340  1  0.59316175  0.17393323  0.44007377  1
  H+  H341  1  0.61543482  0.72234947  0.82908369  1
  H+  H342  1  0.63287302  0.24356595  0.34057240  1
  H+  H343  1  0.38353676  0.36295421  0.83756006  1
  H+  H344  1  0.59045747  0.92211698  0.37060015  1
  H+  H345  1  0.15630642  0.82214137  0.92963858  1
  H+  H346  1  0.47329575  0.60502114  0.16221170  1
  H+  H347  1  0.15772028  0.56173979  0.60117611  1
  H+  H348  1  0.31795084  0.65357396  0.05777918  1
  H+  H349  1  0.54647462  0.89862667  0.47498744  1
  H+  H350  1  0.65514764  0.56568071  0.59541928  1
  H+  H351  1  0.83032358  0.93900448  0.74613406  1
  H+  H352  1  0.72863440  0.13563153  0.15724427  1
  H+  H353  1  0.24174151  0.39212660  0.50221121  1
  H+  H354  1  0.46219781  0.80755382  0.68931105  1
  H+  H355  1  0.16522646  0.82574435  0.18906153  1
  H+  H356  1  0.08170688  0.65065155  0.77545697  1
  H+  H357  1  0.32821228  0.68688267  0.45016807  1
  H+  H358  1  0.96804843  0.24694216  0.61514137  1
  H+  H359  1  0.92882054  0.87719524  0.62358338  1
  H+  H360  1  0.89787905  0.61556286  0.99548473  1
  H+  H361  1  0.75690011  0.40507833  0.69124469  1
  H+  H362  1  0.92967989  0.10023548  0.21961334  1
  H+  H363  1  0.11237212  0.73215291  0.49752319  1
  H+  H364  1  0.91135936  0.07531711  0.57068545  1
  H+  H365  1  0.91523033  0.34131630  0.20844649  1
  H+  H366  1  0.17333830  0.33237235  0.90236176  1
  H+  H367  1  0.67460296  0.34119057  0.25941721  1
  H+  H368  1  0.38556337  0.10766997  0.83718194  1
  H+  H369  1  0.88101958  0.47823018  -0.00118461  1
  H+  H370  1  0.36353542  0.94129860  0.49535503  1
  H+  H371  1  0.57965369  0.40808642  0.76982985  1
  H+  H372  1  0.13740111  0.92948431  0.67764436  1
  H+  H373  1  0.67147486  0.06928853  0.88909910  1
  H+  H374  1  0.58773537  0.66552271  0.43501223  1
  H+  H375  1  0.81917589  0.42283889  0.78381170  1
  H+  H376  1  0.15947176  0.07969808  0.22439715  1
  H+  H377  1  0.57402430  0.67897823  0.08255141  1
  H+  H378  1  0.31940218  0.88651280  0.40984534  1
  H+  H379  1  0.11545381  0.23426683  0.82638125  1
  H+  H380  1  0.42641032  0.57644152  0.25509081  1
  H+  H381  1  0.92250975  0.58163256  0.90363111  1
  H+  H382  1  0.40832586  0.32532125  0.92723533  1
  H+  H383  1  0.17508734  0.85113515  0.56792135  1
  O2-  O384  1  0.07502776  0.15035422  0.13484350  1
  O2-  O385  1  0.06043982  0.15486456  0.47872881  1
  O2-  O386  1  0.08039677  0.17414311  0.81023525  1
  O2-  O387  1  0.07279273  0.44933641  0.12273228  1
  O2-  O388  1  0.07471842  0.42044452  0.49619649  1
  O2-  O389  1  0.08447847  0.42041621  0.81901814  1
  O2-  O390  1  0.06974281  0.62778375  0.13640252  1
  O2-  O391  1  0.08457971  0.67170362  0.48209600  1
  O2-  O392  1  0.08473143  0.66214017  0.81934944  1
  O2-  O393  1  0.09174906  0.92116095  0.14818429  1
  O2-  O394  1  0.09093713  0.92754935  0.47741252  1
  O2-  O395  1  0.08830038  0.92789171  0.81987137  1
  O2-  O396  1  0.32274439  0.15966619  0.14080371  1
  O2-  O397  1  0.31705886  0.19287486  0.46840794  1
  O2-  O398  1  0.33797458  0.16395713  0.81277707  1
  O2-  O399  1  0.34169129  0.41205767  0.13556186  1
  O2-  O400  1  0.31305250  0.42740683  0.47268585  1
  O2-  O401  1  0.33331995  0.41723408  0.81288398  1
  O2-  O402  1  0.33060941  0.66090241  0.14440763  1
  O2-  O403  1  0.32931031  0.67837105  0.49455669  1
  O2-  O404  1  0.33219390  0.67103128  0.81142764  1
  O2-  O405  1  0.35118811  0.93111977  0.14272578  1
  O2-  O406  1  0.32380015  0.88410718  0.47816984  1
  O2-  O407  1  0.32381143  0.91503219  0.77938944  1
  O2-  O408  1  0.63209947  0.16148828  0.15658793  1
  O2-  O409  1  0.58567308  0.16626291  0.48487418  1
  O2-  O410  1  0.58466437  0.16573355  0.82092962  1
  O2-  O411  1  0.58407785  0.41212340  0.13874987  1
  O2-  O412  1  0.57948283  0.41395933  0.45592524  1
  O2-  O413  1  0.58065376  0.41282557  0.81517020  1
  O2-  O414  1  0.56248449  0.69312097  0.12589986  1
  O2-  O415  1  0.58349157  0.66166511  0.48001074  1
  O2-  O416  1  0.58352864  0.66153350  0.81409609  1
  O2-  O417  1  0.58874890  0.92642979  0.14888835  1
  O2-  O418  1  0.56301827  0.90535281  0.51773742  1
  O2-  O419  1  0.57612167  0.90890630  0.80710949  1
  O2-  O420  1  0.83952158  0.16618742  0.12859676  1
  O2-  O421  1  0.81983674  0.14960289  0.48533577  1
  O2-  O422  1  0.83513892  0.16864933  0.81027538  1
  O2-  O423  1  0.82749074  0.41728740  0.13223417  1
  O2-  O424  1  0.83113242  0.41900861  0.48088724  1
  O2-  O425  1  0.82604805  0.41240494  0.82789157  1
  O2-  O426  1  0.84991454  0.67333649  0.14748980  1
  O2-  O427  1  0.83515834  0.66493608  0.47541242  1
  O2-  O428  1  0.83694313  0.64733632  0.81187296  1
  O2-  O429  1  0.83968231  0.90708024  0.14018606  1
  O2-  O430  1  0.82775524  0.90657817  0.48765359  1
  O2-  O431  1  0.80916767  0.96194302  0.80616380  1
  O2-  O432  1  0.15900247  0.07917072  0.17907026  1
  O2-  O433  1  0.16717752  0.09560494  0.52015341  1
  O2-  O434  1  0.16271975  0.09778021  0.84943782  1
  O2-  O435  1  0.16920104  0.31892289  0.16177630  1
  O2-  O436  1  0.17864924  0.35822511  0.52863189  1
  O2-  O437  1  0.17467930  0.33629184  0.85379585  1
  O2-  O438  1  0.17085326  0.58746146  0.19161646  1
  O2-  O439  1  0.16254809  0.58782055  0.52964504  1
  O2-  O440  1  0.17714364  0.58353128  0.85716239  1
  O2-  O441  1  0.16578945  0.77664108  0.20739441  1
  O2-  O442  1  0.16521005  0.83752301  0.52386424  1
  O2-  O443  1  0.16618005  0.83289049  0.84646763  1
  O2-  O444  1  0.45309722  0.10846525  0.17584128  1
  O2-  O445  1  0.42130877  0.05562484  0.52176197  1
  O2-  O446  1  0.41345333  0.07392526  0.85099126  1
  O2-  O447  1  0.41642248  0.32080580  0.17941967  1
  O2-  O448  1  0.42383009  0.35954188  0.52592499  1
  O2-  O449  1  0.41235532  0.33106019  0.85297020  1
  O2-  O450  1  0.41752194  0.57000560  0.18341025  1
  O2-  O451  1  0.41531486  0.58464310  0.51798025  1
  O2-  O452  1  0.41372586  0.58703980  0.85011427  1
  O2-  O453  1  0.41838216  0.82888278  0.18346520  1
  O2-  O454  1  0.40802698  0.81244766  0.56443045  1
  O2-  O455  1  0.41666858  0.82755231  0.85574881  1
  O2-  O456  1  0.66958258  0.10809259  0.17609089  1
  O2-  O457  1  0.65675999  0.07367726  0.53320866  1
  O2-  O458  1  0.66262879  0.07045007  0.84428018  1
  O2-  O459  1  0.67531301  0.33605834  0.18013756  1
  O2-  O460  1  0.66915307  0.32970771  0.53683878  1
  O2-  O461  1  0.66663448  0.33116604  0.86485281  1
  O2-  O462  1  0.66131240  0.57684524  0.17789848  1
  O2-  O463  1  0.66509001  0.57479428  0.51815085  1
  O2-  O464  1  0.66942888  0.58107950  0.85539908  1
  O2-  O465  1  0.68135503  0.84194220  0.18147150  1
  O2-  O466  1  0.66352401  0.82343398  0.53186927  1
  O2-  O467  1  0.66470492  0.82451101  0.85747091  1
  O2-  O468  1  0.93231011  0.10303218  0.17435070  1
  O2-  O469  1  0.90439429  0.07101114  0.52536405  1
  O2-  O470  1  0.92711452  0.10431816  0.87073009  1
  O2-  O471  1  0.91707884  0.33205702  0.16444055  1
  O2-  O472  1  0.90681284  0.32247405  0.52037798  1
  O2-  O473  1  0.91603314  0.32944395  0.85198759  1
  O2-  O474  1  0.92337891  0.59613846  0.18658168  1
  O2-  O475  1  0.91827755  0.58564801  0.52426401  1
  O2-  O476  1  0.92215577  0.57589984  0.85799605  1
  O2-  O477  1  0.91309675  0.83200158  0.18304604  1
  O2-  O478  1  0.92125188  0.82401923  0.51531610  1
  O2-  O479  1  0.91606344  0.87316735  0.86054424  1
  O2-  O480  1  0.16693086  0.08213706  0.30408599  1
  O2-  O481  1  0.17263293  0.10647517  0.64202591  1
  O2-  O482  1  0.21022629  0.10197916  0.99979665  1
  O2-  O483  1  0.18231234  0.32528077  0.28463834  1
  O2-  O484  1  0.17889272  0.33709419  0.64602425  1
  O2-  O485  1  0.17017980  0.32707324  0.96814240  1
  O2-  O486  1  0.16981400  0.61399871  0.30661248  1
  O2-  O487  1  0.15708760  0.55028732  0.64646627  1
  O2-  O488  1  0.17195398  0.58067158  0.97084601  1
  O2-  O489  1  0.15493398  0.83895878  0.32998461  1
  O2-  O490  1  0.19527463  0.88360239  0.64865622  1
  O2-  O491  1  0.14891373  0.81027101  0.97366373  1
  O2-  O492  1  0.44699410  0.11950384  0.30473313  1
  O2-  O493  1  0.40547888  0.07744251  0.64911509  1
  O2-  O494  1  0.38512068  0.06140770  0.97793654  1
  O2-  O495  1  0.41942102  0.33608152  0.35089880  1
  O2-  O496  1  0.41428171  0.33511154  0.64858418  1
  O2-  O497  1  0.40871207  0.32521028  0.97330845  1
  O2-  O498  1  0.42743382  0.58203854  0.30149023  1
  O2-  O499  1  0.41955419  0.58511824  0.64463090  1
  O2-  O500  1  0.42021963  0.59470842  0.97306235  1
  O2-  O501  1  0.41297029  0.82510597  0.31081979  1
  O2-  O502  1  0.40093229  0.78222736  0.67774088  1
  O2-  O503  1  0.38510919  0.81884484  0.98638988  1
  O2-  O504  1  0.67242572  0.08910272  0.30113225  1
  O2-  O505  1  0.65346845  0.05652469  0.65778391  1
  O2-  O506  1  0.69428767  0.06966007  0.96490380  1
  O2-  O507  1  0.66909544  0.34320175  0.30477749  1
  O2-  O508  1  0.65744169  0.31644247  0.65442221  1
  O2-  O509  1  0.65719011  0.34520439  0.97657482  1
  O2-  O510  1  0.65851978  0.58297914  0.29475013  1
  O2-  O511  1  0.64674538  0.56194756  0.64086157  1
  O2-  O512  1  0.66913763  0.58681769  0.97853140  1
  O2-  O513  1  0.66335674  0.81943303  0.30497682  1
  O2-  O514  1  0.66608855  0.82748552  0.65697019  1
  O2-  O515  1  0.68001485  0.83369758  0.98037012  1
  O2-  O516  1  0.92986302  0.08290063  0.29696822  1
  O2-  O517  1  0.91711970  0.08251203  0.64937971  1
  O2-  O518  1  0.90451884  0.09794724  0.99200663  1
  O2-  O519  1  0.89540278  0.36278487  0.28773702  1
  O2-  O520  1  0.94497204  0.28163011  0.63176034  1
  O2-  O521  1  0.92280993  0.29343629  0.97212721  1
  O2-  O522  1  0.93020176  0.60923132  0.29937990  1
  O2-  O523  1  0.93879007  0.59164486  0.64837749  1
  O2-  O524  1  0.92382477  0.58269829  0.97805133  1
  O2-  O525  1  0.92136903  0.84591953  0.30885054  1
  O2-  O526  1  0.93250979  0.86459037  0.66619335  1
  O2-  O527  1  0.93401888  0.84597122  0.99027314  1
  O2-  O528  1  0.12708965  0.17796636  0.00141025  1
  O2-  O529  1  0.09281363  0.17000853  0.34948972  1
  O2-  O530  1  0.08393582  0.17873510  0.68891061  1
  O2-  O531  1  0.08245751  0.39249954  -0.00000702  1
  O2-  O532  1  0.01873608  0.38148220  0.37309363  1
  O2-  O533  1  0.08872979  0.40371082  0.68602847  1
  O2-  O534  1  0.08417073  0.64926854  0.01526000  1
  O2-  O535  1  0.07551244  0.68262550  0.35314298  1
  O2-  O536  1  0.09050302  0.63561356  0.69193651  1
  O2-  O537  1  0.10093903  0.92411910  0.02655614  1
  O2-  O538  1  0.08173334  0.92565094  0.35375791  1
  O2-  O539  1  0.10301085  0.95382853  0.69490493  1
  O2-  O540  1  0.30184875  0.15457402  0.01618234  1
  O2-  O541  1  0.33222191  0.16665957  0.34812058  1
  O2-  O542  1  0.33170274  0.17006433  0.68744955  1
  O2-  O543  1  0.34655453  0.43026108  0.01003999  1
  O2-  O544  1  0.32745263  0.41809823  0.34601549  1
  O2-  O545  1  0.33485472  0.41911558  0.69229877  1
  O2-  O546  1  0.32007915  0.65649116  0.01304763  1
  O2-  O547  1  0.31742581  0.66096547  0.36441880  1
  O2-  O548  1  0.36209357  0.68989410  0.69099004  1
  O2-  O549  1  0.32901539  0.90886023  0.02816276  1
  O2-  O550  1  0.31623769  0.88981348  0.36240260  1
  O2-  O551  1  0.28663040  0.91563486  0.66667261  1
  O2-  O552  1  0.58301968  0.18976285  0.03467768  1
  O2-  O553  1  0.60203360  0.18362312  0.35709944  1
  O2-  O554  1  0.57031740  0.14968025  0.69628209  1
  O2-  O555  1  0.56999391  0.40942244  0.01445040  1
  O2-  O556  1  0.59068925  0.42880083  0.33374827  1
  O2-  O557  1  0.57239004  0.39767759  0.69108722  1
  O2-  O558  1  0.58213780  0.66543305  0.01410018  1
  O2-  O559  1  0.58885164  0.65916115  0.35029672  1
  O2-  O560  1  0.58261254  0.66279700  0.68720987  1
  O2-  O561  1  0.59726350  0.90863196  0.02052805  1
  O2-  O562  1  0.58317357  0.91506607  0.32667429  1
  O2-  O563  1  0.58423273  0.89936201  0.69682993  1
  O2-  O564  1  0.85342001  0.14003521  0.00552164  1
  O2-  O565  1  0.82122406  0.12516400  0.35451728  1
  O2-  O566  1  0.82043509  0.14962113  0.69140540  1
  O2-  O567  1  0.84931913  0.41736865  0.01353970  1
  O2-  O568  1  0.82439217  0.44266146  0.35440792  1
  O2-  O569  1  0.79855353  0.45320381  0.71652437  1
  O2-  O570  1  0.84563019  0.67271119  0.02318274  1
  O2-  O571  1  0.85215204  0.69018949  0.34652689  1
  O2-  O572  1  0.87741285  0.69664484  0.68458007  1
  O2-  O573  1  0.83561898  0.92536592  0.02772898  1
  O2-  O574  1  0.81502727  0.91369878  0.36685953  1
  O2-  O575  1  0.83798197  0.92568117  0.70106067  1
