# generated using pymatgen
data_H2O
_symmetry_space_group_name_H-M   'P 1'
_cell_length_a   17.99314277
_cell_length_b   17.99217430
_cell_length_c   22.01842957
_cell_angle_alpha   90.00104815
_cell_angle_beta   90.02205637
_cell_angle_gamma   119.98493761
_symmetry_Int_Tables_number   1
_chemical_formula_structural   H2O
_chemical_formula_sum   'H384 O192'
_cell_volume   6174.09772510
_cell_formula_units_Z   192
loop_
 _symmetry_equiv_pos_site_id
 _symmetry_equiv_pos_as_xyz
  1  'x, y, z'
loop_
 _atom_type_symbol
 _atom_type_oxidation_number
  H+  1.0
  O2-  -2.0
loop_
 _atom_site_type_symbol
 _atom_site_label
 _atom_site_symmetry_multiplicity
 _atom_site_fract_x
 _atom_site_fract_y
 _atom_site_fract_z
 _atom_site_occupancy
  H+  H0  1  0.35773487  0.71822483  0.34552348  1
  H+  H1  1  0.85889847  0.14663582  0.83170226  1
  H+  H2  1  0.37186136  0.10490418  0.84058075  1
  H+  H3  1  0.34446218  0.19557805  0.53208167  1
  H+  H4  1  0.63539953  0.78135115  -0.00619182  1
  H+  H5  1  0.10720755  0.23701437  0.66956568  1
  H+  H6  1  0.63189972  0.61408209  0.50669652  1
  H+  H7  1  0.44945230  0.31294939  0.57010294  1
  H+  H8  1  0.61024073  0.94597131  0.72113685  1
  H+  H9  1  -0.02372740  0.87982782  -0.02131485  1
  H+  H10  1  0.86202156  0.89465700  0.00285388  1
  H+  H11  1  0.27881979  0.40051320  0.16089510  1
  H+  H12  1  0.63036431  0.77490650  0.33694118  1
  H+  H13  1  0.41460497  0.07903757  0.22540300  1
  H+  H14  1  0.29189855  0.91983970  0.49539552  1
  H+  H15  1  0.95108309  0.11571829  0.33964398  1
  H+  H16  1  0.50720044  0.37936127  0.01344602  1
  H+  H17  1  0.86751831  0.23174585  0.67630205  1
  H+  H18  1  0.39239978  0.85331629  0.50662308  1
  H+  H19  1  0.85661284  0.12799131  0.02850429  1
  H+  H20  1  0.37013603  0.23883111  0.83851085  1
  H+  H21  1  0.14159613  0.27069515  1.01111718  1
  H+  H22  1  0.12256003  0.14865124  0.81557244  1
  H+  H23  1  0.22203462  0.86982991  0.99653414  1
  H+  H24  1  0.83660395  0.42116798  0.07066582  1
  H+  H25  1  0.37723814  0.24517466  0.68496415  1
  H+  H26  1  0.26965745  0.88098011  0.34291669  1
  H+  H27  1  0.52759117  0.64631035  0.16979850  1
  H+  H28  1  0.86886935  0.47933799  1.00930788  1
  H+  H29  1  0.38558352  -0.00513005  0.49883878  1
  H+  H30  1  0.39080101  0.38876377  0.52969055  1
  H+  H31  1  0.65296265  0.80744126  0.66757661  1
  H+  H32  1  0.51915218  0.63380190  0.50510059  1
  H+  H33  1  0.06773999  0.15683740  0.42728042  1
  H+  H34  1  0.03138863  0.39465019  0.82265338  1
  H+  H35  1  0.92304395  0.35289302  0.89213603  1
  H+  H36  1  0.41890661  0.58873774  -0.06647344  1
  H+  H37  1  0.45808352  0.10318593  -0.00311180  1
  H+  H38  1  0.88458046  0.87302113  0.17711506  1
  H+  H39  1  0.41873881  0.34349346  0.25773335  1
  H+  H40  1  0.13412059  0.52695101  0.17418229  1
  H+  H41  1  0.37980415  0.84952264  0.32665212  1
  H+  H42  1  0.21776871  0.11152091  0.16666887  1
  H+  H43  1  0.51532731  0.12877703  0.15978761  1
  H+  H44  1  0.99077569  0.62560988  0.83953511  1
  H+  H45  1  0.46980598  0.85582863  0.32529566  1
  H+  H46  1  0.62411824  0.48721856  0.66515586  1
  H+  H47  1  0.73572467  0.11593924  0.50428861  1
  H+  H48  1  0.89882920  0.53004223  0.65977065  1
  H+  H49  1  0.64045520  0.38498674  0.99273407  1
  H+  H50  1  0.50679843  0.88128172  0.00273243  1
  H+  H51  1  0.41192147  0.83382765  0.89840384  1
  H+  H52  1  0.10486001  0.37105712  0.00855928  1
  H+  H53  1  0.13052347  0.26514543  0.50084100  1
  H+  H54  1  0.96670430  0.11135380  0.50603716  1
  H+  H55  1  0.60919183  0.89984855  0.33773210  1
  H+  H56  1  0.13622505  0.36482702  0.84515621  1
  H+  H57  1  0.14283341  0.61460297  0.84082480  1
  H+  H58  1  1.02013372  0.87302437  0.67080914  1
  H+  H59  1  0.61371926  -0.03757258  0.50002929  1
  H+  H60  1  0.09411057  0.12110457  0.48433356  1
  H+  H61  1  0.87431982  0.86250764  0.32980969  1
  H+  H62  1  0.65024544  0.37366363  0.32411680  1
  H+  H63  1  0.90294791  0.83306579  0.26855378  1
  H+  H64  1  0.12216512  0.48122225  0.82167509  1
  H+  H65  1  0.68299506  0.29257601  0.85616288  1
  H+  H66  1  0.43719646  0.58144490  0.67450084  1
  H+  H67  1  0.05207347  0.13689629  0.28351888  1
  H+  H68  1  0.26606329  0.63837138  0.67364086  1
  H+  H69  1  0.66682006  0.62975195  0.65321310  1
  H+  H70  1  0.13315692  0.53431365  0.65512262  1
  H+  H71  1  0.14260952  0.62618895  1.00446749  1
  H+  H72  1  0.11252250  0.39225731  0.15739344  1
  H+  H73  1  0.12856515  -0.02399480  0.33143249  1
  H+  H74  1  0.64170239  0.12459461  0.64591775  1
  H+  H75  1  0.11842905  0.98372219  0.81860655  1
  H+  H76  1  0.98191182  0.36838739  0.51055938  1
  H+  H77  1  0.62191985  0.39191396  0.48612012  1
  H+  H78  1  0.14102516  0.10638610  0.31861196  1
  H+  H79  1  0.63940323  0.02296161  0.65296206  1
  H+  H80  1  0.49822084  0.11534597  0.84037782  1
  H+  H81  1  0.11828401  0.89418315  0.82606721  1
  H+  H82  1  0.77262702  0.89527845  0.16609987  1
  H+  H83  1  0.00137055  0.66258426  0.01123533  1
  H+  H84  1  0.23234904  0.12690886  0.82195753  1
  H+  H85  1  0.22691719  0.86620138  0.83996748  1
  H+  H86  1  0.38139726  0.10151907  0.67678822  1
  H+  H87  1  0.62011424  0.23310904  0.34283746  1
  H+  H88  1  0.01476192  0.36117307  0.34081994  1
  H+  H89  1  0.63891865  0.90916514  0.81351341  1
  H+  H90  1  0.08789050  -0.04517936  0.47903503  1
  H+  H91  1  0.62754746  0.11492916  0.84908050  1
  H+  H92  1  0.29902798  0.57045332  0.12387835  1
  H+  H93  1  0.62622373  0.23641410  0.65252163  1
  H+  H94  1  0.57564172  0.40604567  0.10807947  1
  H+  H95  1  0.52629468  0.87203919  0.50120076  1
  H+  H96  1  0.47815967  0.87104651  0.16750699  1
  H+  H97  1  0.63737610  0.27298633  0.50058945  1
  H+  H98  1  0.36072116  0.39226001  0.00930221  1
  H+  H99  1  0.60556842  0.88198224  0.00058895  1
  H+  H100  1  0.76381114  0.35452388  0.47448914  1
  H+  H101  1  0.87643755  0.77837396  0.17407733  1
  H+  H102  1  0.88777081  0.11872856  0.66761216  1
  H+  H103  1  0.27034480  0.38915043  0.83757272  1
  H+  H104  1  0.14471455  0.87594223  0.64943078  1
  H+  H105  1  0.89298316  0.36977104  0.31943334  1
  H+  H106  1  0.53475992  0.14221147  0.33889344  1
  H+  H107  1  0.38882743  0.37382079  0.84598196  1
  H+  H108  1  0.22701950  0.61526363  0.32492853  1
  H+  H109  1  0.73275238  0.86884962  0.84113479  1
  H+  H110  1  0.76268355  0.88052872  0.34840723  1
  H+  H111  1  0.36263622  0.38309517  0.33154931  1
  H+  H112  1  0.64092749  0.78101153  0.17863115  1
  H+  H113  1  0.50633344  0.72834154  0.67358367  1
  H+  H114  1  0.11715666  0.23563542  0.82520827  1
  H+  H115  1  0.64079154  0.27212387  0.17511060  1
  H+  H116  1  0.88085215  0.60436755  0.98077565  1
  H+  H117  1  0.37904228  0.02137292  0.16585280  1
  H+  H118  1  0.43551547  0.07865872  0.72435818  1
  H+  H119  1  0.12467799  0.99876636  0.64556354  1
  H+  H120  1  0.84852785  0.97117563  0.35387486  1
  H+  H121  1  0.92271914  0.58110737  0.92623153  1
  H+  H122  1  0.91776511  0.33125745  0.26143532  1
  H+  H123  1  0.87196687  0.40231482  0.81939977  1
  H+  H124  1  0.85880424  0.74782038  0.33364297  1
  H+  H125  1  0.58984240  0.12061006  0.00779116  1
  H+  H126  1  0.24688037  0.59059979  -0.02019316  1
  H+  H127  1  0.88951605  1.02989838  0.00913024  1
  H+  H128  1  0.87411739  0.02555466  0.18585538  1
  H+  H129  1  0.89197371  0.77790034  0.83158092  1
  H+  H130  1  0.39458528  0.11079242  0.31308119  1
  H+  H131  1  0.54279878  0.90466513  0.66014780  1
  H+  H132  1  0.42017898  0.13059092  0.54660455  1
  H+  H133  1  0.86931350  0.38934747  0.66757409  1
  H+  H134  1  0.97831850  0.36388573  0.66311140  1
  H+  H135  1  0.78583067  0.40773659  0.82061069  1
  H+  H136  1  0.87235053  0.63543718  0.67769307  1
  H+  H137  1  0.67417511  0.33934211  0.55622577  1
  H+  H138  1  0.12156011  0.87792212  0.33422943  1
  H+  H139  1  0.85508628  0.23975694  0.33590423  1
  H+  H140  1  0.35077131  0.63717342  0.49247888  1
  H+  H141  1  0.12737258  0.02260379  0.17026104  1
  H+  H142  1  0.39258874  0.28070967  0.31369352  1
  H+  H143  1  0.91386001  0.84288671  0.92179538  1
  H+  H144  1  0.38975084  0.52950539  0.99353714  1
  H+  H145  1  0.89814037  0.86336982  0.65996846  1
  H+  H146  1  1.01973592  0.37840566  1.00261100  1
  H+  H147  1  0.35397028  0.13486040  0.15789014  1
  H+  H148  1  0.02763582  0.14275359  0.04672046  1
  H+  H149  1  0.61351036  0.64553004  1.01109289  1
  H+  H150  1  0.13794096  0.60635992  0.50086807  1
  H+  H151  1  0.51772861  0.63888472  0.34996185  1
  H+  H152  1  0.86949586  0.97739764  0.82790249  1
  H+  H153  1  0.77289267  0.85028864  0.49498985  1
  H+  H154  1  0.00712622  0.88018526  0.17715651  1
  H+  H155  1  0.37081064  0.48697347  0.16804248  1
  H+  H156  1  0.93526453  0.70881329  0.54434800  1
  H+  H157  1  0.11328562  0.39092675  0.49559515  1
  H+  H158  1  0.55148973  0.68687436  0.63847664  1
  H+  H159  1  0.36551200  1.01093277  0.84012224  1
  H+  H160  1  0.47297348  0.61631950  0.84082066  1
  H+  H161  1  0.88478610  0.35906836  0.16795114  1
  H+  H162  1  0.85624070  0.27693552  0.96655784  1
  H+  H163  1  0.22502474  0.36186998  1.00070681  1
  H+  H164  1  0.77090285  0.64828414  0.15927040  1
  H+  H165  1  0.26082141  0.61914641  0.15862928  1
  H+  H166  1  0.79426011  0.90383434  0.67025302  1
  H+  H167  1  0.58934524  0.16775858  0.43349012  1
  H+  H168  1  0.17880542  0.80412167  0.49274083  1
  H+  H169  1  0.33716200  0.92324763  0.39695808  1
  H+  H170  1  0.64776345  0.37336012  0.65104830  1
  H+  H171  1  0.11083661  0.22356270  0.31778667  1
  H+  H172  1  0.64103331  0.78332374  0.84171143  1
  H+  H173  1  0.35925010  0.88169510  0.83112622  1
  H+  H174  1  0.35249025  0.97177985  1.00792845  1
  H+  H175  1  0.37772325  0.27304859  -0.00328342  1
  H+  H176  1  0.38201842  0.52518929  0.33377141  1
  H+  H177  1  0.38641689  0.86759892  -0.00040968  1
  H+  H178  1  0.10128062  0.61786543  0.01905855  1
  H+  H179  1  0.27811196  0.63932729  0.82363401  1
  H+  H180  1  0.07111425  0.69178358  0.48890760  1
  H+  H181  1  0.63683775  0.61293176  0.16978621  1
  H+  H182  1  0.09018340  0.86551532  0.47768047  1
  H+  H183  1  0.66413907  0.89796534  0.65443852  1
  H+  H184  1  0.61499641  0.38946471  0.81659360  1
  H+  H185  1  0.71368831  0.10089796  1.00298233  1
  H+  H186  1  0.90042447  0.53703197  0.83310486  1
  H+  H187  1  0.37757981  0.64894134  1.00557241  1
  H+  H188  1  0.41052474  0.85034064  0.65854378  1
  H+  H189  1  0.14222913  0.28517022  0.15979033  1
  H+  H190  1  0.86815495  0.47007341  0.17229772  1
  H+  H191  1  0.89399074  0.48563105  0.34337908  1
  H+  H192  1  0.53016808  0.39284348  0.33177097  1
  H+  H193  1  0.33975201  0.16785574  0.37384083  1
  H+  H194  1  0.98156698  0.86848054  0.83082563  1
  H+  H195  1  0.38459218  0.61793194  0.83852722  1
  H+  H196  1  0.59705534  0.46729021  0.01648508  1
  H+  H197  1  0.87537015  0.74619040  -0.00302971  1
  H+  H198  1  0.26736785  0.88014943  0.16260961  1
  H+  H199  1  0.85183191  0.21236848  0.03973776  1
  H+  H200  1  0.12398629  0.85135996  0.18505374  1
  H+  H201  1  -0.00093200  0.59772991  0.48667758  1
  H+  H202  1  0.61555015  0.64294625  0.82569614  1
  H+  H203  1  0.35142705  0.13494822  0.00579281  1
  H+  H204  1  0.63958305  0.52909139  0.83178678  1
  H+  H205  1  0.74953009  0.60418733  -0.01095876  1
  H+  H206  1  0.54591281  0.40803623  0.63495804  1
  H+  H207  1  0.61058926  0.97421896  0.21323602  1
  H+  H208  1  0.87750431  0.36720039  0.99400032  1
  H+  H209  1  0.53739359  0.13734963  0.49772857  1
  H+  H210  1  0.89081278  0.77115355  0.66252894  1
  H+  H211  1  0.86801043  0.22969772  0.17288990  1
  H+  H212  1  0.86603063  0.13976498  0.49521571  1
  H+  H213  1  0.64162676  0.85561997  0.50933713  1
  H+  H214  1  0.39087637  0.51783581  0.51180972  1
  H+  H215  1  0.45860050  0.33648888  0.70190020  1
  H+  H216  1  0.13904647  0.04629018  0.96562516  1
  H+  H217  1  0.77838736  0.14345952  0.67389309  1
  H+  H218  1  0.86703097  0.88818710  0.82222396  1
  H+  H219  1  0.73722119  0.39945432  0.99319408  1
  H+  H220  1  0.86190243  0.11538670  0.33956843  1
  H+  H221  1  0.15843393  0.50108189  0.97976326  1
  H+  H222  1  0.35901995  0.48633148  0.66761378  1
  H+  H223  1  0.37841773  0.61343545  0.33880742  1
  H+  H224  1  0.34289872  0.35611766  0.69628314  1
  H+  H225  1  0.62475413  0.48326601  0.48596248  1
  H+  H226  1  0.12448068  0.76397538  0.17588770  1
  H+  H227  1  0.12007254  0.90972514  0.99017863  1
  H+  H228  1  0.38977229  0.77870319  0.99843671  1
  H+  H229  1  0.39235240  0.78337274  0.17258528  1
  H+  H230  1  0.89584177  0.27556573  0.51144707  1
  H+  H231  1  0.85339134  0.35652016  0.48126122  1
  H+  H232  1  0.15994747  0.32790317  0.90503168  1
  H+  H233  1  0.60929359  0.38005634  0.16694831  1
  H+  H234  1  0.35872262  0.88504768  0.15179920  1
  H+  H235  1  0.64526517  0.11449435  0.50276126  1
  H+  H236  1  0.86282962  0.52142781  0.45527500  1
  H+  H237  1  0.77943464  0.63960382  0.82629237  1
  H+  H238  1  0.89166466  0.28805142  0.83615657  1
  H+  H239  1  0.64176259  0.53414906  0.33424693  1
  H+  H240  1  0.72280812  0.12769471  0.84574658  1
  H+  H241  1  0.11951458  0.48290262  0.49397206  1
  H+  H242  1  0.21868052  0.35185227  0.66188662  1
  H+  H243  1  0.85039419  0.54546215  0.43341255  1
  H+  H244  1  0.97380256  0.60624083  0.19131005  1
  H+  H245  1  0.44001470  0.83101729  0.59532124  1
  H+  H246  1  0.91905292  0.70408835  0.03355983  1
  H+  H247  1  0.27839595  0.13677078  0.31725961  1
  H+  H248  1  0.51963315  0.39455437  0.53482497  1
  H+  H249  1  1.00877842  0.14142258  0.67415385  1
  H+  H250  1  0.28178509  0.87094985  0.66883299  1
  H+  H251  1  0.39072147  1.02055546  0.31912359  1
  H+  H252  1  0.11950556  0.73115914  0.83406953  1
  H+  H253  1  0.89562299  0.03165146  0.66541619  1
  H+  H254  1  0.87085675  0.64204180  0.82830979  1
  H+  H255  1  0.74904951  0.61945276  0.65822940  1
  H+  H256  1  0.12217331  0.65348962  0.68004307  1
  H+  H257  1  0.86618665  0.12569900  0.18620647  1
  H+  H258  1  0.22060191  0.35365443  0.31803820  1
  H+  H259  1  0.47822109  0.37434973  0.84300505  1
  H+  H260  1  0.07972060  0.17904975  0.73554342  1
  H+  H261  1  0.11626418  0.75350284  0.32939085  1
  H+  H262  1  0.11763040  0.63296475  0.15814273  1
  H+  H263  1  0.64218740  0.87094120  0.18621353  1
  H+  H264  1  0.38480965  0.77604768  0.83879751  1
  H+  H265  1  0.12046762  0.79696507  -0.00125477  1
  H+  H266  1  1.03393758  0.65067849  0.68555497  1
  H+  H267  1  0.38655291  0.36727486  0.16761473  1
  H+  H268  1  0.63540742  0.99607128  0.81669009  1
  H+  H269  1  0.11333251  0.39301219  0.66935202  1
  H+  H270  1  0.33596487  0.61073107  0.67485590  1
  H+  H271  1  0.35358629  0.17813930  0.60324508  1
  H+  H272  1  0.22721851  0.13119117  0.97553923  1
  H+  H273  1  0.53762909  0.14648326  0.66525086  1
  H+  H274  1  0.33592574  0.66707610  0.76433735  1
  H+  H275  1  0.57140457  0.20888444  0.82883868  1
  H+  H276  1  0.11120313  0.14289307  0.13997781  1
  H+  H277  1  0.66698186  0.84168774  0.93409705  1
  H+  H278  1  0.19010464  0.08346413  0.49157347  1
  H+  H279  1  0.63526441  0.62056237  0.34098717  1
  H+  H280  1  0.37637774  0.75513296  0.50313088  1
  H+  H281  1  0.71052811  0.09982875  0.25826061  1
  H+  H282  1  0.76016239  0.64343519  0.48847419  1
  H+  H283  1  0.83271572  0.17361682  0.77009206  1
  H+  H284  1  0.99587296  0.11733417  0.84732061  1
  H+  H285  1  0.23703127  0.62092117  0.50124981  1
  H+  H286  1  0.73738905  0.37328208  0.65216814  1
  H+  H287  1  0.22113930  0.35042934  0.50267763  1
  H+  H288  1  0.15652982  0.81352044  0.27139479  1
  H+  H289  1  0.58421209  0.41737978  0.39355614  1
  H+  H290  1  0.91959969  0.33161330  0.60311116  1
  H+  H291  1  0.58305053  0.41889903  0.75916956  1
  H+  H292  1  0.18069890  0.57221081  0.88974564  1
  H+  H293  1  0.93931543  0.57137118  0.25668963  1
  H+  H294  1  0.63780271  0.52451829  0.16929558  1
  H+  H295  1  0.08031463  0.41871839  0.09815024  1
  H+  H296  1  0.31585273  0.13297438  0.45177925  1
  H+  H297  1  0.66655882  0.83250072  0.27687975  1
  H+  H298  1  0.16513052  0.07800683  0.25685865  1
  H+  H299  1  0.60589241  0.96868617  0.14333002  1
  H+  H300  1  0.05016064  0.70164349  0.07352114  1
  H+  H301  1  0.56512161  0.15655819  0.06416231  1
  H+  H302  1  0.52304695  0.64085934  0.00521349  1
  H+  H303  1  0.07507091  0.39495045  0.40032505  1
  H+  H304  1  0.83676100  0.66508829  0.73459161  1
  H+  H305  1  0.83174770  0.68948269  0.10186473  1
  H+  H306  1  0.03568750  0.59806338  0.11821658  1
  H+  H307  1  0.44858327  0.07477987  0.58365004  1
  H+  H308  1  0.08574351  0.91004181  0.72845190  1
  H+  H309  1  0.93096046  0.10281862  0.95911702  1
  H+  H310  1  0.67492123  0.58171442  0.89304901  1
  H+  H311  1  0.16423880  0.33345792  0.22441387  1
  H+  H312  1  0.39548256  0.07217647  0.93858697  1
  H+  H313  1  0.63229993  0.09202918  0.21888993  1
  H+  H314  1  0.60669943  0.97615668  0.00184195  1
  H+  H315  1  0.21583889  0.08097589  0.63112296  1
  H+  H316  1  0.83835117  0.17795946  0.43742123  1
  H+  H317  1  0.76009742  0.64547944  0.34014813  1
  H+  H318  1  0.09687034  0.96177597  0.03812111  1
  H+  H319  1  0.13822137  0.05299805  0.55461219  1
  H+  H320  1  0.67306119  0.33401971  0.23320012  1
  H+  H321  1  0.30662971  0.17015131  0.45267826  1
  H+  H322  1  0.93057338  0.60776241  0.61089994  1
  H+  H323  1  0.58024696  0.67594570  0.10721709  1
  H+  H324  1  0.28515652  0.12792400  0.69797334  1
  H+  H325  1  0.84043548  0.42460414  0.72435627  1
  H+  H326  1  0.83995974  0.40312770  0.38850786  1
  H+  H327  1  0.41434865  0.33844857  0.93999337  1
  H+  H328  1  0.08574982  0.91077208  0.39941557  1
  H+  H329  1  0.68308872  0.36303111  0.89918140  1
  H+  H330  1  0.32188933  0.39897691  0.39123272  1
  H+  H331  1  0.05202810  0.63461888  0.39238692  1
  H+  H332  1  0.09315311  0.67389376  0.77360455  1
  H+  H333  1  0.67587658  0.58821737  0.56084672  1
  H+  H334  1  0.36311843  0.21126764  0.77234787  1
  H+  H335  1  0.36800511  0.95744378  0.67930739  1
  H+  H336  1  0.57719230  0.66802513  0.40932065  1
  H+  H337  1  0.42281393  0.59081597  0.24766380  1
  H+  H338  1  0.35367242  0.22397078  0.15858870  1
  H+  H339  1  0.22585390  0.93303898  0.61068166  1
  H+  H340  1  0.12706377  0.34632821  0.32432421  1
  H+  H341  1  0.33659799  0.42918795  0.06745386  1
  H+  H342  1  0.39389071  0.61821953  0.18677556  1
  H+  H343  1  0.31959591  0.16545958  0.06327458  1
  H+  H344  1  0.17435223  0.10157803  0.88124172  1
  H+  H345  1  0.83412915  0.92999895  0.10712157  1
  H+  H346  1  0.84882552  0.92757320  0.73102699  1
  H+  H347  1  0.31398738  0.40149128  0.74409999  1
  H+  H348  1  0.16761697  0.84340996  0.89958136  1
  H+  H349  1  0.70767156  0.50948994  0.96421781  1
  H+  H350  1  0.59995848  -0.02158018  0.31579930  1
  H+  H351  1  0.66382324  0.08005614  0.93797230  1
  H+  H352  1  0.61157922  0.72316889  0.50351701  1
  H+  H353  1  0.16418789  0.32751383  0.59872801  1
  H+  H354  1  0.41369011  0.41815520  0.46427745  1
  H+  H355  1  0.16703955  0.59262176  0.59575085  1
  H+  H356  1  0.58176440  0.67651054  0.77089663  1
  H+  H357  1  0.08826363  0.42251138  0.73039157  1
  H+  H358  1  0.32814244  0.90296859  0.76879261  1
  H+  H359  1  0.32291023  0.66147583  0.40774064  1
  H+  H360  1  0.33556362  0.66917840  0.06259758  1
  H+  H361  1  0.84997629  0.79370869  0.49084833  1
  H+  H362  1  0.40326787  0.56686308  0.57304305  1
  H+  H363  1  0.77639033  0.38485915  0.16279622  1
  H+  H364  1  0.83129205  0.68398597  0.39710728  1
  H+  H365  1  0.83167198  0.88128334  0.43650735  1
  H+  H366  1  0.77372938  0.89528990  0.00773702  1
  H+  H367  1  0.74044158  0.37520690  0.32214326  1
  H+  H368  1  0.32230682  0.91105188  0.06679066  1
  H+  H369  1  0.67634117  0.08932298  0.58598411  1
  H+  H370  1  0.68099090  0.83501498  0.56729731  1
  H+  H371  1  -0.02345105  0.36195132  0.16633215  1
  H+  H372  1  0.14854361  0.82277023  0.55592730  1
  H+  H373  1  0.17070556  0.58991659  0.23381330  1
  H+  H374  1  0.81998887  0.15199442  0.12313048  1
  H+  H375  1  0.89117190  0.07692215  0.25159039  1
  H+  H376  1  0.13214726  0.60370302  0.32045437  1
  H+  H377  1  0.91387788  0.09100725  0.56718017  1
  H+  H378  1  0.47255597  0.35992968  0.17065258  1
  H+  H379  1  0.76012373  0.16460270  0.35468618  1
  H+  H380  1  0.06408452  0.88873179  0.12053560  1
  H+  H381  1  0.97142453  0.04302693  0.89264273  1
  H+  H382  1  0.35815332  0.48032696  0.83187697  1
  H+  H383  1  0.88236844  0.62184134  0.51626148  1
  O2-  O384  1  0.08635388  0.17858652  0.12544962  1
  O2-  O385  1  0.07289576  0.16080797  0.47154052  1
  O2-  O386  1  0.08695162  0.17689812  0.80576931  1
  O2-  O387  1  0.08023360  0.42121439  0.14363036  1
  O2-  O388  1  0.08356367  0.42075200  0.48050932  1
  O2-  O389  1  0.09173119  0.41869615  0.80889630  1
  O2-  O390  1  0.07750108  0.65102922  0.13837500  1
  O2-  O391  1  0.05676207  0.63579789  0.47093685  1
  O2-  O392  1  0.09049416  0.67025358  0.82005519  1
  O2-  O393  1  0.07033159  0.90592012  0.16301763  1
  O2-  O394  1  0.06755534  0.89925059  0.45687517  1
  O2-  O395  1  0.08630473  0.92147703  0.80805656  1
  O2-  O396  1  0.32101323  0.16315923  0.14411439  1
  O2-  O397  1  0.38633443  0.20262671  0.56304888  1
  O2-  O398  1  0.34573666  0.18549399  0.81311114  1
  O2-  O399  1  0.33978779  0.43042456  0.14669945  1
  O2-  O400  1  0.36774135  0.40376361  0.49364040  1
  O2-  O401  1  0.32927338  0.41835150  0.81949332  1
  O2-  O402  1  0.31584598  0.62802835  0.13824899  1
  O2-  O403  1  0.32229462  0.66843181  0.47860202  1
  O2-  O404  1  0.33962136  0.67009431  0.81032366  1
  O2-  O405  1  0.32446853  0.91434725  0.14345752  1
  O2-  O406  1  0.34893305  0.93748664  0.47976070  1
  O2-  O407  1  0.32754157  0.91093971  0.81348297  1
  O2-  O408  1  0.57679683  0.16420213  0.14554003  1
  O2-  O409  1  0.59546365  0.16769869  0.47955292  1
  O2-  O410  1  0.55937772  0.14991718  0.82597920  1
  O2-  O411  1  0.57620572  0.40818230  0.15330434  1
  O2-  O412  1  0.58898780  0.42155896  0.47442999  1
  O2-  O413  1  0.58511837  0.42045090  0.80403892  1
  O2-  O414  1  0.58650665  0.67844027  0.15189598  1
  O2-  O415  1  0.57895575  0.66169074  0.48853715  1
  O2-  O416  1  0.58469899  0.67471878  0.81520997  1
  O2-  O417  1  0.59131457  0.93166233  0.17896680  1
  O2-  O418  1  0.58910859  0.90057790  0.49327016  1
  O2-  O419  1  0.62956822  0.94995896  0.78913117  1
  O2-  O420  1  0.83293240  0.16390873  0.16750908  1
  O2-  O421  1  0.83707661  0.17364177  0.48231240  1
  O2-  O422  1  0.83279388  0.17887934  0.81574605  1
  O2-  O423  1  0.83743238  0.41508955  0.14806647  1
  O2-  O424  1  0.81077821  0.35379979  0.45154193  1
  O2-  O425  1  0.84458909  0.43502523  0.80330802  1
  O2-  O426  1  0.83222367  0.68932841  0.14639059  1
  O2-  O427  1  0.82073904  0.67177364  0.47057220  1
  O2-  O428  1  0.84005420  0.67140285  0.81191035  1
  O2-  O429  1  0.83424992  0.93111948  0.15219714  1
  O2-  O430  1  0.82979404  0.86243570  0.47928429  1
  O2-  O431  1  0.83615531  0.91963533  0.80963834  1
  O2-  O432  1  0.15670558  0.08423278  0.18188582  1
  O2-  O433  1  0.13163737  0.05535625  0.50756818  1
  O2-  O434  1  0.17111761  0.09643568  0.83484904  1
  O2-  O435  1  0.16979840  0.34268830  0.17925151  1
  O2-  O436  1  0.16302903  0.32369129  0.51934876  1
  O2-  O437  1  0.16383628  0.33147352  0.85990314  1
  O2-  O438  1  0.16810787  0.58861769  0.18634649  1
  O2-  O439  1  0.17215278  0.58309685  0.51893908  1
  O2-  O440  1  0.17327447  0.58121117  0.84543380  1
  O2-  O441  1  0.15658160  0.82118641  0.19447430  1
  O2-  O442  1  0.13049702  0.80452650  0.51246111  1
  O2-  O443  1  0.16577684  0.83985017  0.85440304  1
  O2-  O444  1  0.41016290  0.08235281  0.18003443  1
  O2-  O445  1  0.44086187  0.08842465  0.54193994  1
  O2-  O446  1  0.39496171  0.07006667  0.85866254  1
  O2-  O447  1  0.41030284  0.33140321  0.18340610  1
  O2-  O448  1  0.47973705  0.37693861  0.57071373  1
  O2-  O449  1  0.42057169  0.34520049  0.86191103  1
  O2-  O450  1  0.42624280  0.59073866  0.20171920  1
  O2-  O451  1  0.41460678  0.57607930  0.52865968  1
  O2-  O452  1  0.41296346  0.58564466  0.85576474  1
  O2-  O453  1  0.41879668  0.83812758  0.15133036  1
  O2-  O454  1  0.41651371  0.81828565  0.52099000  1
  O2-  O455  1  0.40960069  0.83612755  0.85383776  1
  O2-  O456  1  0.61330230  0.10849310  0.15288444  1
  O2-  O457  1  0.67491393  0.08436346  0.52031876  1
  O2-  O458  1  0.66444398  0.09074319  0.86247434  1
  O2-  O459  1  0.67120290  0.33339190  0.18750670  1
  O2-  O460  1  0.66767985  0.33562222  0.51117530  1
  O2-  O461  1  0.68097447  0.34578475  0.85502337  1
  O2-  O462  1  0.67260670  0.58663579  0.17769858  1
  O2-  O463  1  0.66807830  0.58654020  0.51598402  1
  O2-  O464  1  0.66969052  0.58852546  0.84858999  1
  O2-  O465  1  0.67450768  0.84068399  0.19565906  1
  O2-  O466  1  0.67180953  0.82302577  0.52323112  1
  O2-  O467  1  0.67292529  0.84332384  0.85716213  1
  O2-  O468  1  0.89822907  0.08379435  0.20606456  1
  O2-  O469  1  0.90817841  0.08786988  0.52256234  1
  O2-  O470  1  0.94702574  0.07522766  0.87376125  1
  O2-  O471  1  0.91586451  0.32812824  0.18166385  1
  O2-  O472  1  0.92244834  0.33536940  0.52790544  1
  O2-  O473  1  0.92311947  0.35022052  0.84713518  1
  O2-  O474  1  0.92371953  0.56090495  0.21219242  1
  O2-  O475  1  0.93258437  0.65273715  0.54279243  1
  O2-  O476  1  0.92806105  0.59468103  0.85304909  1
  O2-  O477  1  0.91114126  0.83963746  0.19254736  1
  O2-  O478  1  0.86992987  0.75038494  0.50525541  1
  O2-  O479  1  0.92028833  0.83925660  0.84530333  1
  O2-  O480  1  0.17127334  0.07686637  0.30265705  1
  O2-  O481  1  0.15402617  0.05368385  0.62149531  1
  O2-  O482  1  0.17238402  0.10674384  0.95238965  1
  O2-  O483  1  0.16101478  0.32230089  0.30187074  1
  O2-  O484  1  0.15955734  0.32724041  0.64400419  1
  O2-  O485  1  0.16380768  0.32473258  0.98766995  1
  O2-  O486  1  0.17161700  0.58743071  0.30168195  1
  O2-  O487  1  0.16410981  0.59480745  0.64139065  1
  O2-  O488  1  0.20527437  0.54337079  0.95377549  1
  O2-  O489  1  0.15415430  0.81450747  0.31689701  1
  O2-  O490  1  0.18959016  0.87319672  0.62264833  1
  O2-  O491  1  0.16365885  0.85108106  0.97852356  1
  O2-  O492  1  0.42468133  0.07940080  0.30154004  1
  O2-  O493  1  0.42232482  0.07528150  0.68106528  1
  O2-  O494  1  0.39564230  0.07346462  0.98381401  1
  O2-  O495  1  0.42031078  0.34285475  0.30370080  1
  O2-  O496  1  0.39688793  0.30002808  0.70879843  1
  O2-  O497  1  0.41006896  0.33570819  0.98528862  1
  O2-  O498  1  0.41338021  0.58664645  0.32254035  1
  O2-  O499  1  0.38498357  0.54635933  0.65093934  1
  O2-  O500  1  0.42363056  0.59041417  0.97907612  1
  O2-  O501  1  0.40799825  0.81703595  0.31447341  1
  O2-  O502  1  0.45461252  0.84017419  0.63998247  1
  O2-  O503  1  0.42077674  0.84076753  0.98482422  1
  O2-  O504  1  0.64820692  0.06701689  0.25608089  1
  O2-  O505  1  0.67377332  0.09093469  0.63436036  1
  O2-  O506  1  0.65659722  0.07022841  0.98327647  1
  O2-  O507  1  0.67897571  0.34179441  0.30959509  1
  O2-  O508  1  0.67714683  0.34276990  0.63576306  1
  O2-  O509  1  0.69235739  0.40101879  0.96731307  1
  O2-  O510  1  0.67191264  0.59696579  0.32665997  1
  O2-  O511  1  0.68805790  0.59217625  0.63985741  1
  O2-  O512  1  0.69772977  0.55898086  0.96869093  1
  O2-  O513  1  0.66410600  0.83537579  0.32189721  1
  O2-  O514  1  0.69106456  0.86158738  0.64655696  1
  O2-  O515  1  0.66353749  0.84239045  0.97985933  1
  O2-  O516  1  0.89046409  0.08207733  0.32716411  1
  O2-  O517  1  0.92319730  0.09405279  0.65187839  1
  O2-  O518  1  0.92104761  0.09421746  1.00325010  1
  O2-  O519  1  0.91535840  0.32991282  0.30659688  1
  O2-  O520  1  0.91703471  0.33021980  0.64906444  1
  O2-  O521  1  0.90387378  0.33466040  0.97395207  1
  O2-  O522  1  0.96345469  0.59280835  0.33005703  1
  O2-  O523  1  0.92879842  0.59373613  0.65497200  1
  O2-  O524  1  0.91581238  0.57734112  0.97220886  1
  O2-  O525  1  0.90199253  0.82987239  0.31395376  1
  O2-  O526  1  0.92610437  0.83063138  0.64702756  1
  O2-  O527  1  0.91436703  0.84591364  0.96750040  1
  O2-  O528  1  0.08927336  0.17215487  0.05870075  1
  O2-  O529  1  0.07477398  0.15811935  0.32411204  1
  O2-  O530  1  0.07408941  0.17638020  0.68888292  1
  O2-  O531  1  0.07763849  0.40597985  0.02042802  1
  O2-  O532  1  0.06965033  0.37134554  0.35886804  1
  O2-  O533  1  0.08307844  0.42233245  0.68503765  1
  O2-  O534  1  0.03038508  0.71638456  0.03600394  1
  O2-  O535  1  0.05505155  0.63890405  0.34688720  1
  O2-  O536  1  0.09352749  0.68095761  0.70147564  1
  O2-  O537  1  0.08555766  0.93991260  -0.00330888  1
  O2-  O538  1  0.09785927  0.91628474  0.34871105  1
  O2-  O539  1  0.08358775  0.90540570  0.68326968  1
  O2-  O540  1  0.32367096  0.16916984  0.01803383  1
  O2-  O541  1  0.34060107  0.16976552  0.32939186  1
  O2-  O542  1  0.32718419  0.14141672  0.66597696  1
  O2-  O543  1  0.33228219  0.42549708  0.02212018  1
  O2-  O544  1  0.32691261  0.40827336  0.34746441  1
  O2-  O545  1  0.31281144  0.39008690  0.69916336  1
  O2-  O546  1  0.34396983  0.67717314  0.01794394  1
  O2-  O547  1  0.32515543  0.65729188  0.36076048  1
  O2-  O548  1  0.32396632  0.65496873  0.69035773  1
  O2-  O549  1  0.32399375  0.90974930  0.02112055  1
  O2-  O550  1  0.33128540  0.91823760  0.35220694  1
  O2-  O551  1  0.33853608  0.89510112  0.68850456  1
  O2-  O552  1  0.55837702  0.15007972  0.01942707  1
  O2-  O553  1  0.59000220  0.17461662  0.36057636  1
  O2-  O554  1  0.60063953  0.17397430  0.66229764  1
  O2-  O555  1  0.56784427  0.40715136  0.02992131  1
  O2-  O556  1  0.58947393  0.42138497  0.34844491  1
  O2-  O557  1  0.58498242  0.42415017  0.67124107  1
  O2-  O558  1  0.58333493  0.67597357  0.02219384  1
  O2-  O559  1  0.57877897  0.67028848  0.36402658  1
  O2-  O560  1  0.54284192  0.70259688  0.67928359  1
  O2-  O561  1  0.57386222  0.91262971  0.01584740  1
  O2-  O562  1  0.57411354  0.92765103  0.34217200  1
  O2-  O563  1  0.60628493  0.94545810  0.67434005  1
  O2-  O564  1  0.81852273  0.15017470  0.04491677  1
  O2-  O565  1  0.82041692  0.18040640  0.35597725  1
  O2-  O566  1  0.83584251  0.17103023  0.69319872  1
  O2-  O567  1  0.83463083  0.41917347  0.02486004  1
  O2-  O568  1  0.85077516  0.42256664  0.34448742  1
  O2-  O569  1  0.83979612  0.42219499  0.67906651  1
  O2-  O570  1  0.86211933  0.69099606  0.01773338  1
  O2-  O571  1  0.82687409  0.68193646  0.35143624  1
  O2-  O572  1  0.83756829  0.66366865  0.68912231  1
  O2-  O573  1  0.83404068  0.92448997  0.02268978  1
  O2-  O574  1  0.82449876  0.90947947  0.36235930  1
  O2-  O575  1  0.85448776  0.93240070  0.68585597  1
