# generated using pymatgen
data_H2O
_symmetry_space_group_name_H-M   'P 1'
_cell_length_a   17.98275214
_cell_length_b   17.97771697
_cell_length_c   22.00119838
_cell_angle_alpha   90.01984979
_cell_angle_beta   89.99141887
_cell_angle_gamma   119.98762919
_symmetry_Int_Tables_number   1
_chemical_formula_structural   H2O
_chemical_formula_sum   'H384 O192'
_cell_volume   6160.58230082
_cell_formula_units_Z   192
loop_
 _symmetry_equiv_pos_site_id
 _symmetry_equiv_pos_as_xyz
  1  'x, y, z'
loop_
 _atom_type_symbol
 _atom_type_oxidation_number
  H+  1.0
  O2-  -2.0
loop_
 _atom_site_type_symbol
 _atom_site_label
 _atom_site_symmetry_multiplicity
 _atom_site_fract_x
 _atom_site_fract_y
 _atom_site_fract_z
 _atom_site_occupancy
  H+  H0  1  0.39412881  0.11003620  -0.00827174  1
  H+  H1  1  0.91191385  0.60955131  0.89746048  1
  H+  H2  1  0.27396581  0.89069410  0.15824266  1
  H+  H3  1  0.60530978  0.22660342  0.72831847  1
  H+  H4  1  0.88047516  0.28231445  0.83923779  1
  H+  H5  1  0.11508084  0.13708665  1.00790082  1
  H+  H6  1  0.35843083  0.38599757  0.49495527  1
  H+  H7  1  0.87343043  0.08638368  0.17276076  1
  H+  H8  1  0.47175663  0.85689875  0.83022853  1
  H+  H9  1  0.53402825  0.88366480  0.14899167  1
  H+  H10  1  0.09714970  0.64743444  0.00233106  1
  H+  H11  1  0.73863756  0.35017411  0.52208907  1
  H+  H12  1  0.37946777  0.23802958  0.15607373  1
  H+  H13  1  0.23784164  0.13124316  0.17480034  1
  H+  H14  1  0.77455286  0.86817513  0.00663950  1
  H+  H15  1  0.38428671  0.85823867  0.83250500  1
  H+  H16  1  0.60929925  0.63804104  0.82108540  1
  H+  H17  1  0.62822038  0.36033406  0.98474126  1
  H+  H18  1  0.85871739  0.62581815  0.49048941  1
  H+  H19  1  0.87941953  0.85562717  0.50396636  1
  H+  H20  1  0.31300985  0.70676225  0.49356059  1
  H+  H21  1  0.39675137  0.61622188  0.17482835  1
  H+  H22  1  0.39544937  0.39983388  0.83827720  1
  H+  H23  1  0.35826824  0.87955731  0.67471720  1
  H+  H24  1  0.77291816  0.64404978  0.67471950  1
  H+  H25  1  0.46680951  0.10456281  0.50860037  1
  H+  H26  1  0.61706219  0.62885837  0.15977865  1
  H+  H27  1  0.02070059  0.13309723  0.49372229  1
  H+  H28  1  1.03321706  0.64918101  0.16355856  1
  H+  H29  1  -0.08264902  0.35083950  0.89589109  1
  H+  H30  1  0.63689649  0.35350556  0.67560346  1
  H+  H31  1  0.88416904  0.62928194  0.83451770  1
  H+  H32  1  0.87249653  0.49930109  0.49601518  1
  H+  H33  1  0.66615518  0.36812413  0.54955589  1
  H+  H34  1  0.15597735  0.59950770  0.92768589  1
  H+  H35  1  0.39483751  0.02747696  0.83617422  1
  H+  H36  1  0.59422371  0.37612219  0.48310375  1
  H+  H37  1  0.94137837  0.29325622  0.12393841  1
  H+  H38  1  0.52770637  0.62918404  0.34092862  1
  H+  H39  1  0.16362610  0.42492968  1.01213201  1
  H+  H40  1  0.12534941  0.09864578  0.33124883  1
  H+  H41  1  0.13306719  1.02315002  0.51371292  1
  H+  H42  1  0.77416316  0.88937573  0.82493100  1
  H+  H43  1  0.64227081  0.86038571  0.98881405  1
  H+  H44  1  0.87770643  0.76434647  0.50678891  1
  H+  H45  1  0.53139081  0.39025038  0.15219344  1
  H+  H46  1  0.39176526  0.61276837  0.32718556  1
  H+  H47  1  0.77935877  0.65319326  0.82308673  1
  H+  H48  1  0.36071743  0.72853948  0.81859109  1
  H+  H49  1  0.85954797  0.22535512  0.34164722  1
  H+  H50  1  0.98790840  0.86819142  0.98465068  1
  H+  H51  1  0.35811194  0.89258857  0.34133591  1
  H+  H52  1  0.34050207  0.16523744  0.76410906  1
  H+  H53  1  0.38081290  0.27408290  0.51076418  1
  H+  H54  1  0.23205589  0.87049781  0.99165817  1
  H+  H55  1  0.14493172  0.77760382  0.17002351  1
  H+  H56  1  0.51991720  0.63925957  0.82191887  1
  H+  H57  1  0.40236948  0.37391859  0.17435838  1
  H+  H58  1  0.10637268  0.21569514  0.34032904  1
  H+  H59  1  0.62499247  0.11767937  0.82972304  1
  H+  H60  1  0.63448373  0.27802736  0.83240697  1
  H+  H61  1  0.13647322  0.78327943  0.83692390  1
  H+  H62  1  0.84132737  0.42305150  0.40469945  1
  H+  H63  1  0.73839906  0.37791661  0.15399263  1
  H+  H64  1  0.37434330  0.13707515  0.82430670  1
  H+  H65  1  0.48326635  0.61112577  0.17327327  1
  H+  H66  1  0.88363907  0.01916088  0.32831318  1
  H+  H67  1  0.16029761  0.54165806  0.17731717  1
  H+  H68  1  0.40062517  0.89732775  0.17228708  1
  H+  H69  1  0.14964565  0.36902245  0.18031292  1
  H+  H70  1  0.27600230  0.63747392  0.34110988  1
  H+  H71  1  0.99794278  0.47670048  0.22463429  1
  H+  H72  1  0.24366467  0.38162087  0.99102172  1
  H+  H73  1  0.77200582  0.63407354  0.17034001  1
  H+  H74  1  0.94826238  0.27961390  0.15496825  1
  H+  H75  1  0.60187523  0.24840953  0.19516009  1
  H+  H76  1  0.85989062  0.22364434  0.67379659  1
  H+  H77  1  0.11703314  -0.02308308  0.64847959  1
  H+  H78  1  0.76029466  0.36758059  0.17909588  1
  H+  H79  1  0.13961334  0.11274183  0.66163717  1
  H+  H80  1  0.89156123  0.61756527  0.32793323  1
  H+  H81  1  0.61343537  0.48325474  0.99063910  1
  H+  H82  1  0.67749994  0.82202854  0.26541292  1
  H+  H83  1  0.89231711  0.51238683  0.65606999  1
  H+  H84  1  0.86525835  0.73542850  0.17074776  1
  H+  H85  1  0.13879411  0.77338660  0.32468344  1
  H+  H86  1  0.43422145  0.33848619  0.22673526  1
  H+  H87  1  0.71766504  0.09427563  -0.01869774  1
  H+  H88  1  0.91738563  0.56325742  0.59283105  1
  H+  H89  1  0.38223790  0.02558170  0.17261204  1
  H+  H90  1  0.89798696  0.79082705  0.83086868  1
  H+  H91  1  0.14773961  0.03261539  0.98546736  1
  H+  H92  1  0.72517593  0.36949671  0.83740157  1
  H+  H93  1  0.97073110  0.36291380  0.66696643  1
  H+  H94  1  0.86206742  0.48960758  0.83189846  1
  H+  H95  1  0.10300627  0.87656674  0.50864624  1
  H+  H96  1  0.11802275  0.14614328  0.16607113  1
  H+  H97  1  0.38285222  0.61854526  0.83300769  1
  H+  H98  1  0.12973491  0.28881855  0.83626689  1
  H+  H99  1  0.90839618  0.55058454  0.16386988  1
  H+  H100  1  0.43864741  0.31530743  0.37380229  1
  H+  H101  1  0.86469361  0.96286263  0.16069670  1
  H+  H102  1  0.61332504  0.22371426  0.00395379  1
  H+  H103  1  0.62271004  0.10059329  0.17555489  1
  H+  H104  1  0.38292762  1.02977233  0.32929926  1
  H+  H105  1  0.15010703  0.62616773  0.17604198  1
  H+  H106  1  0.35421096  0.47342004  0.33982741  1
  H+  H107  1  0.88923673  0.11066908  0.50643056  1
  H+  H108  1  0.88376948  0.36609473  0.33205098  1
  H+  H109  1  0.10168577  0.62527091  0.49156877  1
  H+  H110  1  0.87415626  0.35229885  0.50807626  1
  H+  H111  1  0.10548334  0.72202877  0.67254086  1
  H+  H112  1  0.63552262  0.77616812  0.83472489  1
  H+  H113  1  0.64978950  0.52238702  0.17518697  1
  H+  H114  1  0.77824158  0.88545325  0.49324553  1
  H+  H115  1  0.52654495  0.13395890  1.00469065  1
  H+  H116  1  0.11195242  0.50130774  0.50974954  1
  H+  H117  1  0.01838843  0.62828055  0.66880111  1
  H+  H118  1  0.37980716  0.47805278  -0.00292555  1
  H+  H119  1  0.64148337  0.52996958  0.82964073  1
  H+  H120  1  0.21089524  0.35924187  0.33417951  1
  H+  H121  1  0.62718742  1.03067565  0.33063825  1
  H+  H122  1  0.40847753  0.77260316  0.48678611  1
  H+  H123  1  0.88181626  0.02207150  0.66086273  1
  H+  H124  1  0.02515488  0.63714411  0.33758571  1
  H+  H125  1  0.13227102  0.11207565  0.50592605  1
  H+  H126  1  0.47630143  0.85740384  0.66416588  1
  H+  H127  1  0.13709049  0.52246509  0.33026947  1
  H+  H128  1  0.53096885  0.40145944  0.82325469  1
  H+  H129  1  -0.00397725  0.15575560  0.81005919  1
  H+  H130  1  0.62019110  -0.03166939  0.15640842  1
  H+  H131  1  0.64979774  0.62012099  0.98904448  1
  H+  H132  1  0.38042688  0.77631109  0.32346484  1
  H+  H133  1  0.51839876  0.12996743  0.15784956  1
  H+  H134  1  0.27706877  0.89274335  0.82665996  1
  H+  H135  1  0.54224638  0.89137747  0.49896311  1
  H+  H136  1  0.65930442  0.32959396  0.92707143  1
  H+  H137  1  0.58760625  0.65943950  0.39983450  1
  H+  H138  1  0.63792726  1.01624367  0.65423312  1
  H+  H139  1  1.00629497  0.37546436  0.49766315  1
  H+  H140  1  0.25923315  0.55897019  0.03243277  1
  H+  H141  1  0.63775678  0.10579679  0.50652046  1
  H+  H142  1  0.07827937  0.65950225  0.43109895  1
  H+  H143  1  0.03158485  0.24097955  0.77113156  1
  H+  H144  1  0.37597912  0.73339068  0.15291043  1
  H+  H145  1  0.91528900  0.77096216  -0.02435566  1
  H+  H146  1  0.88150596  1.03295479  0.82688096  1
  H+  H147  1  0.96152040  0.58890486  0.49523974  1
  H+  H148  1  0.01884216  0.64834448  0.82791917  1
  H+  H149  1  0.86262747  0.86481962  0.00656693  1
  H+  H150  1  0.45427244  0.30683348  0.34424634  1
  H+  H151  1  0.64067650  0.77029371  0.98968281  1
  H+  H152  1  0.02426467  0.13673368  0.16487825  1
  H+  H153  1  0.57926060  0.16465429  0.44274767  1
  H+  H154  1  0.60979698  0.21694437  0.50579962  1
  H+  H155  1  0.97057252  0.09766574  1.00165598  1
  H+  H156  1  0.12298337  0.00030853  0.32923619  1
  H+  H157  1  0.08247163  0.91590505  0.59164648  1
  H+  H158  1  0.08561390  0.67336921  0.10165368  1
  H+  H159  1  0.12952551  0.26774602  0.49781838  1
  H+  H160  1  0.26796912  0.63713329  0.66901767  1
  H+  H161  1  0.13748083  0.37938506  0.84127463  1
  H+  H162  1  0.36024565  0.14188185  0.50397270  1
  H+  H163  1  0.12955298  0.35281123  0.64785414  1
  H+  H164  1  0.01660570  0.39317325  0.82928739  1
  H+  H165  1  0.94267022  0.38056948  0.24430218  1
  H+  H166  1  0.75942332  0.39049362  0.99941729  1
  H+  H167  1  0.76094647  0.14666775  0.82523302  1
  H+  H168  1  0.10259044  0.38185130  0.34356394  1
  H+  H169  1  0.77623513  0.13248146  0.49386546  1
  H+  H170  1  0.86096402  0.89192185  0.67205736  1
  H+  H171  1  0.86234458  0.13570766  0.67428999  1
  H+  H172  1  0.61094588  0.23209016  0.35610278  1
  H+  H173  1  0.38131845  0.52920298  0.83058129  1
  H+  H174  1  0.09799845  0.37743055  0.49320146  1
  H+  H175  1  0.13319174  0.49788106  1.01337098  1
  H+  H176  1  0.12994174  0.53374562  0.83981474  1
  H+  H177  1  0.26908720  0.64065054  0.82108557  1
  H+  H178  1  0.91382550  0.43828898  0.14262762  1
  H+  H179  1  0.13452831  0.85781735  0.64908346  1
  H+  H180  1  0.88623901  0.00554893  1.00273018  1
  H+  H181  1  0.86551330  0.40126391  0.83071964  1
  H+  H182  1  1.10868774  0.21690076  0.66034353  1
  H+  H183  1  0.77255017  0.37953783  0.68636881  1
  H+  H184  1  0.72867658  0.85070381  0.16872899  1
  H+  H185  1  0.65040249  0.76500738  0.32526860  1
  H+  H186  1  0.61705348  0.71748475  0.15727759  1
  H+  H187  1  0.47555946  0.85454452  1.00904022  1
  H+  H188  1  0.05825079  0.42020320  0.16441605  1
  H+  H189  1  0.13904357  0.78566669  -0.00688514  1
  H+  H190  1  0.27973716  0.38285587  0.17903112  1
  H+  H191  1  0.47294296  0.94085504  0.54004391  1
  H+  H192  1  0.60661054  0.33800492  0.20791054  1
  H+  H193  1  0.57860134  0.66429540  0.72866278  1
  H+  H194  1  0.97439462  0.86953064  0.65111230  1
  H+  H195  1  0.12778334  0.76133985  0.50261211  1
  H+  H196  1  0.37549337  1.01291302  0.65593995  1
  H+  H197  1  0.36914927  0.38464374  1.00102735  1
  H+  H198  1  0.60865190  0.97958875  0.81939405  1
  H+  H199  1  0.66632904  0.57969043  0.60001509  1
  H+  H200  1  0.36429454  0.88455047  1.01516158  1
  H+  H201  1  0.13169642  0.62415001  0.83542881  1
  H+  H202  1  0.47802252  0.36137122  0.65938060  1
  H+  H203  1  0.61070485  0.96935171  -0.00639451  1
  H+  H204  1  0.26663247  0.39281238  0.82005721  1
  H+  H205  1  0.38935168  0.60459564  0.99062850  1
  H+  H206  1  0.27539371  0.13574542  0.67332878  1
  H+  H207  1  0.88263589  0.10868849  0.32868494  1
  H+  H208  1  0.88028208  0.85272474  0.17315649  1
  H+  H209  1  0.22876970  0.10520958  0.32861492  1
  H+  H210  1  0.12753630  0.61776082  0.66513997  1
  H+  H211  1  0.63917766  0.60903250  0.50556389  1
  H+  H212  1  0.65603584  0.52668937  0.33256861  1
  H+  H213  1  0.36581354  0.22322912  0.67174816  1
  H+  H214  1  0.91190970  0.33048051  0.56996630  1
  H+  H215  1  0.39548076  0.62486314  0.50482503  1
  H+  H216  1  0.82699246  0.49016484  1.00344752  1
  H+  H217  1  0.35741208  0.47474275  0.49256191  1
  H+  H218  1  0.46905004  0.36522335  0.50347491  1
  H+  H219  1  0.74632863  0.10082750  0.16222977  1
  H+  H220  1  0.11421937  0.63585567  0.33989808  1
  H+  H221  1  0.32912559  0.34084580  0.31272736  1
  H+  H222  1  0.85829019  0.73626586  0.67449099  1
  H+  H223  1  0.65097913  0.38004337  0.34867335  1
  H+  H224  1  0.38506751  0.76776162  0.65846394  1
  H+  H225  1  0.56023359  0.41209633  0.34170160  1
  H+  H226  1  0.77950869  0.88119259  0.33607878  1
  H+  H227  1  0.35927665  0.37924841  0.66744571  1
  H+  H228  1  0.32457941  0.41379963  0.39988151  1
  H+  H229  1  0.60986631  0.87940417  0.67056518  1
  H+  H230  1  0.86792542  0.97468705  0.49315917  1
  H+  H231  1  0.59511260  0.91705567  0.05609966  1
  H+  H232  1  0.10821761  0.87964341  0.14959927  1
  H+  H233  1  0.32784792  0.66357859  0.72820176  1
  H+  H234  1  0.38739825  0.77618875  -0.01292863  1
  H+  H235  1  0.22597090  0.86487945  0.32606667  1
  H+  H236  1  0.01653804  0.87191990  0.15006025  1
  H+  H237  1  0.37188395  0.14550811  0.16042414  1
  H+  H238  1  0.64053890  0.85191910  0.16739806  1
  H+  H239  1  0.83641942  0.18276375  0.14851802  1
  H+  H240  1  0.51972642  0.63338302  0.66897903  1
  H+  H241  1  0.72521577  0.86124180  0.66034589  1
  H+  H242  1  0.36829327  0.47378487  0.17858633  1
  H+  H243  1  0.64686467  0.85952654  0.50506328  1
  H+  H244  1  0.19581552  0.10182582  0.89929925  1
  H+  H245  1  0.21831710  0.35910367  0.49867866  1
  H+  H246  1  0.35046182  0.97916200  0.49464358  1
  H+  H247  1  0.01591528  0.66252250  0.00932026  1
  H+  H248  1  0.26751684  0.87651569  0.67278181  1
  H+  H249  1  0.83494307  0.16829275  0.40207662  1
  H+  H250  1  0.26807328  0.37532096  0.66251840  1
  H+  H251  1  0.21299555  0.62801812  0.98729112  1
  H+  H252  1  0.86371849  0.22298557  0.49871956  1
  H+  H253  1  0.63664560  0.76991697  0.65871629  1
  H+  H254  1  0.78140843  0.64027305  0.33866249  1
  H+  H255  1  0.52736519  0.63562049  0.49465388  1
  H+  H256  1  0.37139734  0.22220918  1.00196296  1
  H+  H257  1  0.12010534  0.89882631  -0.00265876  1
  H+  H258  1  0.61590090  0.47141534  0.66855888  1
  H+  H259  1  0.73162711  0.60418870  0.98200476  1
  H+  H260  1  0.16004603  0.04085926  0.83765007  1
  H+  H261  1  0.53250226  0.63595390  0.00167032  1
  H+  H262  1  0.32386167  0.20838498  0.31711698  1
  H+  H263  1  0.12881308  0.90884197  0.82808225  1
  H+  H264  1  0.37965216  0.51679484  0.65481479  1
  H+  H265  1  0.84728552  0.10402629  -0.00007484  1
  H+  H266  1  0.77229356  0.63008174  0.49260909  1
  H+  H267  1  0.47040407  0.12026133  0.33122820  1
  H+  H268  1  0.88225997  0.36311165  0.66943611  1
  H+  H269  1  0.51390662  0.89839255  0.34439964  1
  H+  H270  1  0.01712474  0.12708744  0.33850817  1
  H+  H271  1  0.83608818  0.68011467  0.76236500  1
  H+  H272  1  0.87013175  0.64123197  0.16876283  1
  H+  H273  1  0.63231130  0.60682152  0.65849766  1
  H+  H274  1  0.26760491  0.13199290  0.83308975  1
  H+  H275  1  -0.07176040  0.34250269  -0.00345826  1
  H+  H276  1  0.61861919  0.72278770  0.49462217  1
  H+  H277  1  0.37847090  0.60581441  0.65742837  1
  H+  H278  1  0.72627823  0.10530681  0.65573284  1
  H+  H279  1  0.89001477  0.52749769  0.32881346  1
  H+  H280  1  1.01350960  0.87876630  0.51087927  1
  H+  H281  1  0.36946923  -0.02375124  1.00380909  1
  H+  H282  1  0.63326741  0.10350560  0.98710432  1
  H+  H283  1  0.88985923  0.77398293  0.32748250  1
  H+  H284  1  0.47806458  0.35941183  -0.01397780  1
  H+  H285  1  0.12891348  0.49511158  0.67576994  1
  H+  H286  1  0.20466080  0.58111787  0.51388528  1
  H+  H287  1  0.15643394  0.32349607  0.58688037  1
  H+  H288  1  0.64780311  0.61285345  0.32608994  1
  H+  H289  1  0.62987874  0.97777642  0.49295893  1
  H+  H290  1  0.61141841  0.38200814  0.12586404  1
  H+  H291  1  0.49045404  0.94508154  0.20486782  1
  H+  H292  1  0.17283911  0.09190504  0.60020487  1
  H+  H293  1  0.15469256  0.32668002  0.27381515  1
  H+  H294  1  0.42206102  0.58190806  0.26910225  1
  H+  H295  1  0.97406637  0.10832398  0.65877686  1
  H+  H296  1  0.86587800  0.45186087  0.08429712  1
  H+  H297  1  0.32634560  0.92202960  0.40023380  1
  H+  H298  1  0.89046047  0.40320222  -0.01668325  1
  H+  H299  1  0.34698905  0.13093121  0.32760110  1
  H+  H300  1  0.08367393  0.16155014  0.06819725  1
  H+  H301  1  0.82399665  0.17402564  0.76816011  1
  H+  H302  1  0.90392640  0.83301831  0.60048398  1
  H+  H303  1  0.66808482  0.83322955  0.89518937  1
  H+  H304  1  0.77764924  0.39377222  0.34853659  1
  H+  H305  1  0.58199528  0.91329133  0.72956348  1
  H+  H306  1  0.83545208  0.90037786  0.10108223  1
  H+  H307  1  0.91639191  0.07987924  0.56658147  1
  H+  H308  1  0.48379668  0.11982644  0.83708964  1
  H+  H309  1  0.17076059  0.84197863  0.89658800  1
  H+  H310  1  0.29322716  0.29163998  0.25107087  1
  H+  H311  1  0.92818510  0.84656274  0.89084026  1
  H+  H312  1  0.17731887  0.35851744  0.93587795  1
  H+  H313  1  0.83974230  0.42386070  0.73973945  1
  H+  H314  1  0.02333825  0.88376130  0.33245618  1
  H+  H315  1  0.35201222  0.89182031  0.49619921  1
  H+  H316  1  0.63721910  0.51922155  0.50476049  1
  H+  H317  1  0.12593423  0.44726344  0.10725260  1
  H+  H318  1  0.08237707  0.42817313  0.77256144  1
  H+  H319  1  0.13551706  0.27268240  0.17925806  1
  H+  H320  1  0.80266675  0.12099411  0.05561470  1
  H+  H321  1  0.04424377  0.91505578  0.82266287  1
  H+  H322  1  0.17098976  0.83712457  0.22912270  1
  H+  H323  1  0.65276019  0.07539922  0.23806605  1
  H+  H324  1  0.40394905  0.07223368  0.56713512  1
  H+  H325  1  0.17359305  0.09028992  0.23133714  1
  H+  H326  1  0.78287734  0.33157893  0.45322837  1
  H+  H327  1  0.41360229  0.84580185  0.26878501  1
  H+  H328  1  0.58260860  0.42912626  0.05193713  1
  H+  H329  1  0.21521900  0.85438939  0.50274847  1
  H+  H330  1  0.07318845  0.41421826  0.40209242  1
  H+  H331  1  0.67325350  0.82909664  0.56569747  1
  H+  H332  1  0.41513634  0.08508612  0.23294832  1
  H+  H333  1  0.17684878  0.45369489  0.70794781  1
  H+  H334  1  0.28567204  0.65021484  0.16601110  1
  H+  H335  1  0.07495127  0.67150136  0.76689311  1
  H+  H336  1  0.58371634  0.16546463  0.10110392  1
  H+  H337  1  0.37973498  0.10376044  0.65637326  1
  H+  H338  1  0.41578934  0.33451015  0.92989287  1
  H+  H339  1  0.71963579  0.11652837  0.32846172  1
  H+  H340  1  0.34339130  0.16806116  0.06393692  1
  H+  H341  1  0.42801881  0.85548646  0.57912010  1
  H+  H342  1  0.92029935  0.59189783  0.23311480  1
  H+  H343  1  0.89020491  0.86407607  0.32609617  1
  H+  H344  1  0.60787470  0.14257384  0.34535598  1
  H+  H345  1  0.08242162  0.92041670  0.05606817  1
  H+  H346  1  0.47246513  0.45560367  0.88103316  1
  H+  H347  1  0.42459666  0.59080858  0.92718799  1
  H+  H348  1  0.97068133  0.36232017  0.33231117  1
  H+  H349  1  0.33368473  0.92351516  0.09773763  1
  H+  H350  1  0.27183698  0.14223403  0.50463566  1
  H+  H351  1  0.82945717  0.92005657  0.73191100  1
  H+  H352  1  0.91026506  0.06939912  0.23392754  1
  H+  H353  1  0.86741512  0.89647375  0.82384034  1
  H+  H354  1  0.59295204  0.42987419  0.42460035  1
  H+  H355  1  0.32501072  0.41607254  0.75895856  1
  H+  H356  1  0.23945257  0.11788363  -0.00825256  1
  H+  H357  1  0.91342900  0.82619262  0.23456960  1
  H+  H358  1  0.11420992  0.88532983  0.33120772  1
  H+  H359  1  0.67525117  0.57899483  0.23812922  1
  H+  H360  1  0.83782073  0.91518003  0.39702524  1
  H+  H361  1  0.61519509  0.39041044  0.82237015  1
  H+  H362  1  0.58132813  0.92400482  0.39901273  1
  H+  H363  1  0.65179671  0.08149380  0.88846381  1
  H+  H364  1  0.33366216  0.91868453  0.76641541  1
  H+  H365  1  0.65768605  0.32432350  0.29420772  1
  H+  H366  1  0.17297715  0.58715787  0.27241487  1
  H+  H367  1  0.58368224  0.41534276  0.72900088  1
  H+  H368  1  0.83841169  0.66832862  0.39967567  1
  H+  H369  1  0.66800257  0.58769284  0.88986149  1
  H+  H370  1  0.41381920  0.58495891  0.56382186  1
  H+  H371  1  0.07770970  0.15885713  0.43251067  1
  H+  H372  1  0.61420747  0.89276472  0.82384924  1
  H+  H373  1  0.34509689  0.68046270  0.39480091  1
  H+  H374  1  0.42356521  0.08164981  0.93122034  1
  H+  H375  1  0.07754049  0.17282869  0.72470962  1
  H+  H376  1  0.66567616  0.30345656  0.63069813  1
  H+  H377  1  0.15013425  0.58042888  0.60441336  1
  H+  H378  1  0.16540639  0.81856218  0.59871300  1
  H+  H379  1  0.41775499  0.33321203  0.60024498  1
  H+  H380  1  0.87241974  0.11753663  0.83290310  1
  H+  H381  1  0.67120468  0.07617523  0.56481849  1
  H+  H382  1  0.58938608  0.66106339  0.06269991  1
  H+  H383  1  0.32622906  0.64461950  0.06484119  1
  O2-  O384  1  0.08458339  0.17428542  0.15176023  1
  O2-  O385  1  0.08125511  0.16454815  0.47780054  1
  O2-  O386  1  0.05213594  0.20534662  0.78971433  1
  O2-  O387  1  0.11883562  0.44137956  0.15320268  1
  O2-  O388  1  0.06756228  0.40887551  0.48087902  1
  O2-  O389  1  0.07945649  0.42654039  0.81750394  1
  O2-  O390  1  0.09230819  0.67275486  0.14682087  1
  O2-  O391  1  0.07243024  0.65601738  0.47658229  1
  O2-  O392  1  0.07913341  0.67612321  0.81230023  1
  O2-  O393  1  0.07277259  0.90048677  0.12962885  1
  O2-  O394  1  0.07751803  0.91424365  0.51426002  1
  O2-  O395  1  0.10658391  0.94664911  0.81374183  1
  O2-  O396  1  0.34412262  0.17708758  0.14306966  1
  O2-  O397  1  0.33353030  0.17686962  0.49332802  1
  O2-  O398  1  0.34203005  0.16648479  0.81003792  1
  O2-  O399  1  0.34284145  0.41091980  0.17271334  1
  O2-  O400  1  0.32633576  0.41429746  0.47811607  1
  O2-  O401  1  0.32726018  0.42317106  0.80407419  1
  O2-  O402  1  0.34363401  0.67145768  0.14664202  1
  O2-  O403  1  0.36602994  0.71263894  0.47703096  1
  O2-  O404  1  0.32819605  0.66585291  0.80390347  1
  O2-  O405  1  0.33532137  0.92463198  0.14363908  1
  O2-  O406  1  0.31953411  0.91731476  0.47846479  1
  O2-  O407  1  0.33779861  0.92159655  0.81181030  1
  O2-  O408  1  0.58077711  0.16112600  0.14666193  1
  O2-  O409  1  0.57856977  0.15840305  0.48810768  1
  O2-  O410  1  0.58359527  0.18052189  0.81228400  1
  O2-  O411  1  0.59149705  0.42258100  0.13336531  1
  O2-  O412  1  0.57758232  0.41848251  0.47279264  1
  O2-  O413  1  0.58881292  0.42390791  0.80500056  1
  O2-  O414  1  0.58561477  0.65625313  0.14234757  1
  O2-  O415  1  0.58735308  0.66205760  0.47938350  1
  O2-  O416  1  0.58009074  0.66956719  0.80594241  1
  O2-  O417  1  0.59487735  0.91074884  0.13663105  1
  O2-  O418  1  0.59881609  0.91548613  0.47929785  1
  O2-  O419  1  0.58124455  0.91824550  0.80557771  1
  O2-  O420  1  0.80398076  0.12054370  0.14325949  1
  O2-  O421  1  0.83778585  0.16401332  0.48045815  1
  O2-  O422  1  0.82322205  0.17921154  0.81333624  1
  O2-  O423  1  0.90393071  0.47950106  0.11982132  1
  O2-  O424  1  0.81622024  0.38004053  0.48043354  1
  O2-  O425  1  0.83302708  0.42958996  0.81591030  1
  O2-  O426  1  0.83432122  0.66932694  0.15518643  1
  O2-  O427  1  0.83302618  0.66130239  0.47733849  1
  O2-  O428  1  0.83993779  0.68273567  0.80906288  1
  O2-  O429  1  0.83374810  0.90131149  0.14697495  1
  O2-  O430  1  0.83807380  0.91495045  0.47638893  1
  O2-  O431  1  0.83336798  0.92260563  0.80779813  1
  O2-  O432  1  0.17757578  0.10676000  0.18845374  1
  O2-  O433  1  0.16491393  0.08576865  0.52358567  1
  O2-  O434  1  0.19864757  0.10298435  0.85280271  1
  O2-  O435  1  0.17019296  0.33160206  0.19837561  1
  O2-  O436  1  0.15716216  0.32894409  0.51278096  1
  O2-  O437  1  0.16851015  0.34792449  0.85194223  1
  O2-  O438  1  0.18431424  0.60170263  0.19423238  1
  O2-  O439  1  0.14584347  0.56352347  0.52521485  1
  O2-  O440  1  0.16361833  0.59562464  0.85146517  1
  O2-  O441  1  0.17383840  0.83891497  0.18373299  1
  O2-  O442  1  0.15639813  0.82035233  0.52042876  1
  O2-  O443  1  0.17152538  0.84394661  0.85117989  1
  O2-  O444  1  0.41657034  0.08633351  0.18753270  1
  O2-  O445  1  0.40509247  0.07406129  0.52026275  1
  O2-  O446  1  0.42278302  0.08709809  0.85330680  1
  O2-  O447  1  0.43996975  0.34619430  0.18240356  1
  O2-  O448  1  0.41124767  0.33790682  0.52269923  1
  O2-  O449  1  0.44302348  0.39895759  0.86207988  1
  O2-  O450  1  0.42460217  0.58496552  0.19177738  1
  O2-  O451  1  0.41688019  0.58674629  0.51810670  1
  O2-  O452  1  0.41431368  0.58866010  0.84731654  1
  O2-  O453  1  0.44539798  0.88727238  0.19340917  1
  O2-  O454  1  0.44044905  0.87843118  0.53499168  1
  O2-  O455  1  0.41087139  0.82292972  0.84339139  1
  O2-  O456  1  0.64588071  0.06446383  0.19273011  1
  O2-  O457  1  0.67081461  0.07692604  0.51804565  1
  O2-  O458  1  0.65450465  0.08491851  0.84304302  1
  O2-  O459  1  0.60127402  0.28710588  0.22738883  1
  O2-  O460  1  0.67922643  0.32201815  0.54492734  1
  O2-  O461  1  0.66360846  0.33903883  0.85018358  1
  O2-  O462  1  0.67703631  0.58160639  0.19159625  1
  O2-  O463  1  0.66999866  0.57933875  0.52088366  1
  O2-  O464  1  0.66646100  0.59038564  0.84465904  1
  O2-  O465  1  0.66749801  0.81891204  0.18290101  1
  O2-  O466  1  0.67541551  0.82742520  0.52008189  1
  O2-  O467  1  0.66689702  0.83662510  0.84978408  1
  O2-  O468  1  0.91144770  0.06533427  0.18856980  1
  O2-  O469  1  0.91919551  0.07961247  0.52097355  1
  O2-  O470  1  0.91244983  0.09493347  0.83760406  1
  O2-  O471  1  0.96930954  0.41885680  0.20775174  1
  O2-  O472  1  0.91213381  0.32714941  0.52490005  1
  O2-  O473  1  0.91552561  0.34478851  0.85041046  1
  O2-  O474  1  0.92532220  0.60489473  0.18845711  1
  O2-  O475  1  0.90103809  0.55954380  0.51003366  1
  O2-  O476  1  0.91291971  0.59857692  0.85370544  1
  O2-  O477  1  0.90936654  0.82014583  0.18875935  1
  O2-  O478  1  0.90640504  0.82423361  0.52320400  1
  O2-  O479  1  0.92825886  0.85164694  0.84565228  1
  O2-  O480  1  0.15589166  0.06813347  0.31567688  1
  O2-  O481  1  0.17401104  0.08718223  0.64568144  1
  O2-  O482  1  0.18222519  0.09360815  0.97141487  1
  O2-  O483  1  0.15020632  0.32462342  0.31959231  1
  O2-  O484  1  0.15777039  0.32142271  0.63290277  1
  O2-  O485  1  0.18262774  0.36432677  0.98043772  1
  O2-  O486  1  0.17020191  0.58438001  0.31790826  1
  O2-  O487  1  0.15897412  0.58705077  0.64912692  1
  O2-  O488  1  0.15312982  0.60312310  0.97318956  1
  O2-  O489  1  0.16694047  0.83303296  0.30807807  1
  O2-  O490  1  0.16409915  0.82323633  0.64399434  1
  O2-  O491  1  0.17229868  0.84418536  0.97502883  1
  O2-  O492  1  0.41173891  0.08969252  0.31267255  1
  O2-  O493  1  0.40389335  0.07064813  0.63676495  1
  O2-  O494  1  0.42438322  0.07944796  0.97683830  1
  O2-  O495  1  0.33122121  0.29775670  0.28466742  1
  O2-  O496  1  0.41655134  0.33135170  0.64587995  1
  O2-  O497  1  0.41643499  0.32301331  0.97389804  1
  O2-  O498  1  0.41887892  0.57863224  0.31468813  1
  O2-  O499  1  0.41025915  0.57782565  0.64072281  1
  O2-  O500  1  0.43079074  0.58926007  0.97215184  1
  O2-  O501  1  0.40638000  0.83860471  0.31357025  1
  O2-  O502  1  0.41589868  0.83009939  0.64704186  1
  O2-  O503  1  0.41199316  0.82389382  1.01567476  1
  O2-  O504  1  0.65974660  0.09128223  0.31313334  1
  O2-  O505  1  0.66924446  0.07424139  0.63559487  1
  O2-  O506  1  0.65579076  0.06976092  0.96633725  1
  O2-  O507  1  0.67439853  0.33919215  0.33757485  1
  O2-  O508  1  0.66567650  0.31783724  0.67409214  1
  O2-  O509  1  0.65844216  0.32881551  0.97286023  1
  O2-  O510  1  0.68174639  0.58653354  0.31062276  1
  O2-  O511  1  0.66405252  0.57723616  0.64540245  1
  O2-  O512  1  0.67222883  0.58508958  0.96870928  1
  O2-  O513  1  0.68513482  0.82467718  0.31003876  1
  O2-  O514  1  0.66546776  0.83023544  0.64305234  1
  O2-  O515  1  0.67307234  0.83027532  0.97386775  1
  O2-  O516  1  0.91399298  0.08001004  0.31264840  1
  O2-  O517  1  0.91331759  0.08251364  0.64447057  1
  O2-  O518  1  0.90911239  0.06495377  0.98841277  1
  O2-  O519  1  0.91178235  0.33483037  0.31400297  1
  O2-  O520  1  0.91218619  0.33257384  0.65139381  1
  O2-  O521  1  0.93150179  0.38525582  0.96799596  1
  O2-  O522  1  0.92095886  0.58685099  0.31103307  1
  O2-  O523  1  0.93031027  0.56878964  0.63677981  1
  O2-  O524  1  0.83410247  0.59566959  0.99542644  1
  O2-  O525  1  0.91944124  0.83305579  0.30917168  1
  O2-  O526  1  0.91069789  0.84103463  0.64560840  1
  O2-  O527  1  0.92709723  0.83032002  0.96974210  1
  O2-  O528  1  0.07470471  0.15427293  0.02381566  1
  O2-  O529  1  0.07803152  0.15430148  0.35376273  1
  O2-  O530  1  0.08127626  0.15968828  0.68078538  1
  O2-  O531  1  0.15813761  0.47056945  0.03857182  1
  O2-  O532  1  0.07585148  0.41681341  0.35662405  1
  O2-  O533  1  0.11925949  0.43860668  0.69444317  1
  O2-  O534  1  0.07474745  0.68166272  0.02374383  1
  O2-  O535  1  0.08524729  0.66787524  0.35410402  1
  O2-  O536  1  0.07716996  0.66217780  0.68926198  1
  O2-  O537  1  0.08744419  0.92760323  0.01040821  1
  O2-  O538  1  0.08461815  0.91641377  0.34634493  1
  O2-  O539  1  0.08323425  0.91456420  0.63736623  1
  O2-  O540  1  0.34276820  0.16238511  0.01870573  1
  O2-  O541  1  0.30698404  0.15287002  0.33842213  1
  O2-  O542  1  0.33600914  0.16386085  0.68874312  1
  O2-  O543  1  0.34333621  0.41959097  0.01357233  1
  O2-  O544  1  0.31751613  0.41305771  0.35466954  1
  O2-  O545  1  0.32676204  0.40908823  0.67990836  1
  O2-  O546  1  0.30868257  0.61818270  0.02401773  1
  O2-  O547  1  0.33903883  0.67153765  0.35041213  1
  O2-  O548  1  0.32900695  0.66247948  0.68217932  1
  O2-  O549  1  0.33380277  0.91780017  0.02217221  1
  O2-  O550  1  0.32844588  0.92444451  0.35475359  1
  O2-  O551  1  0.32765758  0.90969493  0.68859484  1
  O2-  O552  1  0.58642791  0.16484056  0.02169613  1
  O2-  O553  1  0.57573867  0.16881193  0.36441450  1
  O2-  O554  1  0.56188891  0.17164756  0.74704658  1
  O2-  O555  1  0.58143482  0.42293273  0.00714972  1
  O2-  O556  1  0.61569157  0.44055370  0.36218580  1
  O2-  O557  1  0.58448160  0.41054695  0.68352642  1
  O2-  O558  1  0.59302294  0.66464800  0.01730545  1
  O2-  O559  1  0.58870091  0.65800880  0.35448972  1
  O2-  O560  1  0.58040867  0.66339548  0.68302366  1
  O2-  O561  1  0.58633554  0.90986983  0.01138775  1
  O2-  O562  1  0.57486750  0.93501620  0.35583092  1
  O2-  O563  1  0.57786341  0.90883030  0.68387788  1
  O2-  O564  1  0.80928467  0.12902805  0.01137658  1
  O2-  O565  1  0.83037662  0.16502090  0.35658976  1
  O2-  O566  1  0.82992448  0.16376027  0.68953436  1
  O2-  O567  1  0.81965964  0.43281744  0.01251918  1
  O2-  O568  1  0.84119834  0.42636950  0.35925705  1
  O2-  O569  1  0.83585833  0.41332446  0.69471365  1
  O2-  O570  1  0.90960736  0.65955160  -0.02189295  1
  O2-  O571  1  0.84244916  0.67120073  0.35409871  1
  O2-  O572  1  0.83121535  0.67766328  0.69225814  1
  O2-  O573  1  0.83194673  0.89163989  0.02638911  1
  O2-  O574  1  0.84113652  0.91694541  0.35167821  1
  O2-  O575  1  0.82802097  0.92046030  0.68607578  1
