# generated using pymatgen
data_H2O
_symmetry_space_group_name_H-M   'P 1'
_cell_length_a   17.99336819
_cell_length_b   17.99292698
_cell_length_c   22.01320050
_cell_angle_alpha   90.00412010
_cell_angle_beta   89.97426350
_cell_angle_gamma   120.01691052
_symmetry_Int_Tables_number   1
_chemical_formula_structural   H2O
_chemical_formula_sum   'H384 O192'
_cell_volume   6170.97837696
_cell_formula_units_Z   192
loop_
 _symmetry_equiv_pos_site_id
 _symmetry_equiv_pos_as_xyz
  1  'x, y, z'
loop_
 _atom_type_symbol
 _atom_type_oxidation_number
  H+  1.0
  O2-  -2.0
loop_
 _atom_site_type_symbol
 _atom_site_label
 _atom_site_symmetry_multiplicity
 _atom_site_fract_x
 _atom_site_fract_y
 _atom_site_fract_z
 _atom_site_occupancy
  H+  H0  1  0.66108936  0.33722206  0.75504543  1
  H+  H1  1  0.01777791  0.14432206  0.66686916  1
  H+  H2  1  0.86435250  0.03971017  0.15305218  1
  H+  H3  1  0.10998029  0.38033922  0.00813200  1
  H+  H4  1  0.59305454  0.67169373  0.61354631  1
  H+  H5  1  0.36166666  0.47582799  0.83131275  1
  H+  H6  1  0.47491948  0.35843626  0.67304563  1
  H+  H7  1  0.97857453  0.12814961  0.50851654  1
  H+  H8  1  0.27505931  0.88292563  0.67649488  1
  H+  H9  1  0.38356306  0.11060683  0.16877882  1
  H+  H10  1  0.62325430  0.48477537  0.48869842  1
  H+  H11  1  0.47227088  0.10830131  0.50313113  1
  H+  H12  1  0.30098124  0.66609853  0.16435617  1
  H+  H13  1  0.62732830  0.49533980  0.33969520  1
  H+  H14  1  0.61014679  0.39297772  0.82040168  1
  H+  H15  1  0.35895627  0.38501427  0.83088485  1
  H+  H16  1  0.88637328  0.86556601  0.99181852  1
  H+  H17  1  0.39502246  0.29456262  0.33434849  1
  H+  H18  1  0.36801349  0.90285433  0.50423449  1
  H+  H19  1  0.97764894  0.36208011  0.32762685  1
  H+  H20  1  0.38700302  0.76770202  -0.00852694  1
  H+  H21  1  0.72857726  0.11009883  0.84243347  1
  H+  H22  1  0.46568811  0.09984570  0.00036789  1
  H+  H23  1  0.42065846  0.79534435  0.16540154  1
  H+  H24  1  0.84954468  0.90372956  0.15926008  1
  H+  H25  1  0.47782461  0.11815465  0.16903654  1
  H+  H26  1  0.62515427  0.02957479  0.32272688  1
  H+  H27  1  0.48644219  0.95720679  0.55389918  1
  H+  H28  1  0.21943952  0.36443491  0.84466030  1
  H+  H29  1  0.87039130  0.63241311  0.48788888  1
  H+  H30  1  0.36094287  0.22417039  0.00945951  1
  H+  H31  1  0.41815522  0.58337489  0.93200274  1
  H+  H32  1  0.07788813  0.91355430  0.33385563  1
  H+  H33  1  0.93225187  0.83503568  0.58908540  1
  H+  H34  1  0.13217988  -0.02218402  0.48266670  1
  H+  H35  1  0.82489492  0.92203971  0.09396213  1
  H+  H36  1  0.27146581  0.88630981  0.50037897  1
  H+  H37  1  0.56492241  0.89443254  0.06917656  1
  H+  H38  1  0.87984307  0.61616905  0.15041917  1
  H+  H39  1  0.69872547  0.07840179  0.17242515  1
  H+  H40  1  0.38762584  0.35935230  0.67556776  1
  H+  H41  1  0.28137558  0.63463351  1.01395749  1
  H+  H42  1  0.13548114  0.36521265  0.33437447  1
  H+  H43  1  0.12688187  0.26500021  0.50147097  1
  H+  H44  1  0.43333207  0.83722811  0.90006240  1
  H+  H45  1  0.62921791  0.61494943  0.84021895  1
  H+  H46  1  0.86607980  0.47551942  0.82313877  1
  H+  H47  1  0.87810222  0.97285477  0.82090498  1
  H+  H48  1  0.89232319  0.85423575  0.83697985  1
  H+  H49  1  0.62126466  0.73880293  0.33842730  1
  H+  H50  1  0.63738268  0.00613464  0.99950008  1
  H+  H51  1  0.11886425  0.24012703  0.35345962  1
  H+  H52  1  0.35227782  0.92168142  0.08909460  1
  H+  H53  1  0.97602830  0.10544608  0.82200550  1
  H+  H54  1  0.61262974  0.38114377  0.17545070  1
  H+  H55  1  0.77719478  0.88871346  1.00203610  1
  H+  H56  1  0.89211625  0.37024146  0.17023713  1
  H+  H57  1  0.77374293  0.38364987  0.67040842  1
  H+  H58  1  0.39957570  0.53362013  0.32817080  1
  H+  H59  1  -0.00310938  0.92022761  0.15480591  1
  H+  H60  1  0.27962410  0.38743026  0.67531177  1
  H+  H61  1  0.96785124  0.35573336  0.84535628  1
  H+  H62  1  0.51893386  0.87220446  1.00558321  1
  H+  H63  1  0.62433687  0.97765494  0.82996427  1
  H+  H64  1  0.23748621  0.37532663  0.16553832  1
  H+  H65  1  0.28439124  0.17414287  0.34735335  1
  H+  H66  1  0.63906365  0.37624665  0.32572665  1
  H+  H67  1  0.85234930  0.62433737  0.67444755  1
  H+  H68  1  0.38282910  0.61662610  0.83703634  1
  H+  H69  1  0.73006380  0.36753407  0.80639659  1
  H+  H70  1  0.33245167  0.42215449  0.73828789  1
  H+  H71  1  0.46913918  0.35805666  0.83949763  1
  H+  H72  1  0.53605906  0.64668283  0.33822411  1
  H+  H73  1  0.64364714  0.86357319  0.50724425  1
  H+  H74  1  0.23407830  0.78484675  0.16072039  1
  H+  H75  1  0.61751656  0.11538226  0.31481420  1
  H+  H76  1  0.57849177  0.17012500  0.38746387  1
  H+  H77  1  0.72936280  0.89558721  0.30570957  1
  H+  H78  1  0.13530317  0.76846624  0.00259595  1
  H+  H79  1  0.27107123  0.63220813  0.49682375  1
  H+  H80  1  0.38486217  0.86057228  0.66965477  1
  H+  H81  1  0.62536434  0.28024565  0.32271744  1
  H+  H82  1  0.91258714  0.50745999  0.34923330  1
  H+  H83  1  0.72919794  0.11092051  0.65995138  1
  H+  H84  1  0.06534720  0.74525861  0.77249585  1
  H+  H85  1  0.63769213  0.87321600  0.66505371  1
  H+  H86  1  0.59604855  0.64047962  0.04772757  1
  H+  H87  1  0.77549976  0.39285336  0.16308514  1
  H+  H88  1  0.85632520  0.47053146  0.00626395  1
  H+  H89  1  0.47754028  0.61486188  0.50872100  1
  H+  H90  1  0.17387241  0.92532210  0.13404429  1
  H+  H91  1  0.51342563  0.13824236  0.33161298  1
  H+  H92  1  0.58936174  0.17376251  -0.03946326  1
  H+  H93  1  0.36284769  0.38381913  1.00838142  1
  H+  H94  1  0.13517712  0.37607068  0.15986122  1
  H+  H95  1  0.37580875  0.74600254  0.82965164  1
  H+  H96  1  -0.05300019  0.82087762  0.33795213  1
  H+  H97  1  0.14652729  0.11289018  0.48992254  1
  H+  H98  1  0.87309975  0.23738721  0.49942611  1
  H+  H99  1  0.63887152  0.27032737  0.65969120  1
  H+  H100  1  0.13257303  0.89951889  0.15158564  1
  H+  H101  1  0.12216604  1.04786538  0.17296102  1
  H+  H102  1  0.72312154  0.60698300  0.16581354  1
  H+  H103  1  0.15692151  0.06048303  0.33536401  1
  H+  H104  1  0.37373411  0.88511143  0.82879285  1
  H+  H105  1  0.14679090  0.26577028  0.65687179  1
  H+  H106  1  0.39277352  0.36805188  0.17911909  1
  H+  H107  1  0.39046757  0.61887843  0.50880013  1
  H+  H108  1  0.11031746  0.46950022  0.01142763  1
  H+  H109  1  0.85690284  0.13382693  0.83206900  1
  H+  H110  1  0.82452383  0.02344250  0.86474888  1
  H+  H111  1  0.87883583  0.35388843  0.99946767  1
  H+  H112  1  0.00125124  0.85840809  0.50303650  1
  H+  H113  1  0.70548280  0.86616311  0.16614949  1
  H+  H114  1  0.13987255  0.60728139  0.99592067  1
  H+  H115  1  0.61712173  0.72940305  0.49815563  1
  H+  H116  1  0.14702347  0.79644313  0.85554544  1
  H+  H117  1  0.53070474  0.13278989  0.66655992  1
  H+  H118  1  0.38293960  0.51934076  0.66429811  1
  H+  H119  1  0.61673287  0.73613756  0.82298844  1
  H+  H120  1  0.42920750  0.84879898  0.26786208  1
  H+  H121  1  0.61562193  -0.01799725  0.67409529  1
  H+  H122  1  0.89517486  0.52047418  0.37610374  1
  H+  H123  1  0.72118595  0.36090690  0.51595538  1
  H+  H124  1  0.01870140  0.62836882  -0.00809392  1
  H+  H125  1  0.86482706  0.98079584  0.00236192  1
  H+  H126  1  0.65743654  0.64069013  0.32855018  1
  H+  H127  1  0.58843349  0.67156576  0.43846039  1
  H+  H128  1  0.62174662  0.13271518  0.82106184  1
  H+  H129  1  0.29087350  0.70863917  0.79191786  1
  H+  H130  1  0.14734940  0.86413884  0.50721720  1
  H+  H131  1  0.87780069  0.60946554  0.98804052  1
  H+  H132  1  0.60260068  0.39366617  0.02646934  1
  H+  H133  1  0.14319324  0.51945431  0.50539582  1
  H+  H134  1  0.14019165  0.76857319  0.65876249  1
  H+  H135  1  0.09025022  0.90265810  0.43059176  1
  H+  H136  1  0.14810934  0.61476125  0.33326755  1
  H+  H137  1  0.87613187  0.85022094  0.34160427  1
  H+  H138  1  0.63866161  0.28145778  0.17722206  1
  H+  H139  1  0.36364754  0.22635928  0.16833308  1
  H+  H140  1  0.15269379  0.60175176  0.85562022  1
  H+  H141  1  0.78905720  0.88716123  0.82035283  1
  H+  H142  1  0.88748675  0.36057638  0.65896817  1
  H+  H143  1  0.78216715  0.15030492  0.49937686  1
  H+  H144  1  0.85504139  0.22327899  0.82890651  1
  H+  H145  1  0.77455478  0.86446661  0.37130059  1
  H+  H146  1  0.12584753  0.90182708  0.85318089  1
  H+  H147  1  0.90970973  0.77194458  0.49845615  1
  H+  H148  1  0.15143089  0.80224111  0.30126803  1
  H+  H149  1  0.90486969  0.07954970  0.92867306  1
  H+  H150  1  0.02447636  0.89058614  0.66407441  1
  H+  H151  1  -0.02083650  0.85260833  0.84827376  1
  H+  H152  1  0.10549468  0.46177347  0.83501467  1
  H+  H153  1  0.13604712  0.51591496  0.66671088  1
  H+  H154  1  0.96636934  0.80380941  0.20215218  1
  H+  H155  1  0.39325190  1.02062124  0.65962286  1
  H+  H156  1  0.86254277  0.48315953  0.15898772  1
  H+  H157  1  0.48504580  0.60320264  0.98459745  1
  H+  H158  1  0.22755485  0.36364035  0.00133363  1
  H+  H159  1  0.86314034  0.38425451  0.82695182  1
  H+  H160  1  0.90578570  0.59447515  0.31222458  1
  H+  H161  1  0.84066989  0.33782275  0.35111261  1
  H+  H162  1  0.87736540  0.11634541  0.31705789  1
  H+  H163  1  -0.03156259  0.60567962  0.64641124  1
  H+  H164  1  0.88796340  0.27183438  0.66112609  1
  H+  H165  1  0.11469360  0.62128166  0.66176718  1
  H+  H166  1  0.22458937  0.11290574  1.00018562  1
  H+  H167  1  0.89835641  0.87010137  0.64260377  1
  H+  H168  1  0.06296263  0.10437592  0.82638910  1
  H+  H169  1  0.80435907  0.71012821  0.32900542  1
  H+  H170  1  0.19102680  0.60201159  0.23319497  1
  H+  H171  1  0.00996402  0.60814809  0.14498137  1
  H+  H172  1  0.88097475  0.51662417  0.65448928  1
  H+  H173  1  0.19211672  0.15519883  0.85033203  1
  H+  H174  1  0.03156945  0.61771962  0.36318230  1
  H+  H175  1  0.65188727  0.02747307  0.50628559  1
  H+  H176  1  0.72664536  0.09667461  1.00015639  1
  H+  H177  1  0.76473228  0.63068464  0.83484559  1
  H+  H178  1  0.88732157  0.12651845  0.50814712  1
  H+  H179  1  0.12589225  0.70811197  0.78169852  1
  H+  H180  1  0.59489555  0.43310316  0.39816191  1
  H+  H181  1  0.26057157  0.38884111  0.48687844  1
  H+  H182  1  0.40458747  0.62615979  0.17361948  1
  H+  H183  1  0.26097859  0.86909563  0.35445916  1
  H+  H184  1  0.11870545  0.01831234  0.64317961  1
  H+  H185  1  0.61506458  0.89660473  0.33770446  1
  H+  H186  1  0.84900728  0.72320519  0.15326318  1
  H+  H187  1  1.02305898  0.39137843  0.67750146  1
  H+  H188  1  0.36748570  0.63309897  0.67022548  1
  H+  H189  1  0.10677889  0.97715564  0.84058027  1
  H+  H190  1  0.18362693  0.82264406  0.12857016  1
  H+  H191  1  0.09612338  0.83529425  0.35364342  1
  H+  H192  1  0.64982730  0.86920941  0.83565735  1
  H+  H193  1  0.60955397  0.13350573  0.16125928  1
  H+  H194  1  0.59444705  0.92022178  0.76870790  1
  H+  H195  1  -0.00972959  0.10040042  0.33298221  1
  H+  H196  1  0.72577917  0.60265607  0.66279189  1
  H+  H197  1  0.27165219  0.14167507  0.16634717  1
  H+  H198  1  0.36858788  0.22204909  0.68636952  1
  H+  H199  1  0.37888750  0.02937409  0.50785955  1
  H+  H200  1  1.10318603  0.37322113  0.83383071  1
  H+  H201  1  0.85829200  0.46313844  0.49149194  1
  H+  H202  1  0.85515661  0.72930302  0.99942400  1
  H+  H203  1  0.37439240  0.13645060  0.67968685  1
  H+  H204  1  0.38714018  0.85714943  -0.00941827  1
  H+  H205  1  0.77847537  0.89292638  0.66746145  1
  H+  H206  1  0.03136803  0.38302670  0.16021025  1
  H+  H207  1  0.47403122  0.62294873  0.83472777  1
  H+  H208  1  0.49559615  0.86771481  0.83984164  1
  H+  H209  1  0.90522590  1.01070395  0.33454493  1
  H+  H210  1  0.17967530  0.57340242  0.94625848  1
  H+  H211  1  0.28390275  0.12196504  0.82826683  1
  H+  H212  1  0.14256397  0.77191658  0.51411195  1
  H+  H213  1  0.63450371  0.78244894  0.66146617  1
  H+  H214  1  0.64061628  0.11300761  0.65700026  1
  H+  H215  1  0.13779911  0.27372234  0.99875077  1
  H+  H216  1  0.46917349  0.36002570  -0.00548941  1
  H+  H217  1  0.84289951  0.14200762  0.09897494  1
  H+  H218  1  0.12035295  0.63303752  0.50998856  1
  H+  H219  1  0.52510982  0.89224488  0.67876599  1
  H+  H220  1  0.10754736  0.88656447  0.01484194  1
  H+  H221  1  0.34325768  0.15572355  0.76793677  1
  H+  H222  1  0.63740375  0.36941501  0.51265857  1
  H+  H223  1  0.84366109  0.91693491  0.42250715  1
  H+  H224  1  0.85779541  0.21398440  0.01091928  1
  H+  H225  1  0.62363040  0.22159240  0.80858439  1
  H+  H226  1  0.86835687  0.99162388  0.50145377  1
  H+  H227  1  0.37311240  0.15350711  0.49795963  1
  H+  H228  1  0.24442455  0.87204121  0.85360488  1
  H+  H229  1  0.88769911  0.02962301  0.65497239  1
  H+  H230  1  0.89185037  0.28126030  0.17106911  1
  H+  H231  1  0.15107268  0.59968912  0.16800059  1
  H+  H232  1  0.35569792  0.72445532  0.49683412  1
  H+  H233  1  -0.03052177  0.61830709  0.83510374  1
  H+  H234  1  0.14352863  0.28253380  0.16581208  1
  H+  H235  1  0.35136560  0.47824363  0.49305029  1
  H+  H236  1  0.75770661  0.34970324  0.34936789  1
  H+  H237  1  0.62747492  0.27595286  1.02641130  1
  H+  H238  1  0.38688553  0.99503901  0.15319326  1
  H+  H239  1  0.09781059  0.16507246  0.53666327  1
  H+  H240  1  0.60424602  0.11110050  0.48505391  1
  H+  H241  1  0.10901099  0.15112908  0.16471054  1
  H+  H242  1  0.53047021  0.63024532  0.13703381  1
  H+  H243  1  0.65907875  0.84016265  0.25708799  1
  H+  H244  1  0.54071840  0.89949275  0.49686387  1
  H+  H245  1  0.40307579  0.62375244  0.32712737  1
  H+  H246  1  0.78887350  0.64302002  0.49098835  1
  H+  H247  1  0.89206877  0.36652748  0.50990553  1
  H+  H248  1  0.61112562  0.85234149  0.17261802  1
  H+  H249  1  0.48585898  0.38383440  0.32765235  1
  H+  H250  1  0.71543270  0.36176291  1.03107471  1
  H+  H251  1  0.37923285  0.10703965  0.00476699  1
  H+  H252  1  0.85724877  0.71696953  0.83174080  1
  H+  H253  1  0.03056773  0.39690030  0.49171601  1
  H+  H254  1  0.39884685  0.29567850  0.50068302  1
  H+  H255  1  0.35717163  -0.02897948  1.01053043  1
  H+  H256  1  0.13416979  0.02399329  0.99702585  1
  H+  H257  1  0.23747742  0.61659608  0.32828059  1
  H+  H258  1  0.78446482  0.89712996  0.50506153  1
  H+  H259  1  0.84767669  0.63337049  0.29848930  1
  H+  H260  1  0.11673005  0.39025873  0.48633425  1
  H+  H261  1  0.87599425  0.60708363  0.83783723  1
  H+  H262  1  0.64669152  0.61829594  0.50663557  1
  H+  H263  1  0.97815827  0.60215197  0.50847027  1
  H+  H264  1  0.63358827  0.84373500  0.99450235  1
  H+  H265  1  0.57679584  0.42509006  0.76824514  1
  H+  H266  1  0.61295089  0.62147576  0.14306340  1
  H+  H267  1  0.57248735  -0.04184059  0.16791836  1
  H+  H268  1  0.24169438  0.60726112  0.85065856  1
  H+  H269  1  0.22562722  0.36846784  0.33416805  1
  H+  H270  1  0.86355950  0.12722459  0.00445577  1
  H+  H271  1  0.86179803  0.13682711  0.67274435  1
  H+  H272  1  0.52515270  0.89310553  0.34358020  1
  H+  H273  1  0.62576064  0.52448395  0.84484556  1
  H+  H274  1  0.61313301  0.38471048  0.67677115  1
  H+  H275  1  0.16419380  0.34623886  0.55268467  1
  H+  H276  1  0.38238974  1.01044092  0.32667960  1
  H+  H277  1  0.09155608  0.66004485  0.45035270  1
  H+  H278  1  0.51418937  0.38190933  0.17841892  1
  H+  H279  1  0.37233376  0.63825467  0.00910259  1
  H+  H280  1  0.67626423  0.83400765  0.89373863  1
  H+  H281  1  0.28233685  0.14860729  0.49624272  1
  H+  H282  1  0.38540126  0.86514568  0.32704414  1
  H+  H283  1  0.37182575  0.48354536  0.16264707  1
  H+  H284  1  0.11138275  0.13768741  1.00858859  1
  H+  H285  1  0.11430749  0.71846496  0.36201491  1
  H+  H286  1  0.36934838  0.40207225  0.34032454  1
  H+  H287  1  -0.03230012  0.35365106  -0.00196164  1
  H+  H288  1  0.90682380  0.57006659  0.55994409  1
  H+  H289  1  0.22162208  0.29327106  0.61056400  1
  H+  H290  1  0.40816826  0.32539479  0.93539791  1
  H+  H291  1  0.08347314  0.40681414  0.09627027  1
  H+  H292  1  0.33533871  0.91430062  0.73626960  1
  H+  H293  1  0.38435304  0.26570363  0.83901035  1
  H+  H294  1  0.67522990  0.58418447  0.56416914  1
  H+  H295  1  0.63927427  0.06754279  0.23118373  1
  H+  H296  1  0.65763252  0.35542221  0.92001981  1
  H+  H297  1  0.40438205  0.90868060  0.15214218  1
  H+  H298  1  0.09250422  0.17802573  0.41292193  1
  H+  H299  1  0.34296898  0.19709472  0.40702221  1
  H+  H300  1  0.64234034  0.59539817  0.93732274  1
  H+  H301  1  0.51422199  0.63194255  0.65724728  1
  H+  H302  1  0.07999218  0.17014789  0.06546713  1
  H+  H303  1  0.02223549  0.15678658  0.15711361  1
  H+  H304  1  0.59061613  0.17580642  0.10459209  1
  H+  H305  1  0.81706439  0.38302294  0.44271877  1
  H+  H306  1  0.17582343  0.83909918  0.95066964  1
  H+  H307  1  0.06888601  0.63703063  0.05243100  1
  H+  H308  1  0.16393949  0.10215613  0.23547255  1
  H+  H309  1  0.66972664  0.08463253  0.56635693  1
  H+  H310  1  0.18152507  0.84722349  0.22651509  1
  H+  H311  1  0.34209134  0.67333624  0.39911055  1
  H+  H312  1  0.90605085  0.32681312  0.90378095  1
  H+  H313  1  0.07753195  0.41765769  0.73905332  1
  H+  H314  1  0.66650039  0.34036929  0.23817540  1
  H+  H315  1  0.83837866  0.41635033  0.72758619  1
  H+  H316  1  0.34351507  0.42238505  0.10375813  1
  H+  H317  1  0.65998597  0.31484922  0.91954966  1
  H+  H318  1  0.26988460  0.87767795  0.01817287  1
  H+  H319  1  0.59214135  0.15938771  0.72552928  1
  H+  H320  1  0.10830571  0.67796193  0.13301439  1
  H+  H321  1  0.08478105  0.42515672  0.39800091  1
  H+  H322  1  0.01909637  0.88585942  0.00310825  1
  H+  H323  1  0.58507895  0.67333708  0.76565627  1
  H+  H324  1  0.22814703  0.60638849  0.66299747  1
  H+  H325  1  0.05387523  0.94895896  0.09502892  1
  H+  H326  1  0.66810161  0.83705789  0.57023577  1
  H+  H327  1  0.17442015  0.57317890  0.56894124  1
  H+  H328  1  0.67464729  0.59212718  0.22965732  1
  H+  H329  1  0.59894108  0.47885376  0.00830222  1
  H+  H330  1  0.81998597  0.64688342  0.73631274  1
  H+  H331  1  0.11687990  0.48045523  0.33681650  1
  H+  H332  1  0.11630880  0.10628730  0.64501098  1
  H+  H333  1  0.14250624  0.14081590  0.33664694  1
  H+  H334  1  0.90652547  0.81959236  0.24438229  1
  H+  H335  1  0.33247898  0.91170738  0.40518995  1
  H+  H336  1  0.38949681  0.77259909  0.66242530  1
  H+  H337  1  0.33212993  0.16858293  0.07121314  1
  H+  H338  1  0.66602237  0.33838435  0.60484439  1
  H+  H339  1  0.33476068  0.42956256  0.39876505  1
  H+  H340  1  0.90916441  0.60453078  0.21471005  1
  H+  H341  1  0.40155852  0.06190077  0.90720962  1
  H+  H342  1  0.42062634  0.08287623  0.60100998  1
  H+  H343  1  0.06715543  0.15807630  0.72829096  1
  H+  H344  1  0.90608398  0.57738045  0.92957592  1
  H+  H345  1  0.81989985  0.67101219  0.08914652  1
  H+  H346  1  0.38793999  0.09691392  0.84426466  1
  H+  H347  1  0.16429452  0.33692477  0.90531462  1
  H+  H348  1  0.66909289  0.07453031  0.90267567  1
  H+  H349  1  0.59262752  0.91982114  0.43348774  1
  H+  H350  1  0.83062065  0.16438914  0.73337982  1
  H+  H351  1  0.63644355  0.60321582  0.65776825  1
  H+  H352  1  0.43756743  0.86589444  0.58250368  1
  H+  H353  1  0.92926646  0.34058995  0.56737970  1
  H+  H354  1  0.84581824  0.91883192  0.72122488  1
  H+  H355  1  0.86908630  0.19813627  0.32616952  1
  H+  H356  1  0.64675174  0.76259779  0.98564816  1
  H+  H357  1  0.36657424  0.47467308  0.00723043  1
  H+  H358  1  0.05636484  0.62477034  0.71413472  1
  H+  H359  1  0.83708020  0.41956838  0.06931511  1
  H+  H360  1  0.61276574  0.47705498  0.17460243  1
  H+  H361  1  0.52960595  0.05687890  0.43951331  1
  H+  H362  1  0.42008454  0.34073618  0.24200117  1
  H+  H363  1  0.35670833  0.68745659  0.10339968  1
  H+  H364  1  0.91502274  0.09263203  0.59670047  1
  H+  H365  1  0.97237729  0.11180342  0.98876682  1
  H+  H366  1  0.15973747  0.07812656  0.55275324  1
  H+  H367  1  0.39214935  0.37951524  0.49268392  1
  H+  H368  1  0.61486929  0.47446766  0.67213088  1
  H+  H369  1  0.91990740  0.33446718  0.26841069  1
  H+  H370  1  0.52962639  0.40066576  0.48387722  1
  H+  H371  1  0.16398267  0.09437320  0.90839883  1
  H+  H372  1  0.36605521  0.96998793  0.83307526  1
  H+  H373  1  0.22898719  0.87232952  0.23367261  1
  H+  H374  1  0.37274503  0.73331761  0.33984674  1
  H+  H375  1  0.40955263  0.06625133  0.26603057  1
  H+  H376  1  0.34375548  0.66833379  0.72977112  1
  H+  H377  1  0.40896115  0.57666944  0.60149578  1
  H+  H378  1  0.61142639  0.11616491  0.00013969  1
  H+  H379  1  0.43313094  0.59270397  0.23086094  1
  H+  H380  1  0.76170368  0.64518809  1.00054819  1
  H+  H381  1  0.17359706  0.83386704  0.60384757  1
  H+  H382  1  0.11503565  0.89558381  0.66863082  1
  H+  H383  1  0.91307319  0.83034950  0.93266838  1
  O2-  O384  1  0.08322250  0.18359016  0.14517958  1
  O2-  O385  1  0.09056496  0.18312087  0.49634651  1
  O2-  O386  1  0.03039828  0.12142384  0.80006847  1
  O2-  O387  1  0.08996775  0.40780873  0.14211129  1
  O2-  O388  1  0.09052229  0.42756550  0.47488535  1
  O2-  O389  1  0.07080831  0.40322602  0.81903947  1
  O2-  O390  1  0.06440784  0.61650500  0.12677648  1
  O2-  O391  1  0.08944584  0.66313299  0.49591942  1
  O2-  O392  1  0.07707877  0.70946027  0.79985984  1
  O2-  O393  1  0.03977794  0.97062319  0.13217219  1
  O2-  O394  1  0.10782933  0.91536771  0.47412165  1
  O2-  O395  1  0.08242184  0.91485937  0.83720722  1
  O2-  O396  1  0.33248293  0.16685294  0.15180553  1
  O2-  O397  1  0.34389023  0.18497129  0.48409498  1
  O2-  O398  1  0.34403758  0.15642338  0.81563861  1
  O2-  O399  1  0.34077920  0.42181279  0.14931828  1
  O2-  O400  1  0.32315092  0.42117497  0.47337232  1
  O2-  O401  1  0.32943283  0.41612706  0.81604305  1
  O2-  O402  1  0.36233068  0.69653239  0.14821878  1
  O2-  O403  1  0.33261253  0.66678921  0.48040876  1
  O2-  O404  1  0.32846506  0.68971130  0.80967712  1
  O2-  O405  1  0.36695065  0.93237051  0.13713811  1
  O2-  O406  1  0.33201817  0.92266530  0.48381596  1
  O2-  O407  1  0.33674168  0.90853430  0.81546122  1
  O2-  O408  1  0.58495118  0.17077807  0.14882064  1
  O2-  O409  1  0.55736616  0.11218414  0.46023960  1
  O2-  O410  1  0.59491393  0.16019190  0.79773767  1
  O2-  O411  1  0.57868801  0.41265880  0.16467694  1
  O2-  O412  1  0.59203609  0.42575122  0.47101062  1
  O2-  O413  1  0.57688549  0.42298416  0.81405365  1
  O2-  O414  1  0.58464565  0.64408950  0.11626336  1
  O2-  O415  1  0.58482159  0.66818596  0.48347965  1
  O2-  O416  1  0.58007390  0.67399882  0.80979041  1
  O2-  O417  1  0.53903240  0.89579343  0.15272586  1
  O2-  O418  1  0.59839948  0.92062349  0.47914920  1
  O2-  O419  1  0.59479104  0.91659812  0.81424856  1
  O2-  O420  1  0.84257333  0.13760464  0.14488508  1
  O2-  O421  1  0.84266878  0.17604453  0.48679459  1
  O2-  O422  1  0.82629990  0.16343359  0.81286726  1
  O2-  O423  1  0.83541721  0.42087402  0.14748236  1
  O2-  O424  1  0.82567462  0.39937249  0.48736907  1
  O2-  O425  1  0.83768985  0.41622598  0.80618670  1
  O2-  O426  1  0.81889562  0.66524599  0.13475400  1
  O2-  O427  1  0.84691801  0.66860641  0.47301946  1
  O2-  O428  1  0.82416663  0.65522445  0.81860507  1
  O2-  O429  1  0.81759486  0.92730291  0.13910065  1
  O2-  O430  1  0.84270051  0.93057884  0.48786292  1
  O2-  O431  1  0.84902483  0.91307815  0.80512610  1
  O2-  O432  1  0.16624839  0.10493080  0.19013041  1
  O2-  O433  1  0.17430398  0.08211920  0.50717150  1
  O2-  O434  1  0.16370746  0.09515367  0.86248523  1
  O2-  O435  1  0.17453680  0.34558497  0.17726251  1
  O2-  O436  1  0.16126506  0.33948926  0.50829883  1
  O2-  O437  1  0.15997088  0.33618445  0.86034550  1
  O2-  O438  1  0.20462690  0.61352565  0.18916078  1
  O2-  O439  1  0.17682780  0.57973658  0.52374822  1
  O2-  O440  1  0.18260195  0.57132435  0.86717947  1
  O2-  O441  1  0.19790103  0.77704723  0.12565936  1
  O2-  O442  1  0.17533446  0.83339455  0.52726496  1
  O2-  O443  1  0.18755817  0.85126845  0.87486566  1
  O2-  O444  1  0.41561894  0.07964970  0.17905424  1
  O2-  O445  1  0.41593278  0.08928326  0.52313193  1
  O2-  O446  1  0.40743772  0.05900388  0.86286310  1
  O2-  O447  1  0.42152809  0.33683284  0.19542719  1
  O2-  O448  1  0.43149486  0.35896207  0.50556719  1
  O2-  O449  1  0.40855252  0.32586885  0.85432156  1
  O2-  O450  1  0.42940826  0.58984170  0.18549364  1
  O2-  O451  1  0.41759972  0.58647190  0.52504923  1
  O2-  O452  1  0.41483618  0.58982229  0.85226375  1
  O2-  O453  1  0.45227301  0.85918388  0.17976867  1
  O2-  O454  1  0.45382522  0.89692963  0.54188351  1
  O2-  O455  1  0.43396155  0.83596019  0.85445639  1
  O2-  O456  1  0.63912349  0.06038349  0.18324106  1
  O2-  O457  1  0.66953520  0.08650804  0.52072721  1
  O2-  O458  1  0.66727755  0.07575052  0.85753161  1
  O2-  O459  1  0.66612339  0.34184959  0.19143383  1
  O2-  O460  1  0.66300942  0.33888781  0.53394131  1
  O2-  O461  1  0.66638836  0.33777122  0.79923911  1
  O2-  O462  1  0.66491524  0.57589325  0.18592047  1
  O2-  O463  1  0.67762322  0.58798354  0.51889808  1
  O2-  O464  1  0.65578468  0.58496641  0.86098390  1
  O2-  O465  1  0.64958221  0.83192891  0.18700463  1
  O2-  O466  1  0.66926288  0.83046073  0.52522773  1
  O2-  O467  1  0.67843931  0.83571155  0.84846823  1
  O2-  O468  1  0.90118746  0.10356451  0.15634116  1
  O2-  O469  1  0.91787762  0.09484108  0.52345349  1
  O2-  O470  1  0.88367100  0.07039467  0.86391938  1
  O2-  O471  1  0.92486284  0.34151922  0.18364485  1
  O2-  O472  1  0.93106350  0.34371949  0.52211225  1
  O2-  O473  1  0.90623121  0.32863246  0.85838649  1
  O2-  O474  1  0.91051079  0.58969971  0.17077430  1
  O2-  O475  1  0.91475363  0.56955015  0.51504779  1
  O2-  O476  1  0.91141581  0.57997938  0.85064156  1
  O2-  O477  1  0.92109373  0.81857058  0.19995281  1
  O2-  O478  1  0.94089539  0.83062875  0.51642243  1
  O2-  O479  1  0.91536714  0.82008444  0.85702321  1
  O2-  O480  1  0.17534657  0.11474485  0.31482010  1
  O2-  O481  1  0.13608600  0.07344361  0.62052507  1
  O2-  O482  1  0.16480265  0.08564327  0.98381940  1
  O2-  O483  1  0.16400653  0.33146776  0.32436112  1
  O2-  O484  1  0.19335121  0.31755868  0.63456069  1
  O2-  O485  1  0.16726770  0.33563770  0.98606550  1
  O2-  O486  1  0.17774848  0.58756282  0.31207144  1
  O2-  O487  1  0.16868534  0.57605580  0.64674889  1
  O2-  O488  1  0.17469653  0.57807090  0.99083227  1
  O2-  O489  1  0.15129990  0.80544457  0.34547237  1
  O2-  O490  1  0.17348550  0.83043309  0.64950671  1
  O2-  O491  1  0.16862394  0.83204405  0.99587419  1
  O2-  O492  1  0.41576468  0.06963199  0.31042603  1
  O2-  O493  1  0.42640137  0.08138654  0.64610618  1
  O2-  O494  1  0.40338335  0.07004594  0.99086467  1
  O2-  O495  1  0.42529776  0.35341800  0.31295727  1
  O2-  O496  1  0.41270593  0.32358107  0.66418363  1
  O2-  O497  1  0.40705073  0.32547738  0.98074036  1
  O2-  O498  1  0.43435728  0.59451448  0.31230712  1
  O2-  O499  1  0.41277974  0.58032611  0.64709346  1
  O2-  O500  1  0.42328420  0.58184650  0.97696900  1
  O2-  O501  1  0.42193715  0.84083895  0.31224288  1
  O2-  O502  1  0.42001436  0.83537038  0.65292548  1
  O2-  O503  1  0.41840330  0.82841388  0.97554404  1
  O2-  O504  1  0.63765185  0.07836293  0.29575414  1
  O2-  O505  1  0.66891322  0.07916070  0.64331972  1
  O2-  O506  1  0.66592373  0.06644860  0.98442448  1
  O2-  O507  1  0.66305941  0.34097214  0.30856135  1
  O2-  O508  1  0.66803125  0.33366812  0.65151645  1
  O2-  O509  1  0.65382972  0.33422410  1.04269583  1
  O2-  O510  1  0.68668781  0.61126500  0.30773948  1
  O2-  O511  1  0.66574436  0.57289627  0.64297152  1
  O2-  O512  1  0.64436526  0.59743367  0.98337517  1
  O2-  O513  1  0.66968866  0.84926289  0.30328203  1
  O2-  O514  1  0.66794259  0.84323880  0.64860434  1
  O2-  O515  1  0.67013855  0.82372940  0.97466524  1
  O2-  O516  1  0.93951329  0.06088000  0.30848771  1
  O2-  O517  1  0.91437681  0.09144741  0.64289769  1
  O2-  O518  1  0.91084556  0.07988668  0.97703985  1
  O2-  O519  1  0.91743476  0.32627311  0.31278813  1
  O2-  O520  1  0.92075207  0.33246439  0.64620413  1
  O2-  O521  1  0.90688135  0.32161585  0.98389881  1
  O2-  O522  1  0.90089860  0.63417250  0.28450872  1
  O2-  O523  1  0.90623414  0.57649571  0.63789358  1
  O2-  O524  1  0.90751093  0.57820802  0.97492704  1
  O2-  O525  1  0.89126484  0.81004874  0.31969857  1
  O2-  O526  1  0.92949470  0.83912926  0.63482226  1
  O2-  O527  1  0.91406981  0.83187602  0.97844300  1
  O2-  O528  1  0.08070776  0.16900291  0.02023648  1
  O2-  O529  1  0.09221192  0.17768814  0.36801283  1
  O2-  O530  1  0.07741363  0.17064569  0.68386976  1
  O2-  O531  1  0.07627578  0.40770730  0.02320074  1
  O2-  O532  1  0.08263907  0.42067376  0.35252793  1
  O2-  O533  1  0.08208349  0.42658152  0.69437465  1
  O2-  O534  1  0.07831956  0.65426358  0.00824258  1
  O2-  O535  1  0.09167232  0.65229959  0.37471681  1
  O2-  O536  1  0.07939367  0.64924033  0.67437045  1
  O2-  O537  1  0.07768287  0.91973528  0.02145981  1
  O2-  O538  1  0.05319379  0.86310731  0.35985126  1
  O2-  O539  1  0.08539684  0.92671572  0.68002140  1
  O2-  O540  1  0.33118235  0.16381556  0.02600633  1
  O2-  O541  1  0.34423087  0.20417528  0.36193444  1
  O2-  O542  1  0.34280905  0.16094025  0.70049201  1
  O2-  O543  1  0.33562429  0.41631381  0.02565330  1
  O2-  O544  1  0.33933529  0.43361847  0.35304618  1
  O2-  O545  1  0.33803019  0.42595354  0.69300961  1
  O2-  O546  1  0.34395775  0.67027210  0.02393786  1
  O2-  O547  1  0.34475375  0.67263412  0.35400526  1
  O2-  O548  1  0.33921201  0.66650556  0.68507534  1
  O2-  O549  1  0.33395583  0.91046449  0.02702336  1
  O2-  O550  1  0.32529745  0.90359983  0.36024301  1
  O2-  O551  1  0.33643716  0.91296915  0.69082645  1
  O2-  O552  1  0.58021025  0.15012343  0.00157964  1
  O2-  O553  1  0.57588507  0.17667833  0.34306713  1
  O2-  O554  1  0.59252704  0.16411938  0.67938809  1
  O2-  O555  1  0.56469675  0.41876970  0.02119773  1
  O2-  O556  1  0.59403935  0.43451580  0.35173573  1
  O2-  O557  1  0.58495306  0.41664508  0.69249187  1
  O2-  O558  1  0.60013089  0.64521642  0.00022529  1
  O2-  O559  1  0.59700227  0.67954904  0.35409282  1
  O2-  O560  1  0.57976479  0.66694157  0.65693413  1
  O2-  O561  1  0.57686489  0.89744437  0.02518224  1
  O2-  O562  1  0.58562252  0.92405434  0.35846446  1
  O2-  O563  1  0.58626672  0.92239466  0.69234907  1
  O2-  O564  1  0.83041129  0.15300850  0.02468683  1
  O2-  O565  1  0.83592759  0.13519889  0.32752258  1
  O2-  O566  1  0.83006943  0.16621154  0.68796607  1
  O2-  O567  1  0.82992619  0.41194405  0.02418432  1
  O2-  O568  1  0.79670253  0.34169100  0.37635738  1
  O2-  O569  1  0.83616726  0.41565889  0.68222302  1
  O2-  O570  1  0.82184427  0.66777932  0.01366273  1
  O2-  O571  1  0.77125978  0.64587702  0.33646200  1
  O2-  O572  1  0.81466319  0.64454207  0.69164663  1
  O2-  O573  1  0.83637117  0.91992030  0.01903811  1
  O2-  O574  1  0.83610191  0.90326592  0.37534589  1
  O2-  O575  1  0.84079475  0.92432677  0.67686461  1
