# generated using pymatgen
data_H2O
_symmetry_space_group_name_H-M   'P 1'
_cell_length_a   17.98675214
_cell_length_b   17.98016521
_cell_length_c   22.00259391
_cell_angle_alpha   89.97413623
_cell_angle_beta   90.00978883
_cell_angle_gamma   119.98260480
_symmetry_Int_Tables_number   1
_chemical_formula_structural   H2O
_chemical_formula_sum   'H384 O192'
_cell_volume   6163.49427422
_cell_formula_units_Z   192
loop_
 _symmetry_equiv_pos_site_id
 _symmetry_equiv_pos_as_xyz
  1  'x, y, z'
loop_
 _atom_type_symbol
 _atom_type_oxidation_number
  H+  1.0
  O2-  -2.0
loop_
 _atom_site_type_symbol
 _atom_site_label
 _atom_site_symmetry_multiplicity
 _atom_site_fract_x
 _atom_site_fract_y
 _atom_site_fract_z
 _atom_site_occupancy
  H+  H0  1  0.28424588  0.91512136  0.67313892  1
  H+  H1  1  0.22566051  0.12268068  0.31899400  1
  H+  H2  1  0.97683105  0.11915953  0.97864992  1
  H+  H3  1  0.77870063  0.67309142  0.53168280  1
  H+  H4  1  0.25563909  0.62083223  0.68821509  1
  H+  H5  1  0.88831741  0.60574617  0.85644773  1
  H+  H6  1  0.35752713  0.35355406  0.49938282  1
  H+  H7  1  0.50057963  0.36890508  0.48018991  1
  H+  H8  1  0.37588145  0.73040162  0.83312111  1
  H+  H9  1  0.74185026  0.86772472  -0.01297750  1
  H+  H10  1  0.11473978  0.88122943  0.13848893  1
  H+  H11  1  0.11230302  0.89680398  0.33104230  1
  H+  H12  1  -0.01809704  0.87083040  -0.00599695  1
  H+  H13  1  0.64307978  0.79645860  0.13939387  1
  H+  H14  1  0.96482768  0.82690055  0.61010806  1
  H+  H15  1  -0.01812539  0.61535504  0.85341761  1
  H+  H16  1  0.97689054  0.35204838  0.18666984  1
  H+  H17  1  0.21037962  0.32907640  0.17783603  1
  H+  H18  1  0.60446036  0.62303020  0.83132996  1
  H+  H19  1  0.37738441  0.71513287  0.16780204  1
  H+  H20  1  0.63255830  0.51319410  -0.01260528  1
  H+  H21  1  0.36502242  0.72709637  0.34718444  1
  H+  H22  1  0.23409415  0.11255346  0.49497282  1
  H+  H23  1  0.14813495  0.83408098  0.68248352  1
  H+  H24  1  0.54616362  0.35773280  0.82678117  1
  H+  H25  1  0.18563461  0.35241359  0.52439441  1
  H+  H26  1  0.63299645  0.59095978  0.31101297  1
  H+  H27  1  0.11293713  0.41628854  0.51018876  1
  H+  H28  1  0.33399799  0.91968894  0.09529324  1
  H+  H29  1  0.29750812  0.16136961  0.67247620  1
  H+  H30  1  0.65509237  0.91180146  0.39711059  1
  H+  H31  1  0.53766124  0.14833197  0.82710476  1
  H+  H32  1  0.12049256  0.76964668  0.31449602  1
  H+  H33  1  0.88885356  1.05583682  0.31115463  1
  H+  H34  1  0.63184240  0.84989256  0.83587895  1
  H+  H35  1  0.51840698  0.86774570  0.52018936  1
  H+  H36  1  0.13431841  0.11824046  -0.02996454  1
  H+  H37  1  0.33595584  0.44354318  0.16341518  1
  H+  H38  1  0.91545385  0.06994936  0.56969238  1
  H+  H39  1  0.58455585  0.45794206  0.48096202  1
  H+  H40  1  0.84475253  0.96450730  0.67564050  1
  H+  H41  1  0.28661487  0.13590321  0.14495486  1
  H+  H42  1  0.77936026  0.37916224  0.00945718  1
  H+  H43  1  0.73753072  0.10846150  0.18206869  1
  H+  H44  1  -0.03246593  0.53914751  0.55279231  1
  H+  H45  1  0.57370640  0.42577790  0.05890653  1
  H+  H46  1  0.27404615  0.38241724  0.68831602  1
  H+  H47  1  0.58558083  0.63598923  0.47141619  1
  H+  H48  1  0.63712973  0.71819430  0.30515525  1
  H+  H49  1  0.65883206  0.85217258  0.30024583  1
  H+  H50  1  0.46341967  0.60863744  0.66415192  1
  H+  H51  1  0.81995352  0.14257901  0.43657771  1
  H+  H52  1  0.46209510  0.87382344  0.33287525  1
  H+  H53  1  0.86924565  0.45900040  0.16117540  1
  H+  H54  1  0.65441861  0.28591304  0.66248823  1
  H+  H55  1  0.48190064  0.37614424  0.65688177  1
  H+  H56  1  0.65007509  0.86355073  0.51378668  1
  H+  H57  1  0.88671546  0.10135453  0.66503830  1
  H+  H58  1  0.48487575  0.61212921  0.84066355  1
  H+  H59  1  0.16284244  0.79615933  0.50240504  1
  H+  H60  1  0.12080547  0.66375251  0.49250391  1
  H+  H61  1  0.86302589  0.43196622  0.77648426  1
  H+  H62  1  0.39501788  0.03556575  0.52005621  1
  H+  H63  1  0.37656078  0.64985001  0.01458695  1
  H+  H64  1  0.12542780  0.97424084  0.14525240  1
  H+  H65  1  0.61811030  0.43039933  0.13607173  1
  H+  H66  1  0.04679603  0.62327330  0.16345034  1
  H+  H67  1  0.13943887  0.35910445  0.69381243  1
  H+  H68  1  0.14350623  0.90068629  0.48727776  1
  H+  H69  1  0.13348560  0.09806327  0.49306444  1
  H+  H70  1  0.47266951  0.36173408  0.98861214  1
  H+  H71  1  0.40649984  0.02036009  0.17582506  1
  H+  H72  1  0.66371410  0.57287805  0.89681817  1
  H+  H73  1  0.29944565  0.44584130  0.48978139  1
  H+  H74  1  0.67095630  0.31742361  0.27241362  1
  H+  H75  1  0.44484294  0.38390628  0.84703432  1
  H+  H76  1  0.87051647  0.47553092  0.33767787  1
  H+  H77  1  0.60878833  0.13410297  0.50283514  1
  H+  H78  1  0.12412858  0.99335033  0.33597815  1
  H+  H79  1  0.49311302  0.85991853  0.84365942  1
  H+  H80  1  0.87174789  0.93070821  0.33866065  1
  H+  H81  1  0.39271582  0.85329570  0.52429637  1
  H+  H82  1  0.71966319  0.84789070  0.83656081  1
  H+  H83  1  0.37386789  0.85677372  0.66576387  1
  H+  H84  1  0.61971104  0.63336754  0.99229926  1
  H+  H85  1  0.38220873  0.75873944  0.51753441  1
  H+  H86  1  0.62674340  0.48183826  0.68197935  1
  H+  H87  1  1.00245827  0.87366055  0.50879401  1
  H+  H88  1  0.50416825  0.87859755  0.68013741  1
  H+  H89  1  0.27478177  0.13598141  -0.01422631  1
  H+  H90  1  0.37127772  0.22746185  0.13895804  1
  H+  H91  1  0.35957207  0.88245180  0.15115024  1
  H+  H92  1  0.64598404  0.77519802  0.49967299  1
  H+  H93  1  0.75669265  0.38064780  0.49303508  1
  H+  H94  1  0.66171666  0.03047339  0.33468232  1
  H+  H95  1  0.13599978  0.03140385  0.97029123  1
  H+  H96  1  0.41423019  0.49719564  0.35611011  1
  H+  H97  1  0.43258144  0.10416949  0.60480853  1
  H+  H98  1  0.44874356  0.56882205  0.17901606  1
  H+  H99  1  0.89086019  0.59966739  0.29629940  1
  H+  H100  1  0.04505818  0.90550556  0.69900711  1
  H+  H101  1  0.04985040  0.69310560  0.47828116  1
  H+  H102  1  0.63431484  0.10458662  0.33624707  1
  H+  H103  1  0.39291446  0.62016214  0.84049245  1
  H+  H104  1  0.12992346  0.54771598  0.51175873  1
  H+  H105  1  0.39252839  0.11662582  0.98596149  1
  H+  H106  1  0.41265582  0.37280142  0.32367436  1
  H+  H107  1  0.87429982  -0.00762828  1.00090964  1
  H+  H108  1  0.77949834  0.86775439  0.50905719  1
  H+  H109  1  0.15492104  0.10757880  0.15707202  1
  H+  H110  1  0.58207726  0.16080988  0.43981138  1
  H+  H111  1  0.62353075  0.37217895  0.33685623  1
  H+  H112  1  0.51996714  0.12875972  0.34520674  1
  H+  H113  1  0.64172361  0.24032250  0.82668104  1
  H+  H114  1  0.84729560  0.79252479  0.18817010  1
  H+  H115  1  0.73409482  0.35196692  0.33048843  1
  H+  H116  1  0.60798665  0.38690388  1.00274046  1
  H+  H117  1  0.64538973  0.27306032  0.99418061  1
  H+  H118  1  1.00755823  0.37856976  0.85584352  1
  H+  H119  1  0.86640125  0.15325298  0.34133099  1
  H+  H120  1  0.48383977  0.34983208  0.31311597  1
  H+  H121  1  0.09338063  0.92673186  0.05385485  1
  H+  H122  1  0.43322919  0.09153990  0.93077496  1
  H+  H123  1  0.25339591  0.61598839  0.85619491  1
  H+  H124  1  0.01058378  0.10595673  0.48972437  1
  H+  H125  1  0.88134127  0.90523071  0.00864993  1
  H+  H126  1  0.41037369  0.86772341  0.83759987  1
  H+  H127  1  0.38734194  0.11970871  0.32300152  1
  H+  H128  1  0.11992123  0.32307296  0.17747222  1
  H+  H129  1  0.71715597  0.57878560  0.29069393  1
  H+  H130  1  0.37696624  0.23624876  0.82922103  1
  H+  H131  1  0.42163886  0.55583386  0.51665694  1
  H+  H132  1  0.53372737  0.13772233  0.00330402  1
  H+  H133  1  0.86173822  0.90974362  0.16086669  1
  H+  H134  1  0.37211158  0.58865190  0.17580925  1
  H+  H135  1  0.63649998  0.25976058  0.17608762  1
  H+  H136  1  0.61980867  1.01275594  0.52862121  1
  H+  H137  1  0.35376698  0.22507695  0.49160204  1
  H+  H138  1  0.17508801  0.84250422  0.56688617  1
  H+  H139  1  0.77104032  0.90835092  0.14243502  1
  H+  H140  1  0.89272829  0.36136280  1.00012038  1
  H+  H141  1  0.77878404  0.13916476  -0.00970405  1
  H+  H142  1  0.09836677  0.45456032  0.69711517  1
  H+  H143  1  0.13307435  0.21851260  0.14099059  1
  H+  H144  1  0.34198341  0.71367582  0.68511578  1
  H+  H145  1  0.84298634  0.37430097  0.48538759  1
  H+  H146  1  0.87311499  -0.03601373  0.51056562  1
  H+  H147  1  0.87399825  0.13433479  0.98669084  1
  H+  H148  1  0.37090698  0.98562597  0.00170532  1
  H+  H149  1  0.60695704  0.71561797  0.83238390  1
  H+  H150  1  0.88158537  0.09757840  0.82000269  1
  H+  H151  1  0.10285750  0.73350649  0.82897773  1
  H+  H152  1  0.38491858  0.26844139  0.98702010  1
  H+  H153  1  0.87208115  0.06180482  0.16134207  1
  H+  H154  1  0.51706196  0.68564218  0.11557775  1
  H+  H155  1  0.70944467  0.09320970  0.51581553  1
  H+  H156  1  0.86299776  0.75441060  0.85048207  1
  H+  H157  1  0.66435159  0.59589926  0.51873740  1
  H+  H158  1  0.38620529  0.24729786  0.66859884  1
  H+  H159  1  0.57012640  0.65997379  0.73747289  1
  H+  H160  1  0.67524546  0.34043553  0.60134286  1
  H+  H161  1  0.32533719  0.66108010  0.44214767  1
  H+  H162  1  0.21806220  0.63098752  0.51871505  1
  H+  H163  1  0.81422086  0.65181093  0.22798227  1
  H+  H164  1  0.64519859  0.88637589  0.15317234  1
  H+  H165  1  0.79055680  0.65418371  0.69080420  1
  H+  H166  1  0.23800843  0.38557155  0.43498739  1
  H+  H167  1  0.34598316  0.88118424  0.32036031  1
  H+  H168  1  0.07668715  0.40021630  0.11159382  1
  H+  H169  1  0.85624592  0.96558042  0.83124197  1
  H+  H170  1  0.08207340  0.15305594  0.77997527  1
  H+  H171  1  0.09608073  0.00199720  0.72271923  1
  H+  H172  1  0.16526112  0.51736622  0.85934032  1
  H+  H173  1  0.87341826  0.07911225  0.50657079  1
  H+  H174  1  0.07476791  0.87545380  0.85490703  1
  H+  H175  1  0.91306306  0.29565398  0.44979775  1
  H+  H176  1  0.16016122  0.51322172  0.32769820  1
  H+  H177  1  0.72000802  0.60726482  -0.00786439  1
  H+  H178  1  0.65967568  0.11204573  0.82863226  1
  H+  H179  1  0.80849250  0.68290624  0.12769988  1
  H+  H180  1  0.48043070  0.12467781  0.51000910  1
  H+  H181  1  0.85822759  0.84494776  0.84469237  1
  H+  H182  1  0.24231785  0.61365817  1.00604420  1
  H+  H183  1  0.49088873  0.63304683  0.99335959  1
  H+  H184  1  0.11310971  0.45441038  0.17207340  1
  H+  H185  1  0.31833376  0.90811262  0.82351425  1
  H+  H186  1  0.92876035  0.63404293  0.51780934  1
  H+  H187  1  0.98238958  0.60808406  0.31761425  1
  H+  H188  1  0.50482220  0.85727359  0.18041757  1
  H+  H189  1  0.03491939  0.41809848  0.47860978  1
  H+  H190  1  0.98543147  0.36435042  1.00268659  1
  H+  H191  1  0.59288346  0.87918703  0.67252938  1
  H+  H192  1  0.88653726  0.53219211  0.62906875  1
  H+  H193  1  0.34325439  0.36800508  1.00586800  1
  H+  H194  1  0.87698514  0.86916515  0.51123433  1
  H+  H195  1  0.63654810  0.51322821  0.83750577  1
  H+  H196  1  0.22119493  0.20151623  0.61412715  1
  H+  H197  1  0.08431325  0.16065374  0.04326200  1
  H+  H198  1  0.41002929  0.57499302  0.27476847  1
  H+  H199  1  0.93189500  0.77748183  0.51440731  1
  H+  H200  1  0.33778666  0.39271931  0.83842760  1
  H+  H201  1  0.11777834  0.89791143  -0.00811690  1
  H+  H202  1  0.62384042  0.35638056  0.50527283  1
  H+  H203  1  0.13259172  0.72035768  0.16422335  1
  H+  H204  1  0.69428228  0.61233594  0.62266360  1
  H+  H205  1  0.32644386  0.42692607  0.77376404  1
  H+  H206  1  0.77444648  0.37641978  0.16722782  1
  H+  H207  1  0.11775176  0.46960443  0.02006002  1
  H+  H208  1  0.89786721  0.82338419  0.34692432  1
  H+  H209  1  0.93369545  0.76701850  0.66966388  1
  H+  H210  1  0.53532740  0.15113634  0.67843906  1
  H+  H211  1  0.77789484  0.68663300  0.49915252  1
  H+  H212  1  0.75550942  0.36286183  0.84095584  1
  H+  H213  1  0.13392320  0.09410183  0.87267657  1
  H+  H214  1  0.42263699  1.04731492  0.82958825  1
  H+  H215  1  0.83854826  0.17782506  0.50396658  1
  H+  H216  1  0.42211363  0.13885038  0.83167320  1
  H+  H217  1  0.96970575  0.09556694  0.83625954  1
  H+  H218  1  0.19622609  0.89827585  0.85216649  1
  H+  H219  1  0.37952079  0.02742539  0.32223986  1
  H+  H220  1  0.99115618  0.89942390  0.33375258  1
  H+  H221  1  0.61881556  -0.01341798  1.00782069  1
  H+  H222  1  0.13699855  0.12356875  0.31543301  1
  H+  H223  1  0.08901907  0.29296319  0.54941566  1
  H+  H224  1  0.75597212  0.09599619  0.70199232  1
  H+  H225  1  0.10197428  0.22434737  0.98811006  1
  H+  H226  1  0.87380384  0.49118615  0.52582822  1
  H+  H227  1  0.53004487  0.67590282  0.44604303  1
  H+  H228  1  0.91003520  0.08332657  0.92036397  1
  H+  H229  1  0.28518736  0.89130879  0.00088389  1
  H+  H230  1  0.09785389  0.19337468  0.48003452  1
  H+  H231  1  0.11861524  0.63102268  0.33393611  1
  H+  H232  1  0.36304941  0.23097397  0.33003305  1
  H+  H233  1  0.15033935  0.74582740  0.98851601  1
  H+  H234  1  0.37938213  0.51871665  0.83899233  1
  H+  H235  1  0.78793715  0.41620550  0.67870070  1
  H+  H236  1  0.91625278  0.60019638  0.16164268  1
  H+  H237  1  0.85021540  0.74667922  1.02249706  1
  H+  H238  1  0.11088525  0.22559305  0.69259895  1
  H+  H239  1  0.37721287  0.99784594  0.66789423  1
  H+  H240  1  0.24353679  0.61281939  0.17825160  1
  H+  H241  1  0.10985863  0.37774582  1.01516715  1
  H+  H242  1  0.40405784  0.13188669  0.66533000  1
  H+  H243  1  0.63014806  0.27085233  0.50841986  1
  H+  H244  1  0.62122985  1.01838466  0.67234252  1
  H+  H245  1  0.87260304  0.21160969  0.17194324  1
  H+  H246  1  -0.00399084  0.59873814  0.69226576  1
  H+  H247  1  0.90749078  0.83244302  0.94269107  1
  H+  H248  1  0.20660305  0.39648170  0.83736565  1
  H+  H249  1  0.88810935  0.23555517  0.75046292  1
  H+  H250  1  0.61483100  0.98746281  0.16437769  1
  H+  H251  1  0.10434370  0.41664734  0.78752397  1
  H+  H252  1  0.60312266  0.61943379  0.15255590  1
  H+  H253  1  0.22357582  0.85330030  0.16500607  1
  H+  H254  1  0.48233761  0.37416691  0.15231681  1
  H+  H255  1  0.33216083  0.66367086  0.77585253  1
  H+  H256  1  0.33755670  0.61872214  0.50261421  1
  H+  H257  1  0.78743262  0.90579690  0.30360919  1
  H+  H258  1  1.03140642  0.62202233  1.01189813  1
  H+  H259  1  0.66617330  0.36358873  0.83625499  1
  H+  H260  1  0.11477274  0.14211717  0.68059861  1
  H+  H261  1  0.72268694  0.64386943  0.16914804  1
  H+  H262  1  0.90274662  0.51771402  1.00637964  1
  H+  H263  1  0.77386576  0.14788825  0.34707355  1
  H+  H264  1  0.01951808  0.36014036  0.72062373  1
  H+  H265  1  0.88588975  0.36650754  0.33174814  1
  H+  H266  1  0.36822256  0.73502770  1.01546246  1
  H+  H267  1  0.76908967  0.62407445  0.83456903  1
  H+  H268  1  0.91537478  0.38416075  0.84661443  1
  H+  H269  1  0.65185862  0.12125078  -0.01719114  1
  H+  H270  1  0.20695041  0.85837054  0.30774664  1
  H+  H271  1  0.58224268  0.93362702  0.09974318  1
  H+  H272  1  0.54193760  0.13346001  0.15771549  1
  H+  H273  1  0.14890631  0.61957140  0.17771079  1
  H+  H274  1  0.61281130  0.21322671  0.34521085  1
  H+  H275  1  0.88436525  0.34775413  0.18328091  1
  H+  H276  1  0.52842922  0.89912326  1.01084864  1
  H+  H277  1  0.03134780  0.16594556  0.32405315  1
  H+  H278  1  0.70274734  0.86208149  0.66800392  1
  H+  H279  1  0.62731591  0.48882324  0.32195584  1
  H+  H280  1  0.35268816  0.36501295  0.15580237  1
  H+  H281  1  0.29514157  0.89731866  0.51006029  1
  H+  H282  1  0.88056501  0.27056875  0.33461743  1
  H+  H283  1  0.39448089  0.87031052  0.99457563  1
  H+  H284  1  0.59850054  0.72185111  0.67893921  1
  H+  H285  1  0.63433342  0.14542847  0.15601530  1
  H+  H286  1  0.23859699  0.60891813  0.33082308  1
  H+  H287  1  0.35904147  0.47468685  0.68195604  1
  H+  H288  1  0.84669708  0.94160226  0.08702527  1
  H+  H289  1  0.05662236  0.92149843  0.79627084  1
  H+  H290  1  0.67803736  0.83105798  0.23339474  1
  H+  H291  1  0.59668838  0.16640109  0.06094819  1
  H+  H292  1  0.56841785  0.91267378  0.46145544  1
  H+  H293  1  0.88457340  0.29530127  0.69896037  1
  H+  H294  1  0.40110042  0.34029628  0.55894786  1
  H+  H295  1  0.30721219  0.38852917  0.06600226  1
  H+  H296  1  0.68309797  0.08815786  0.92419521  1
  H+  H297  1  0.60405463  0.52885357  0.14890754  1
  H+  H298  1  0.36625601  0.42237307  0.40285871  1
  H+  H299  1  0.63481443  0.73286078  -0.00970525  1
  H+  H300  1  0.37163529  0.93104238  0.46136455  1
  H+  H301  1  0.07001472  0.80512494  0.64090582  1
  H+  H302  1  0.33839260  0.66515191  0.10412192  1
  H+  H303  1  0.11602867  0.58636202  0.67689983  1
  H+  H304  1  0.14213932  0.00293890  0.49020899  1
  H+  H305  1  0.59513430  0.40472083  0.76551940  1
  H+  H306  1  0.62517648  0.97229363  0.82534312  1
  H+  H307  1  0.87493200  0.23116113  0.99592576  1
  H+  H308  1  0.37413314  0.64261157  0.34707061  1
  H+  H309  1  0.29887542  0.89835355  0.37397573  1
  H+  H310  1  0.61103139  0.67409065  0.37065460  1
  H+  H311  1  0.90072320  0.86557757  0.23844115  1
  H+  H312  1  0.41618963  0.59137059  0.94530721  1
  H+  H313  1  0.62089876  0.14284877  0.68078596  1
  H+  H314  1  0.49080066  0.62272856  0.31832286  1
  H+  H315  1  0.84063357  0.68874378  0.29468262  1
  H+  H316  1  0.88458669  0.48384449  0.83956975  1
  H+  H317  1  0.14664196  0.31466442  0.35446824  1
  H+  H318  1  0.73860754  0.95572885  0.35822643  1
  H+  H319  1  0.85777423  0.62247064  0.69272728  1
  H+  H320  1  0.40229001  0.81468748  0.61349395  1
  H+  H321  1  -0.02730028  0.86353049  0.84927037  1
  H+  H322  1  0.74328890  0.10294567  0.81964240  1
  H+  H323  1  0.39614480  0.33516223  0.90724480  1
  H+  H324  1  0.57435279  0.54787558  0.55117210  1
  H+  H325  1  0.37282052  0.60640047  0.66969592  1
  H+  H326  1  0.10687724  0.92786058  0.42436295  1
  H+  H327  1  0.37607077  0.55257342  0.57795301  1
  H+  H328  1  0.93052711  0.57997366  0.94950921  1
  H+  H329  1  0.22572208  0.77557798  0.94234439  1
  H+  H330  1  0.62004299  0.33715668  0.18851864  1
  H+  H331  1  0.62536367  0.39275499  0.67207055  1
  H+  H332  1  0.65442876  0.82191631  0.60559497  1
  H+  H333  1  0.58700204  0.68424110  0.07324179  1
  H+  H334  1  0.84088843  0.66331175  0.78237510  1
  H+  H335  1  0.78694527  0.98503881  0.71481976  1
  H+  H336  1  0.98075060  0.11384582  0.66260075  1
  H+  H337  1  0.60066968  0.18077258  0.76153326  1
  H+  H338  1  0.49193026  0.78054070  0.22222508  1
  H+  H339  1  0.93724973  0.34936697  0.91532791  1
  H+  H340  1  0.36336707  0.14029855  0.49398001  1
  H+  H341  1  0.83598839  0.42169069  0.40098341  1
  H+  H342  1  0.63990183  0.62201366  0.67545420  1
  H+  H343  1  0.68222678  0.33428280  0.93674650  1
  H+  H344  1  0.91951765  0.66797019  0.45408657  1
  H+  H345  1  0.15482794  0.82430683  0.22006144  1
  H+  H346  1  0.91418081  0.32846128  0.26677670  1
  H+  H347  1  0.17259826  0.07976659  0.22203935  1
  H+  H348  1  0.07860253  0.68916375  0.67692842  1
  H+  H349  1  0.21456510  0.35340863  0.99338418  1
  H+  H350  1  0.76039167  0.72035410  0.04756131  1
  H+  H351  1  0.91203188  0.12333480  0.25791986  1
  H+  H352  1  0.42568869  0.82966706  0.26959388  1
  H+  H353  1  0.58106742  0.39982897  0.39177278  1
  H+  H354  1  0.39121848  0.37259771  0.66320461  1
  H+  H355  1  0.15057548  0.56758521  0.61673131  1
  H+  H356  1  0.07574295  0.65991689  0.78017396  1
  H+  H357  1  0.15701600  0.82824215  0.90437657  1
  H+  H358  1  0.44095525  0.07978665  0.23477576  1
  H+  H359  1  0.07346004  0.16211232  0.38522212  1
  H+  H360  1  0.58220909  0.91110683  0.76759228  1
  H+  H361  1  0.18325192  0.10643062  0.59473217  1
  H+  H362  1  0.09609259  0.67365726  0.38908565  1
  H+  H363  1  0.81946382  0.90819030  0.77208130  1
  H+  H364  1  0.19157504  0.58034298  0.92424462  1
  H+  H365  1  0.33028521  0.16212714  0.04897862  1
  H+  H366  1  0.33177001  0.17215988  0.39021806  1
  H+  H367  1  0.37020240  0.19151555  0.76478088  1
  H+  H368  1  0.14823286  0.60608059  0.00072348  1
  H+  H369  1  0.12084199  0.42466304  0.40661976  1
  H+  H370  1  0.16429874  0.34114881  0.62911314  1
  H+  H371  1  0.19502983  0.20894852  0.09511693  1
  H+  H372  1  0.92434284  0.31440620  0.52055395  1
  H+  H373  1  0.36186099  0.93566096  0.75915311  1
  H+  H374  1  0.93666609  0.56867209  0.22414279  1
  H+  H375  1  0.10059772  0.65822954  0.06812171  1
  H+  H376  1  0.42804545  0.33466447  0.21519200  1
  H+  H377  1  0.67838474  0.83341481  0.92933101  1
  H+  H378  1  0.83429073  0.39915614  0.07097461  1
  H+  H379  1  0.42455469  0.83507062  0.93794246  1
  H+  H380  1  0.67416686  0.08825886  0.23842210  1
  H+  H381  1  0.15442081  0.34502942  0.93489148  1
  H+  H382  1  0.18306531  0.58005606  0.24229548  1
  H+  H383  1  0.66562371  0.08356744  0.61753770  1
  O2-  O384  1  0.13654421  0.17620314  0.11088631  1
  O2-  O385  1  0.06897547  0.13221949  0.47029435  1
  O2-  O386  1  0.07818510  0.14404889  0.82493953  1
  O2-  O387  1  0.07387383  0.39622579  0.15717420  1
  O2-  O388  1  0.09827458  0.44869601  0.48031562  1
  O2-  O389  1  0.11066522  0.42253677  0.83551196  1
  O2-  O390  1  0.10990933  0.65643896  0.15316856  1
  O2-  O391  1  0.10839441  0.70390918  0.46811360  1
  O2-  O392  1  0.07934802  0.67144675  0.82444014  1
  O2-  O393  1  0.09309294  0.91831349  0.12321055  1
  O2-  O394  1  0.10989002  0.92837254  0.47140413  1
  O2-  O395  1  0.04103890  0.90351346  0.84107122  1
  O2-  O396  1  0.34002342  0.16880940  0.12117648  1
  O2-  O397  1  0.32763462  0.16434657  0.47702504  1
  O2-  O398  1  0.37992515  0.18877130  0.80898673  1
  O2-  O399  1  0.31100590  0.38566760  0.14562427  1
  O2-  O400  1  0.26798630  0.38609487  0.47400096  1
  O2-  O401  1  0.32076467  0.43308730  0.81916534  1
  O2-  O402  1  0.33684581  0.65760532  0.15029794  1
  O2-  O403  1  0.32098549  0.66054374  0.48747097  1
  O2-  O404  1  0.34306693  0.66731600  0.82143106  1
  O2-  O405  1  0.32801081  0.91168515  0.14070065  1
  O2-  O406  1  0.35956731  0.92563457  0.50488527  1
  O2-  O407  1  0.37440183  0.93946647  0.80399037  1
  O2-  O408  1  0.60132943  0.17237612  0.14018995  1
  O2-  O409  1  0.58179957  0.16613075  0.48529150  1
  O2-  O410  1  0.60333710  0.17860899  0.80926977  1
  O2-  O411  1  0.57164490  0.43895372  0.12210865  1
  O2-  O412  1  0.56211110  0.39777167  0.46832530  1
  O2-  O413  1  0.60127332  0.40276604  0.81127616  1
  O2-  O414  1  0.57518715  0.69481663  0.11755110  1
  O2-  O415  1  0.58878779  0.68677636  0.45023934  1
  O2-  O416  1  0.57200669  0.65292651  0.81880852  1
  O2-  O417  1  0.58441908  0.92805808  0.14652404  1
  O2-  O418  1  0.57921003  0.90443332  0.50375303  1
  O2-  O419  1  0.58937336  0.91072580  0.81277510  1
  O2-  O420  1  0.84164458  0.15124169  0.15669014  1
  O2-  O421  1  0.81294900  0.12432348  0.48083255  1
  O2-  O422  1  0.82969116  0.13505929  0.77728888  1
  O2-  O423  1  0.83339294  0.39673016  0.15161467  1
  O2-  O424  1  0.81876702  0.41237846  0.47881672  1
  O2-  O425  1  0.86206832  0.42399712  0.82133260  1
  O2-  O426  1  0.79050323  0.68262524  0.17023898  1
  O2-  O427  1  0.94978612  0.68768244  0.49284705  1
  O2-  O428  1  0.83266405  0.65844739  0.82735896  1
  O2-  O429  1  0.83695792  0.94341960  0.13507955  1
  O2-  O430  1  0.84372499  0.89891222  0.49808016  1
  O2-  O431  1  0.82428253  0.90374607  0.81692632  1
  O2-  O432  1  0.17844470  0.07427932  0.17771401  1
  O2-  O433  1  0.17030570  0.07408871  0.50902523  1
  O2-  O434  1  0.11538509  0.08700671  0.82921432  1
  O2-  O435  1  0.14843614  0.29007783  0.18765064  1
  O2-  O436  1  0.14014388  0.34964495  0.55272522  1
  O2-  O437  1  0.14639897  0.36674739  0.85333656  1
  O2-  O438  1  0.18196315  0.58357401  0.19522552  1
  O2-  O439  1  0.15688348  0.60547011  0.53150434  1
  O2-  O440  1  0.19402228  0.57914533  0.87522947  1
  O2-  O441  1  0.16151072  0.81578962  0.17589231  1
  O2-  O442  1  0.19064381  0.85461476  0.52317266  1
  O2-  O443  1  0.14436162  0.84542118  0.86362567  1
  O2-  O444  1  0.45811249  0.06652322  0.19536305  1
  O2-  O445  1  0.42036656  0.09823409  0.52696396  1
  O2-  O446  1  0.45332118  0.10669684  0.84655456  1
  O2-  O447  1  0.42253829  0.33361435  0.17046060  1
  O2-  O448  1  0.39466706  0.33145782  0.51405382  1
  O2-  O449  1  0.38845823  0.33933423  0.86074017  1
  O2-  O450  1  0.39286602  0.55284380  0.19658378  1
  O2-  O451  1  0.36584484  0.54267419  0.53269071  1
  O2-  O452  1  0.41922019  0.58365006  0.85473129  1
  O2-  O453  1  0.45918700  0.80587749  0.20555766  1
  O2-  O454  1  0.41712644  0.81674157  0.53741906  1
  O2-  O455  1  0.43081941  0.83149897  0.85690331  1
  O2-  O456  1  0.67630693  0.08723649  0.19327680  1
  O2-  O457  1  0.65402896  0.07557360  0.53628744  1
  O2-  O458  1  0.68743408  0.08059861  0.84406275  1
  O2-  O459  1  0.66185650  0.31881338  0.19672927  1
  O2-  O460  1  0.65930073  0.33256580  0.52157105  1
  O2-  O461  1  0.69291453  0.33024894  0.85224581  1
  O2-  O462  1  0.62875250  0.58774733  0.17108483  1
  O2-  O463  1  0.60197475  0.56251376  0.51123555  1
  O2-  O464  1  0.66162239  0.57379748  0.85067334  1
  O2-  O465  1  0.67781746  0.85407977  0.15964854  1
  O2-  O466  1  0.67918658  0.82984508  0.52293968  1
  O2-  O467  1  0.65846693  0.81573190  0.85072034  1
  O2-  O468  1  0.89633042  0.11870687  0.18111090  1
  O2-  O469  1  0.91027285  0.05709779  0.52399475  1
  O2-  O470  1  0.90719133  0.06973558  0.84681275  1
  O2-  O471  1  0.91616467  0.32156312  0.20342248  1
  O2-  O472  1  0.92052893  0.33752676  0.48112143  1
  O2-  O473  1  0.94528333  0.35466057  0.86807148  1
  O2-  O474  1  0.94197317  0.56774782  0.17820251  1
  O2-  O475  1  0.91431065  0.54138797  0.55266808  1
  O2-  O476  1  0.92153415  0.57786961  0.86952465  1
  O2-  O477  1  0.88366289  0.85565334  0.19527500  1
  O2-  O478  1  0.94534718  0.83592982  0.52723823  1
  O2-  O479  1  0.88820057  0.81613907  0.86496383  1
  O2-  O480  1  0.16441561  0.08870601  0.30529348  1
  O2-  O481  1  0.19983381  0.14394118  0.63078264  1
  O2-  O482  1  0.16536391  0.09010831  0.95260136  1
  O2-  O483  1  0.18423398  0.37534815  0.36792427  1
  O2-  O484  1  0.16993700  0.33192971  0.67298409  1
  O2-  O485  1  0.15232689  0.33046481  0.97841243  1
  O2-  O486  1  0.17974587  0.57294956  0.31280087  1
  O2-  O487  1  0.14920600  0.55916386  0.66129228  1
  O2-  O488  1  0.18276784  0.57817975  0.98770637  1
  O2-  O489  1  0.14424416  0.82893293  0.29828634  1
  O2-  O490  1  0.12493884  0.80326867  0.64423792  1
  O2-  O491  1  0.19214269  0.79723815  0.96286909  1
  O2-  O492  1  0.41931104  0.08875484  0.31370153  1
  O2-  O493  1  0.43352714  0.10012249  0.65025535  1
  O2-  O494  1  0.42633580  0.08714796  0.97545074  1
  O2-  O495  1  0.42389838  0.33107312  0.30126360  1
  O2-  O496  1  0.42223333  0.34735208  0.64090387  1
  O2-  O497  1  0.41073118  0.33055431  0.97509173  1
  O2-  O498  1  0.42701865  0.59244662  0.31791511  1
  O2-  O499  1  0.40164948  0.57603111  0.65182813  1
  O2-  O500  1  0.42766052  0.60793996  0.98806190  1
  O2-  O501  1  0.40819768  0.83582310  0.31207502  1
  O2-  O502  1  0.39804690  0.81855648  0.65868744  1
  O2-  O503  1  0.42103449  0.83501337  0.98313908  1
  O2-  O504  1  0.67622125  0.08805585  0.31968633  1
  O2-  O505  1  0.66043024  0.08074818  0.66263024  1
  O2-  O506  1  0.68478963  0.09252967  0.96952315  1
  O2-  O507  1  0.67261198  0.31898756  0.31813637  1
  O2-  O508  1  0.68172230  0.34565376  0.64648148  1
  O2-  O509  1  0.67752411  0.33494259  0.98148931  1
  O2-  O510  1  0.65316978  0.54880730  0.29916291  1
  O2-  O511  1  0.67837731  0.59777585  0.66520474  1
  O2-  O512  1  0.66461962  0.57486809  0.97052748  1
  O2-  O513  1  0.68262493  0.82115459  0.27794128  1
  O2-  O514  1  0.64470817  0.82344993  0.64968097  1
  O2-  O515  1  0.68214399  0.82914835  0.97408651  1
  O2-  O516  1  0.91850628  0.11893958  0.30281095  1
  O2-  O517  1  0.92364992  0.08476723  0.64170079  1
  O2-  O518  1  0.91304818  0.08860956  0.96639669  1
  O2-  O519  1  0.91250036  0.33114494  0.31610922  1
  O2-  O520  1  0.91904049  0.29617786  0.73332018  1
  O2-  O521  1  0.92681001  0.33495832  0.98229435  1
  O2-  O522  1  0.92525787  0.57012399  0.29796469  1
  O2-  O523  1  0.88298509  0.53822936  0.67431767  1
  O2-  O524  1  0.93792385  0.57884819  0.99430951  1
  O2-  O525  1  0.92879988  0.87636727  0.32360944  1
  O2-  O526  1  0.98379437  0.81731973  0.65012835  1
  O2-  O527  1  0.91813175  0.84277473  0.98712358  1
  O2-  O528  1  0.07226123  0.16136706  -0.00122767  1
  O2-  O529  1  0.08797293  0.18640398  0.34401963  1
  O2-  O530  1  0.07876829  0.16215017  0.70047211  1
  O2-  O531  1  0.08144174  0.40931647  0.03369430  1
  O2-  O532  1  0.12663046  0.41218168  0.36314661  1
  O2-  O533  1  0.08407675  0.40222057  0.72139839  1
  O2-  O534  1  0.09668015  0.65462485  0.02332758  1
  O2-  O535  1  0.08779206  0.66220011  0.34455014  1
  O2-  O536  1  0.05893673  0.63491068  0.69946278  1
  O2-  O537  1  0.08817256  0.92714216  0.00678254  1
  O2-  O538  1  0.09387983  0.93298983  0.35417875  1
  O2-  O539  1  0.08736802  0.94457290  0.72960030  1
  O2-  O540  1  0.33399923  0.16273575  0.00259518  1
  O2-  O541  1  0.33014368  0.16988552  0.34534551  1
  O2-  O542  1  0.35781997  0.18761225  0.68601452  1
  O2-  O543  1  0.30459253  0.38849458  0.02081035  1
  O2-  O544  1  0.41717140  0.44974444  0.37697502  1
  O2-  O545  1  0.33660541  0.41610631  0.70001841  1
  O2-  O546  1  0.34018429  0.67456348  0.03135869  1
  O2-  O547  1  0.33835403  0.66730481  0.36234973  1
  O2-  O548  1  0.31712539  0.65389776  0.70159819  1
  O2-  O549  1  0.34284268  0.92551733  0.01898529  1
  O2-  O550  1  0.31138815  0.90933829  0.33075572  1
  O2-  O551  1  0.34439182  0.93604434  0.68292013  1
  O2-  O552  1  0.59547935  0.16634750  0.01536918  1
  O2-  O553  1  0.57974250  0.15361097  0.36182184  1
  O2-  O554  1  0.59589312  0.17973705  0.69439882  1
  O2-  O555  1  0.57640336  0.41794141  0.00998936  1
  O2-  O556  1  0.59111564  0.40339331  0.34675582  1
  O2-  O557  1  0.59317318  0.41944459  0.69090577  1
  O2-  O558  1  0.59701321  0.67145998  0.00617739  1
  O2-  O559  1  0.60583941  0.66118889  0.32653460  1
  O2-  O560  1  0.57153755  0.66016552  0.69217034  1
  O2-  O561  1  0.58505839  0.93283645  0.03090313  1
  O2-  O562  1  0.67755519  0.94136771  0.35859977  1
  O2-  O563  1  0.56668435  0.91163198  0.69068083  1
  O2-  O564  1  0.84209483  0.16717868  0.00467305  1
  O2-  O565  1  0.83432104  0.17819043  0.36450667  1
  O2-  O566  1  0.80357888  0.08785270  0.71772501  1
  O2-  O567  1  0.83950079  0.40442017  0.02590448  1
  O2-  O568  1  0.84084711  0.41651452  0.35593872  1
  O2-  O569  1  0.84722373  0.44893770  0.69656267  1
  O2-  O570  1  0.79947899  0.69784177  0.04294818  1
  O2-  O571  1  0.81942674  0.63497017  0.27233691  1
  O2-  O572  1  0.85023651  0.67190900  0.70325045  1
  O2-  O573  1  0.84954626  0.93557878  0.02248535  1
  O2-  O574  1  0.82967849  0.95034334  0.33155514  1
  O2-  O575  1  0.79423544  0.93517736  0.70235759  1
