# generated using pymatgen
data_H2O
_symmetry_space_group_name_H-M   'P 1'
_cell_length_a   17.98866790
_cell_length_b   17.96375136
_cell_length_c   21.97893255
_cell_angle_alpha   89.96261111
_cell_angle_beta   89.98109755
_cell_angle_gamma   120.06531407
_symmetry_Int_Tables_number   1
_chemical_formula_structural   H2O
_chemical_formula_sum   'H384 O192'
_cell_volume   6146.76830801
_cell_formula_units_Z   192
loop_
 _symmetry_equiv_pos_site_id
 _symmetry_equiv_pos_as_xyz
  1  'x, y, z'
loop_
 _atom_type_symbol
 _atom_type_oxidation_number
  H+  1.0
  O2-  -2.0
loop_
 _atom_site_type_symbol
 _atom_site_label
 _atom_site_symmetry_multiplicity
 _atom_site_fract_x
 _atom_site_fract_y
 _atom_site_fract_z
 _atom_site_occupancy
  H+  H0  1  0.58432470  0.48427765  0.53083031  1
  H+  H1  1  0.87862931  0.36897407  0.99005431  1
  H+  H2  1  0.34032794  0.22507418  0.83612540  1
  H+  H3  1  0.12350756  0.01639014  0.85215540  1
  H+  H4  1  0.52732085  0.37871305  0.16495622  1
  H+  H5  1  0.96835671  0.62897265  0.83511886  1
  H+  H6  1  0.15203699  0.49660885  0.52390883  1
  H+  H7  1  0.89075121  0.78719698  0.64989514  1
  H+  H8  1  0.14113873  0.76969412  0.65793068  1
  H+  H9  1  0.23424820  0.52102092  0.56284388  1
  H+  H10  1  0.76494357  0.69878027  0.03217278  1
  H+  H11  1  0.72351709  0.61111045  0.83173752  1
  H+  H12  1  0.39805136  0.37733727  0.32480886  1
  H+  H13  1  0.59866809  0.38061909  0.82204767  1
  H+  H14  1  0.63700515  0.11507953  0.33049800  1
  H+  H15  1  0.62627709  0.85839376  0.33361811  1
  H+  H16  1  0.66961983  0.58434353  0.22707702  1
  H+  H17  1  0.63082450  0.35850021  0.18257749  1
  H+  H18  1  0.10893364  0.13377615  0.48138925  1
  H+  H19  1  0.62531492  0.63812008  0.82075323  1
  H+  H20  1  0.04853460  0.83902013  0.34437951  1
  H+  H21  1  0.10992817  0.96729770  0.67034211  1
  H+  H22  1  0.16558762  0.33490042  0.27619130  1
  H+  H23  1  0.68858972  0.05027475  -0.07331300  1
  H+  H24  1  0.61275642  0.44456071  0.38703450  1
  H+  H25  1  0.61368514  0.98061959  0.34205320  1
  H+  H26  1  0.62683145  0.34739705  0.34026744  1
  H+  H27  1  0.11207456  0.88889846  0.82404076  1
  H+  H28  1  0.86044562  0.23188854  0.49900708  1
  H+  H29  1  0.41914183  0.09013636  0.26914432  1
  H+  H30  1  0.01570518  0.14052663  0.33803387  1
  H+  H31  1  0.09910633  0.63092085  0.67036457  1
  H+  H32  1  0.47544693  0.48859585  0.12304896  1
  H+  H33  1  0.62150127  0.53034376  0.31353026  1
  H+  H34  1  0.87598787  0.89351225  0.00467642  1
  H+  H35  1  0.60709588  0.71743979  0.48780952  1
  H+  H36  1  0.05411246  0.81869437  0.20610891  1
  H+  H37  1  0.87873744  0.49777293  0.34989318  1
  H+  H38  1  0.85619508  0.64574300  0.81773119  1
  H+  H39  1  0.65265191  0.28441673  0.82944926  1
  H+  H40  1  0.32318812  0.63260501  0.86643029  1
  H+  H41  1  0.27163239  0.38947138  0.48048740  1
  H+  H42  1  0.31677656  0.61521866  0.83446629  1
  H+  H43  1  0.38872099  0.61701453  0.50296280  1
  H+  H44  1  0.27689549  0.39019683  0.33495404  1
  H+  H45  1  0.85714831  -0.02011395  0.49830749  1
  H+  H46  1  0.20961565  0.64902498  0.85764010  1
  H+  H47  1  0.76166429  0.63355882  0.34479524  1
  H+  H48  1  0.87928262  0.03052169  0.33364446  1
  H+  H49  1  0.11888447  0.23340007  0.84573510  1
  H+  H50  1  0.10748046  0.96669365  0.48081344  1
  H+  H51  1  0.97332132  0.11677021  0.50383280  1
  H+  H52  1  0.36245030  0.23110009  0.66467784  1
  H+  H53  1  0.85155440  0.26914002  0.66081835  1
  H+  H54  1  0.38535889  0.88797227  -0.00314174  1
  H+  H55  1  0.61331840  0.98269673  0.49750148  1
  H+  H56  1  0.76520641  0.09420315  0.83909749  1
  H+  H57  1  0.94620026  0.85803648  0.32779011  1
  H+  H58  1  0.62805957  1.00347245  -0.01414114  1
  H+  H59  1  0.86232099  0.59976795  0.15652292  1
  H+  H60  1  0.47529529  0.86689020  0.50011200  1
  H+  H61  1  0.49787847  0.52127327  0.60030126  1
  H+  H62  1  0.16436399  0.81903979  0.97668765  1
  H+  H63  1  0.43146343  -0.00531618  0.63348924  1
  H+  H64  1  0.84881252  0.47548618  0.66709893  1
  H+  H65  1  0.85863085  0.89090460  0.49499173  1
  H+  H66  1  0.38847887  0.92788460  0.77598353  1
  H+  H67  1  0.63366904  0.95708747  0.82638181  1
  H+  H68  1  0.11172937  0.73913552  0.81941846  1
  H+  H69  1  0.37914716  0.11645325  0.17439599  1
  H+  H70  1  0.26886719  0.15455379  0.15118882  1
  H+  H71  1  0.33537691  0.65224145  0.69827548  1
  H+  H72  1  0.07416661  0.69193794  -0.06537343  1
  H+  H73  1  0.11172340  0.01578744  0.30658190  1
  H+  H74  1  0.41093732  0.32914112  0.90362819  1
  H+  H75  1  0.61496165  0.33163825  0.67519242  1
  H+  H76  1  0.71246745  0.19906532  0.81569048  1
  H+  H77  1  0.45601379  0.88759462  0.64982640  1
  H+  H78  1  0.50511738  0.35164610  0.66979285  1
  H+  H79  1  0.56113193  0.35549132  0.41854161  1
  H+  H80  1  0.53670632  0.62489364  0.00322956  1
  H+  H81  1  0.38645776  0.90703643  0.15948387  1
  H+  H82  1  0.22479685  0.61945076  0.33761535  1
  H+  H83  1  0.14485794  0.11589544  0.21823849  1
  H+  H84  1  0.34679312  0.21069658  0.49959258  1
  H+  H85  1  0.61319755  0.73203866  0.33806314  1
  H+  H86  1  0.72474803  0.12049668  0.51189553  1
  H+  H87  1  0.71614446  0.86302975  0.33382029  1
  H+  H88  1  0.01208994  0.73476128  0.25113505  1
  H+  H89  1  0.72199517  0.59679160  0.98816720  1
  H+  H90  1  0.02144903  0.16861781  0.03036634  1
  H+  H91  1  0.33799129  0.13595229  0.82986432  1
  H+  H92  1  0.39697341  1.02471625  0.32477938  1
  H+  H93  1  0.38543176  0.13490662  0.00767210  1
  H+  H94  1  0.15513821  0.34783232  0.64620835  1
  H+  H95  1  0.87883224  0.61711427  0.65592845  1
  H+  H96  1  0.14502472  0.42872034  0.83091378  1
  H+  H97  1  0.63502313  0.11218451  0.18060821  1
  H+  H98  1  0.42753782  0.34146929  0.51288804  1
  H+  H99  1  0.85405152  0.73263649  0.82238400  1
  H+  H100  1  0.89291033  0.12189585  0.17637800  1
  H+  H101  1  0.42048337  0.59912352  0.26738493  1
  H+  H102  1  0.61348766  0.12204602  0.69162958  1
  H+  H103  1  0.88047493  0.27914038  0.33538530  1
  H+  H104  1  0.70797398  0.34105226  0.67586485  1
  H+  H105  1  0.42605340  0.07542653  0.56484751  1
  H+  H106  1  0.86446618  0.63691096  0.49881205  1
  H+  H107  1  0.95126391  0.59541267  0.16073941  1
  H+  H108  1  0.38539180  0.86507538  0.49299563  1
  H+  H109  1  0.42119624  0.64322863  0.16431457  1
  H+  H110  1  0.88176075  0.02060936  0.64939325  1
  H+  H111  1  0.37126164  0.32427508  0.66468113  1
  H+  H112  1  0.58008342  0.57035171  0.51444637  1
  H+  H113  1  0.50228146  0.61319233  0.83155642  1
  H+  H114  1  0.82938856  0.17267249  0.40473731  1
  H+  H115  1  0.13385068  0.41359600  0.01611749  1
  H+  H116  1  0.25293737  0.40217899  1.00032035  1
  H+  H117  1  0.87246795  0.86414050  0.64186923  1
  H+  H118  1  0.31768352  0.66364994  0.11443634  1
  H+  H119  1  0.30090405  0.71642361  0.76556736  1
  H+  H120  1  0.01420577  0.39559806  0.35773835  1
  H+  H121  1  0.20394781  0.09521307  0.31829966  1
  H+  H122  1  0.97421017  0.10799889  0.18079179  1
  H+  H123  1  0.84651829  0.89033914  0.34550482  1
  H+  H124  1  0.92537959  0.10078234  0.91661007  1
  H+  H125  1  0.37551352  0.47123944  0.81948651  1
  H+  H126  1  0.72027177  0.09403472  0.66943310  1
  H+  H127  1  0.53613625  0.12115629  0.94080771  1
  H+  H128  1  0.46798717  0.35775657  0.84190964  1
  H+  H129  1  0.92151815  0.83330759  0.90408459  1
  H+  H130  1  0.19121662  0.61331451  0.00387651  1
  H+  H131  1  0.27798536  0.89214696  0.48327392  1
  H+  H132  1  0.68355198  0.83573724  1.04407362  1
  H+  H133  1  0.71682383  0.86034770  0.50190177  1
  H+  H134  1  0.54983394  0.65658134  0.16168449  1
  H+  H135  1  0.61004961  0.46191165  1.00514783  1
  H+  H136  1  0.15073969  0.10592487  1.05368514  1
  H+  H137  1  0.36118411  0.48956297  0.48255486  1
  H+  H138  1  0.90994841  0.08867155  0.27284504  1
  H+  H139  1  0.23655078  0.62583784  0.69101162  1
  H+  H140  1  0.87873937  0.15573982  0.82609091  1
  H+  H141  1  0.48157079  0.08850392  0.66173209  1
  H+  H142  1  0.10626647  0.47841158  0.16621452  1
  H+  H143  1  0.85994132  0.14375321  0.34473427  1
  H+  H144  1  0.77556297  0.14442806  0.16619216  1
  H+  H145  1  0.30886604  0.13492523  0.40078649  1
  H+  H146  1  0.36553586  0.72944462  0.34121779  1
  H+  H147  1  0.29146047  0.89061433  0.33022725  1
  H+  H148  1  -0.02341007  0.36384141  0.51632484  1
  H+  H149  1  0.86058061  0.76739696  0.33624407  1
  H+  H150  1  0.49788824  0.24807613  0.76355109  1
  H+  H151  1  0.10277241  0.48422235  0.36183136  1
  H+  H152  1  0.59900943  0.97443058  0.67023206  1
  H+  H153  1  0.16343761  0.07431630  0.42817293  1
  H+  H154  1  0.51049216  0.13568464  0.17138339  1
  H+  H155  1  0.51721896  0.13572111  0.34162229  1
  H+  H156  1  0.10379311  0.25785046  0.18747477  1
  H+  H157  1  0.78981748  0.89606309  0.99879384  1
  H+  H158  1  0.39303225  1.02413557  0.50168829  1
  H+  H159  1  0.10586328  0.07662874  0.04252938  1
  H+  H160  1  0.24329813  0.06022536  -0.00225022  1
  H+  H161  1  0.61482478  0.86329923  0.82391014  1
  H+  H162  1  0.75325209  0.00899948  0.87299513  1
  H+  H163  1  0.36388164  0.48763691  0.33383543  1
  H+  H164  1  0.21060205  0.10449250  0.86034611  1
  H+  H165  1  0.60045088  0.47014674  0.82301780  1
  H+  H166  1  0.87552848  0.39897906  0.49512810  1
  H+  H167  1  0.37967731  0.03433414  0.81198426  1
  H+  H168  1  0.66784805  0.66708440  0.64289813  1
  H+  H169  1  0.01710852  0.12474934  0.66107372  1
  H+  H170  1  0.89760756  0.87546048  0.84946363  1
  H+  H171  1  0.50372912  0.86719817  0.83637756  1
  H+  H172  1  0.87221340  0.40144193  0.34783085  1
  H+  H173  1  0.61651669  0.15917717  -0.11519919  1
  H+  H174  1  0.31187534  0.91971205  0.73727998  1
  H+  H175  1  0.23528411  0.37300644  0.83869677  1
  H+  H176  1  0.88455810  0.77801989  0.50202834  1
  H+  H177  1  0.61392437  0.87821727  0.00652397  1
  H+  H178  1  0.85165103  0.48611764  0.16508625  1
  H+  H179  1  0.41750004  1.02635196  -0.02694347  1
  H+  H180  1  0.14746580  0.27361906  0.33250442  1
  H+  H181  1  0.36798673  0.37814742  0.00744483  1
  H+  H182  1  0.30819483  0.90577482  0.99539389  1
  H+  H183  1  0.74552866  0.87038641  0.84971567  1
  H+  H184  1  0.82305814  0.92423112  0.40555332  1
  H+  H185  1  0.76482076  0.13214422  1.00894624  1
  H+  H186  1  0.13836345  0.86433698  0.50414664  1
  H+  H187  1  0.47295530  0.34863745  0.99819950  1
  H+  H188  1  0.14489380  0.26900501  0.49394264  1
  H+  H189  1  0.47698682  0.36133178  0.33296110  1
  H+  H190  1  0.77695672  0.04664426  0.71645538  1
  H+  H191  1  0.63601095  0.90213363  0.14506164  1
  H+  H192  1  0.12016761  0.21340577  0.01831343  1
  H+  H193  1  0.18071604  0.84659957  0.56235089  1
  H+  H194  1  0.42234551  0.55515258  0.16950354  1
  H+  H195  1  0.61922464  0.24769315  0.33593480  1
  H+  H196  1  0.75792117  0.37940566  0.17629856  1
  H+  H197  1  -0.04099691  0.35606529  0.00174565  1
  H+  H198  1  0.40768724  0.37005032  0.17396337  1
  H+  H199  1  0.09896677  0.64500364  0.82755850  1
  H+  H200  1  -0.02349211  0.86407993  0.18239337  1
  H+  H201  1  0.12314692  0.73965222  0.35625407  1
  H+  H202  1  0.24179660  0.34639541  0.65395915  1
  H+  H203  1  0.13211787  0.88448501  0.67919498  1
  H+  H204  1  0.87580130  0.49136405  0.49538857  1
  H+  H205  1  0.88739162  0.62118586  0.34091541  1
  H+  H206  1  0.62790519  0.35310494  -0.01096296  1
  H+  H207  1  0.85782800  0.49103287  0.81882077  1
  H+  H208  1  0.08390027  0.44609443  0.78979492  1
  H+  H209  1  0.41049038  0.79330874  0.16572928  1
  H+  H210  1  0.08050605  0.85024374  0.05304029  1
  H+  H211  1  -0.03054347  0.85317556  0.00454138  1
  H+  H212  1  0.35973058  0.12673016  0.49822140  1
  H+  H213  1  0.77069696  0.40222318  0.81828114  1
  H+  H214  1  0.52360942  0.64051544  0.33609587  1
  H+  H215  1  1.01889858  0.88270427  0.82579082  1
  H+  H216  1  0.61644093  0.46966092  0.16214124  1
  H+  H217  1  0.87923433  0.27708506  0.17629673  1
  H+  H218  1  0.62841826  0.26725793  0.18460879  1
  H+  H219  1  0.63959199  0.27142488  0.97585206  1
  H+  H220  1  0.60936268  0.86022371  0.64921589  1
  H+  H221  1  0.09252062  0.37952539  0.16618960  1
  H+  H222  1  0.27888070  0.78595854  0.79298072  1
  H+  H223  1  0.04029021  0.27205540  0.22761985  1
  H+  H224  1  0.61415986  0.77240112  0.65163333  1
  H+  H225  1  0.10024498  0.48389920  0.01685969  1
  H+  H226  1  0.98962342  0.12803322  0.85877613  1
  H+  H227  1  0.10402369  0.50516040  0.67550718  1
  H+  H228  1  0.06972437  0.70785294  0.18023859  1
  H+  H229  1  0.84488667  0.71185204  0.15830548  1
  H+  H230  1  0.42002590  0.62065314  0.97601743  1
  H+  H231  1  0.24435938  0.10904587  0.67911013  1
  H+  H232  1  0.83583892  0.83540626  0.17808081  1
  H+  H233  1  0.74230392  0.87933796  0.65214007  1
  H+  H234  1  0.88475694  0.12293324  1.00804031  1
  H+  H235  1  0.11160352  0.72625031  0.50550849  1
  H+  H236  1  0.85233589  0.38468583  0.17241510  1
  H+  H237  1  0.10989267  0.37325096  0.49844942  1
  H+  H238  1  0.84796652  0.22744408  0.00797465  1
  H+  H239  1  0.96474596  0.36948483  0.17518754  1
  H+  H240  1  0.08671805  0.91022521  0.73875555  1
  H+  H241  1  0.85972786  0.62852094  -0.01143848  1
  H+  H242  1  0.86000290  0.14215143  0.49717403  1
  H+  H243  1  0.91137386  0.58598979  0.56602361  1
  H+  H244  1  0.20120951  0.61309247  0.19241862  1
  H+  H245  1  0.63657211  0.12126321  0.51194775  1
  H+  H246  1  0.72767525  0.11865933  0.33212779  1
  H+  H247  1  0.36319782  0.72933899  0.49505116  1
  H+  H248  1  0.43185250  0.82848814  0.89747549  1
  H+  H249  1  0.62944522  0.72964374  0.82465514  1
  H+  H250  1  0.85885744  0.36305948  0.66290911  1
  H+  H251  1  0.23458292  0.88013766  0.81899111  1
  H+  H252  1  0.10941119  0.08769341  0.65414830  1
  H+  H253  1  0.33684568  0.10640076  0.34127680  1
  H+  H254  1  0.40939464  0.60408176  0.83861514  1
  H+  H255  1  0.11176715  0.60772254  0.18323086  1
  H+  H256  1  0.51832333  0.13841567  0.49307840  1
  H+  H257  1  0.48386100  0.86382809  0.32885286  1
  H+  H258  1  0.38629804  0.80543410  0.82872439  1
  H+  H259  1  0.38718039  1.03034085  0.17201065  1
  H+  H260  1  0.87587305  0.10295101  0.66444255  1
  H+  H261  1  0.37971085  0.44838597  0.66398561  1
  H+  H262  1  0.64148142  0.76032827  -0.00143955  1
  H+  H263  1  0.87454785  0.76958564  0.99840388  1
  H+  H264  1  0.11660976  0.64764463  0.35391239  1
  H+  H265  1  0.37963987  0.88838303  0.33224160  1
  H+  H266  1  0.97893776  0.62164383  0.50971223  1
  H+  H267  1  0.89749310  0.04010919  1.00744068  1
  H+  H268  1  0.11209884  0.94447354  0.03063348  1
  H+  H269  1  0.97772821  0.37549358  0.68854489  1
  H+  H270  1  0.11422270  0.20420298  0.65757071  1
  H+  H271  1  0.10072929  0.13282104  0.33324110  1
  H+  H272  1  0.95230167  0.63901627  0.98588630  1
  H+  H273  1  0.85823851  0.48747610  0.99231145  1
  H+  H274  1  0.14317619  0.54779866  0.84884523  1
  H+  H275  1  0.78499829  0.66218003  0.65698890  1
  H+  H276  1  0.63356862  0.59143901  0.98714209  1
  H+  H277  1  0.93673850  0.33623503  0.89936527  1
  H+  H278  1  0.05338755  0.36234369  0.71085384  1
  H+  H279  1  0.66833938  0.78306440  0.13447088  1
  H+  H280  1  0.46921991  0.21677509  0.73992417  1
  H+  H281  1  0.36034985  0.37695528  0.82628423  1
  H+  H282  1  0.01569575  0.87941472  0.49179029  1
  H+  H283  1  0.38477945  0.62043082  0.32846596  1
  H+  H284  1  0.88395991  1.00348608  0.84968124  1
  H+  H285  1  0.77877492  0.64039530  0.51056403  1
  H+  H286  1  0.91418177  0.29084737  0.83686746  1
  H+  H287  1  0.11323425  0.14241241  0.85808818  1
  H+  H288  1  0.08654386  0.42506799  0.08585627  1
  H+  H289  1  0.60839101  0.20944514  0.69793088  1
  H+  H290  1  0.43388629  0.55377177  0.59007022  1
  H+  H291  1  0.36442290  0.23083867  0.15761260  1
  H+  H292  1  0.39714451  0.71751233  0.07224942  1
  H+  H293  1  0.79392745  0.88081865  0.70957954  1
  H+  H294  1  0.59488256  0.23371125  0.48884517  1
  H+  H295  1  0.34048882  0.92164245  0.42407190  1
  H+  H296  1  0.38351685  0.44426906  0.09466043  1
  H+  H297  1  0.34205866  0.15712865  0.06471400  1
  H+  H298  1  0.62630163  0.10836437  -0.05171251  1
  H+  H299  1  0.22807339  0.10387413  0.48208892  1
  H+  H300  1  0.62941986  0.98703278  0.15747093  1
  H+  H301  1  0.38345551  0.47432064  0.00187358  1
  H+  H302  1  0.62283080  0.16504930  0.77736499  1
  H+  H303  1  0.66457715  0.57543274  0.89209241  1
  H+  H304  1  0.13930082  0.58489177  0.94171208  1
  H+  H305  1  0.45576176  0.13016968  0.81196968  1
  H+  H306  1  0.67961342  0.82908159  0.90468357  1
  H+  H307  1  0.19978781  0.92268186  0.97001251  1
  H+  H308  1  0.66409615  0.60214468  0.59450652  1
  H+  H309  1  0.41133276  0.86679688  0.58456937  1
  H+  H310  1  0.81630097  0.66235483  0.40750409  1
  H+  H311  1  0.18155527  0.35744250  0.89977993  1
  H+  H312  1  0.15284159  0.58210052  0.28532034  1
  H+  H313  1  0.63164914  0.62270009  0.32055778  1
  H+  H314  1  0.58135589  0.92385169  0.40305341  1
  H+  H315  1  0.81869298  0.66564023  0.09021277  1
  H+  H316  1  0.91166568  0.33910280  0.27614537  1
  H+  H317  1  0.23927226  0.46558840  0.95945147  1
  H+  H318  1  0.09755484  0.65852964  -0.00832782  1
  H+  H319  1  0.32922216  0.73965155  -0.04227150  1
  H+  H320  1  0.62949865  0.63883206  0.15782780  1
  H+  H321  1  0.44123402  0.57385775  0.92330480  1
  H+  H322  1  0.14788211  0.82649360  0.27960879  1
  H+  H323  1  0.91584962  0.84075413  0.56004946  1
  H+  H324  1  0.64905053  0.82730811  0.55669337  1
  H+  H325  1  0.90226795  0.60004135  0.89215281  1
  H+  H326  1  0.42938399  0.83406016  0.26658560  1
  H+  H327  1  0.65378169  0.32098354  0.27369272  1
  H+  H328  1  0.81355918  0.90537280  0.09498688  1
  H+  H329  1  0.85099812  0.43458388  0.42076228  1
  H+  H330  1  0.57455596  0.16291957  0.11509489  1
  H+  H331  1  0.61123875  0.89138204  0.49207397  1
  H+  H332  1  0.66262788  0.33933524  0.88871734  1
  H+  H333  1  0.29395047  0.14907956  0.74122836  1
  H+  H334  1  0.33366099  0.67002630  0.40157783  1
  H+  H335  1  0.07773221  0.41546333  0.44726512  1
  H+  H336  1  0.33740838  0.40407557  0.72927008  1
  H+  H337  1  0.36317400  0.93536838  0.09759965  1
  H+  H338  1  0.72614888  0.60482821  0.16524307  1
  H+  H339  1  0.17282622  0.03006080  0.94472487  1
  H+  H340  1  0.58154647  0.66003289  0.42778106  1
  H+  H341  1  0.28156604  0.63278293  0.50258342  1
  H+  H342  1  0.58812972  0.67252162  0.72666664  1
  H+  H343  1  0.58426744  0.91430534  0.06234429  1
  H+  H344  1  0.38342468  0.25949820  0.99554687  1
  H+  H345  1  0.05321164  0.89739522  0.13499742  1
  H+  H346  1  0.96524932  0.61251878  0.65690478  1
  H+  H347  1  0.77499857  0.39626119  0.99169223  1
  H+  H348  1  0.18513093  0.32387100  0.55452290  1
  H+  H349  1  0.90679448  0.33643249  0.57029174  1
  H+  H350  1  0.83144111  0.67748488  0.72278807  1
  H+  H351  1  0.57776547  0.16878909  0.40377047  1
  H+  H352  1  0.56320477  0.39860564  0.72678147  1
  H+  H353  1  0.82798853  0.42554325  0.73164805  1
  H+  H354  1  0.86296670  0.95325169  0.78731433  1
  H+  H355  1  0.48797235  0.80770768  1.00585760  1
  H+  H356  1  0.33362968  0.43062536  0.41255598  1
  H+  H357  1  0.91547403  0.09091693  0.56455772  1
  H+  H358  1  0.97999097  0.62800722  0.34405669  1
  H+  H359  1  0.15577953  0.55737498  0.61580489  1
  H+  H360  1  0.58417437  0.40566252  0.06725346  1
  H+  H361  1  0.06234062  0.89854946  0.40097456  1
  H+  H362  1  0.30336472  0.85986529  0.64900088  1
  H+  H363  1  0.86721964  0.81223493  0.24027103  1
  H+  H364  1  0.17189416  0.89274306  0.33329703  1
  H+  H365  1  0.83013937  0.17450251  0.10492126  1
  H+  H366  1  0.53376536  0.62496305  0.66563418  1
  H+  H367  1  0.49855766  0.87865888  0.17308545  1
  H+  H368  1  0.56654417  0.90701727  0.72534174  1
  H+  H369  1  0.66432541  0.08341708  0.60733483  1
  H+  H370  1  0.42005825  0.08109400  0.91308577  1
  H+  H371  1  0.47428714  0.60979377  0.49566132  1
  H+  H372  1  0.08116669  0.66781311  0.44771622  1
  H+  H373  1  0.66962677  0.08417973  0.23766154  1
  H+  H374  1  0.07474116  0.67078099  0.72654168  1
  H+  H375  1  0.82382968  0.14403851  0.76169713  1
  H+  H376  1  0.08318479  0.68225788  0.11283374  1
  H+  H377  1  0.07542206  0.16672273  0.42763746  1
  H+  H378  1  0.38281232  0.29652222  0.57461035  1
  H+  H379  1  0.59523114  0.65652958  0.06436784  1
  H+  H380  1  0.09737035  0.17439068  0.11672944  1
  H+  H381  1  0.14217631  0.04934819  0.59862662  1
  H+  H382  1  0.19408854  0.85852551  0.88536072  1
  H+  H383  1  0.42444409  0.33339232  0.23578329  1
  O2-  O384  1  0.09409495  0.16444759  0.16233632  1
  O2-  O385  1  0.07940910  0.16720650  0.47352689  1
  O2-  O386  1  0.08424467  0.17059765  0.83866073  1
  O2-  O387  1  0.07815870  0.42110847  0.14467380  1
  O2-  O388  1  0.08181901  0.40864656  0.49339058  1
  O2-  O389  1  0.13778466  0.47549946  0.81305693  1
  O2-  O390  1  0.06380062  0.65854217  0.15346296  1
  O2-  O391  1  0.07692658  0.66533558  0.49282845  1
  O2-  O392  1  0.07403822  0.67767900  0.80784380  1
  O2-  O393  1  0.03948387  0.88561270  0.17879870  1
  O2-  O394  1  0.07559833  0.90289380  0.47422344  1
  O2-  O395  1  0.07875000  0.91544962  0.80803001  1
  O2-  O396  1  0.32868305  0.17101474  0.14097277  1
  O2-  O397  1  0.32538542  0.15150102  0.48085064  1
  O2-  O398  1  0.30273507  0.16347537  0.82364116  1
  O2-  O399  1  0.41522506  0.46416276  0.13450438  1
  O2-  O400  1  0.33099858  0.42986128  0.46255082  1
  O2-  O401  1  0.33547574  0.41089298  0.80718410  1
  O2-  O402  1  0.38001279  0.69894094  0.11530173  1
  O2-  O403  1  0.33659526  0.66798869  0.48059162  1
  O2-  O404  1  0.30208850  0.74912722  0.80508764  1
  O2-  O405  1  0.35704905  0.93644171  0.14207915  1
  O2-  O406  1  0.33914984  0.92137712  0.46959836  1
  O2-  O407  1  0.33779609  0.93415564  0.77918081  1
  O2-  O408  1  0.57420100  0.16407801  0.15941263  1
  O2-  O409  1  0.57954573  0.17486598  0.47712713  1
  O2-  O410  1  0.65259994  0.18459386  0.82049654  1
  O2-  O411  1  0.58775847  0.40813725  0.14824360  1
  O2-  O412  1  0.55667910  0.32647774  0.48860110  1
  O2-  O413  1  0.56409552  0.40851347  0.81166644  1
  O2-  O414  1  0.60536368  0.67442619  0.14018003  1
  O2-  O415  1  0.57599935  0.65655041  0.47328634  1
  O2-  O416  1  0.59674336  0.67150482  0.80617876  1
  O2-  O417  1  0.59939750  0.92806410  0.13854818  1
  O2-  O418  1  0.58135430  0.92359860  0.47983698  1
  O2-  O419  1  0.58882736  0.89856575  0.81090000  1
  O2-  O420  1  0.83566232  0.17819655  0.15025656  1
  O2-  O421  1  0.82799979  0.17153973  0.48337263  1
  O2-  O422  1  0.83243706  0.16462503  0.80965726  1
  O2-  O423  1  0.81757209  0.41163120  0.15817267  1
  O2-  O424  1  0.84887788  0.43152713  0.47689059  1
  O2-  O425  1  0.83046015  0.43159481  0.80277517  1
  O2-  O426  1  0.82190141  0.65520611  0.13754498  1
  O2-  O427  1  0.83063176  0.66603823  0.48558888  1
  O2-  O428  1  0.82335613  0.67449862  0.80366843  1
  O2-  O429  1  0.78525673  0.88759793  0.13615280  1
  O2-  O430  1  0.82478758  0.91918158  0.48337900  1
  O2-  O431  1  0.85194317  0.94197109  0.83076646  1
  O2-  O432  1  0.15943701  0.13970660  0.17605052  1
  O2-  O433  1  0.16272990  0.07434497  0.47271433  1
  O2-  O434  1  0.15297796  0.06641372  0.87988555  1
  O2-  O435  1  0.09469544  0.30423395  0.20571084  1
  O2-  O436  1  0.17924926  0.32987014  0.50984335  1
  O2-  O437  1  0.17584638  0.35041831  0.85537929  1
  O2-  O438  1  0.13989567  0.57510231  0.19933003  1
  O2-  O439  1  0.20008274  0.54582968  0.54821325  1
  O2-  O440  1  0.15208094  0.60378871  0.87069712  1
  O2-  O441  1  0.06424811  0.77198602  0.22791064  1
  O2-  O442  1  0.17612551  0.84129272  0.51771588  1
  O2-  O443  1  0.17945605  0.84788320  0.84091623  1
  O2-  O444  1  0.41270691  0.09023937  0.19033185  1
  O2-  O445  1  0.42207007  0.08319472  0.51951928  1
  O2-  O446  1  0.40591757  0.08911898  0.83564365  1
  O2-  O447  1  0.42533096  0.32947070  0.18947789  1
  O2-  O448  1  0.37174716  0.30026198  0.52987411  1
  O2-  O449  1  0.40714691  0.32815976  0.85841882  1
  O2-  O450  1  0.44533566  0.61337937  0.18793175  1
  O2-  O451  1  0.41396812  0.57945061  0.51285648  1
  O2-  O452  1  0.44196912  0.57564961  0.84923107  1
  O2-  O453  1  0.43779546  0.84852439  0.18782356  1
  O2-  O454  1  0.41340292  0.83483774  0.51286016  1
  O2-  O455  1  0.44205939  0.84950119  0.85386405  1
  O2-  O456  1  0.66976035  0.08542049  0.19184761  1
  O2-  O457  1  0.66408236  0.08898721  0.52736644  1
  O2-  O458  1  0.71874777  0.03547985  0.86300563  1
  O2-  O459  1  0.65903402  0.32721107  0.20162477  1
  O2-  O460  1  0.61344567  0.40288536  0.50780718  1
  O2-  O461  1  0.66242688  0.34104461  0.84333833  1
  O2-  O462  1  0.66515766  0.57593327  0.18198750  1
  O2-  O463  1  0.57604089  0.53089828  0.54755609  1
  O2-  O464  1  0.66243377  0.57909375  0.84677819  1
  O2-  O465  1  0.69344715  0.84449772  0.11950718  1
  O2-  O466  1  0.65385791  0.82733663  0.51133834  1
  O2-  O467  1  0.68321244  0.83283456  0.86009451  1
  O2-  O468  1  0.91669647  0.08961190  0.19726376  1
  O2-  O469  1  0.91289968  0.08857757  0.51889850  1
  O2-  O470  1  0.92569895  0.09630887  0.87120520  1
  O2-  O471  1  0.90679118  0.33800441  0.19308859  1
  O2-  O472  1  0.91375712  0.33816506  0.52511978  1
  O2-  O473  1  0.96160028  0.33769580  0.85919131  1
  O2-  O474  1  0.88994115  0.56591527  0.17301997  1
  O2-  O475  1  0.91466618  0.58887254  0.52023467  1
  O2-  O476  1  0.90663329  0.59856538  0.84698408  1
  O2-  O477  1  0.86792593  0.80863142  0.19468220  1
  O2-  O478  1  0.91616679  0.83996004  0.51337746  1
  O2-  O479  1  0.92141503  0.83731219  0.85842067  1
  O2-  O480  1  0.14665420  0.07773110  0.29887078  1
  O2-  O481  1  0.13751450  0.04939558  0.64280127  1
  O2-  O482  1  0.19086105  0.00893401  0.98145051  1
  O2-  O483  1  0.18450821  0.33386445  0.31788535  1
  O2-  O484  1  0.18329474  0.31629511  0.63319406  1
  O2-  O485  1  0.20663641  0.40966844  0.97954501  1
  O2-  O486  1  0.16129447  0.59036786  0.32958342  1
  O2-  O487  1  0.14097460  0.56425878  0.65850124  1
  O2-  O488  1  0.13273219  0.57951349  0.98844258  1
  O2-  O489  1  0.18201333  0.84734587  0.31802012  1
  O2-  O490  1  0.18034801  0.83394085  0.64794211  1
  O2-  O491  1  0.21143586  0.87410816  0.96085716  1
  O2-  O492  1  0.42234839  0.08742015  0.31440627  1
  O2-  O493  1  0.43195496  0.05006570  0.63635930  1
  O2-  O494  1  0.44357306  0.08593601  0.95505310  1
  O2-  O495  1  0.42633163  0.34672346  0.30777524  1
  O2-  O496  1  0.39655992  0.29108558  0.64688159  1
  O2-  O497  1  0.41211826  0.32140448  0.98333500  1
  O2-  O498  1  0.41552550  0.59071545  0.31225628  1
  O2-  O499  1  0.45823866  0.53499978  0.62325685  1
  O2-  O500  1  0.43692601  0.57729306  0.96916674  1
  O2-  O501  1  0.42354765  0.83057422  0.31184176  1
  O2-  O502  1  0.40823656  0.88684841  0.62673654  1
  O2-  O503  1  0.43182497  0.75145274  0.99747690  1
  O2-  O504  1  0.66781984  0.08623136  0.31476117  1
  O2-  O505  1  0.66021912  0.07489361  0.65234134  1
  O2-  O506  1  0.66539228  0.06114695  0.96624358  1
  O2-  O507  1  0.65390483  0.31561597  0.31998381  1
  O2-  O508  1  0.64625395  0.29829062  0.67180445  1
  O2-  O509  1  0.66275701  0.33224612  0.96651430  1
  O2-  O510  1  0.66208774  0.59063009  0.30508920  1
  O2-  O511  1  0.70540976  0.65430956  0.61713767  1
  O2-  O512  1  0.66220466  0.56015879  0.97095949  1
  O2-  O513  1  0.65586181  0.82739854  0.31933387  1
  O2-  O514  1  0.64135319  0.83165842  0.63348121  1
  O2-  O515  1  0.67060830  0.82502081  0.99892719  1
  O2-  O516  1  0.91079443  0.09155795  0.31868846  1
  O2-  O517  1  0.91264476  0.08311223  0.64128595  1
  O2-  O518  1  0.92443647  0.10174627  0.99548804  1
  O2-  O519  1  0.91091241  0.34067436  0.32122784  1
  O2-  O520  1  0.88838709  0.32892114  0.64848141  1
  O2-  O521  1  0.90267848  0.32923041  0.98237792  1
  O2-  O522  1  0.92126181  0.59484621  0.32639020  1
  O2-  O523  1  0.90519029  0.58199159  0.64162017  1
  O2-  O524  1  0.89301579  0.60315389  0.97126904  1
  O2-  O525  1  0.88458273  0.82571271  0.31665536  1
  O2-  O526  1  0.91378165  0.84531130  0.63130162  1
  O2-  O527  1  0.91487435  0.83085307  0.98168696  1
  O2-  O528  1  0.07884657  0.20940113  0.04867294  1
  O2-  O529  1  0.07708372  0.16712871  0.35217510  1
  O2-  O530  1  0.07830679  0.14423191  0.67178445  1
  O2-  O531  1  0.08822797  0.42616033  0.03406588  1
  O2-  O532  1  0.07146693  0.42448982  0.37734151  1
  O2-  O533  1  0.03631332  0.40575583  0.70824765  1
  O2-  O534  1  0.07943929  0.70007483  -0.02120288  1
  O2-  O535  1  0.08659537  0.67885978  0.36828406  1
  O2-  O536  1  0.07688237  0.67041758  0.68129613  1
  O2-  O537  1  0.06416114  0.89440961  0.05276847  1
  O2-  O538  1  0.05676156  0.89542127  0.35467283  1
  O2-  O539  1  0.09395977  0.90815110  0.69208922  1
  O2-  O540  1  0.34283820  0.15164114  0.01925636  1
  O2-  O541  1  0.29011442  0.11356116  0.35874052  1
  O2-  O542  1  0.30166067  0.13916172  0.69800917  1
  O2-  O543  1  0.34758188  0.41810070  0.02281703  1
  O2-  O544  1  0.33881822  0.42806909  0.35146298  1
  O2-  O545  1  0.33521679  0.39443799  0.68428104  1
  O2-  O546  1  0.38694034  0.78967594  -0.03580397  1
  O2-  O547  1  0.33131967  0.66841495  0.35606721  1
  O2-  O548  1  0.29417797  0.67067154  0.70732715  1
  O2-  O549  1  0.36915047  0.93075161  0.00902592  1
  O2-  O550  1  0.35111018  0.92167639  0.34610740  1
  O2-  O551  1  0.25902966  0.85132715  0.68046272  1
  O2-  O552  1  0.60177310  0.14800347  -0.06915798  1
  O2-  O553  1  0.57920283  0.16758863  0.35729546  1
  O2-  O554  1  0.58444157  0.14765514  0.71564267  1
  O2-  O555  1  0.57843509  0.40164210  0.02200055  1
  O2-  O556  1  0.57570813  0.38411746  0.37659400  1
  O2-  O557  1  0.56575718  0.38843071  0.68292443  1
  O2-  O558  1  0.59694209  0.65566450  0.01857571  1
  O2-  O559  1  0.58460863  0.66756657  0.34968886  1
  O2-  O560  1  0.58606719  0.67665130  0.68159026  1
  O2-  O561  1  0.57611230  0.90243245  0.01718678  1
  O2-  O562  1  0.58047197  0.92033078  0.35747134  1
  O2-  O563  1  0.56053054  0.91118830  0.68116347  1
  O2-  O564  1  0.82289625  0.16817699  0.02624899  1
  O2-  O565  1  0.82925956  0.17444469  0.35913724  1
  O2-  O566  1  0.80364248  0.10701756  0.70419631  1
  O2-  O567  1  0.83531448  0.42735589  0.00544103  1
  O2-  O568  1  0.84838360  0.43622538  0.36681324  1
  O2-  O569  1  0.82191678  0.41680044  0.68545108  1
  O2-  O570  1  0.80661622  0.67977988  0.02579157  1
  O2-  O571  1  0.82055839  0.66612637  0.36212694  1
  O2-  O572  1  0.84151014  0.68028604  0.67809382  1
  O2-  O573  1  0.84676210  0.92630589  0.01835069  1
  O2-  O574  1  0.82237416  0.92644729  0.35998321  1
  O2-  O575  1  0.80293292  0.90483893  0.66881213  1
