# generated using pymatgen
data_H2O
_symmetry_space_group_name_H-M   'P 1'
_cell_length_a   18.00278727
_cell_length_b   18.00584546
_cell_length_c   22.01917398
_cell_angle_alpha   90.00368805
_cell_angle_beta   90.00520370
_cell_angle_gamma   120.00365838
_symmetry_Int_Tables_number   1
_chemical_formula_structural   H2O
_chemical_formula_sum   'H384 O192'
_cell_volume   6181.14464003
_cell_formula_units_Z   192
loop_
 _symmetry_equiv_pos_site_id
 _symmetry_equiv_pos_as_xyz
  1  'x, y, z'
loop_
 _atom_type_symbol
 _atom_type_oxidation_number
  H+  1.0
  O2-  -2.0
loop_
 _atom_site_type_symbol
 _atom_site_label
 _atom_site_symmetry_multiplicity
 _atom_site_fract_x
 _atom_site_fract_y
 _atom_site_fract_z
 _atom_site_occupancy
  H+  H0  1  0.89107775  0.11568936  0.99228231  1
  H+  H1  1  0.89719290  0.87027244  0.17210767  1
  H+  H2  1  0.35155501  0.28893932  0.84283805  1
  H+  H3  1  0.03387641  0.38609813  0.16380192  1
  H+  H4  1  0.97155628  0.36543284  0.66541040  1
  H+  H5  1  0.03078677  0.96679053  0.46134714  1
  H+  H6  1  0.38783185  0.98683559  0.45546855  1
  H+  H7  1  0.61524731  0.72892549  0.20031013  1
  H+  H8  1  0.35937540  0.63631628  0.49664228  1
  H+  H9  1  1.02328906  0.89313719  0.33145296  1
  H+  H10  1  0.51980925  0.87735346  0.50058474  1
  H+  H11  1  0.63777574  0.51847711  0.98566112  1
  H+  H12  1  0.87273348  0.43259324  0.36042380  1
  H+  H13  1  0.62548804  0.73064449  0.33886796  1
  H+  H14  1  0.63388878  0.60115739  0.50585407  1
  H+  H15  1  0.88125099  0.54600943  0.31236920  1
  H+  H16  1  0.21339782  0.10500285  0.67380329  1
  H+  H17  1  0.89650532  0.52617385  0.99589753  1
  H+  H18  1  0.72823735  0.60487625  0.98197581  1
  H+  H19  1  0.09362070  0.26868126  0.64885641  1
  H+  H20  1  0.46300767  0.59159410  0.66074628  1
  H+  H21  1  0.51490311  0.17688366  0.65171330  1
  H+  H22  1  0.61065294  0.62517797  0.82136444  1
  H+  H23  1  1.01280572  0.82988359  0.67708437  1
  H+  H24  1  0.10301259  0.39162386  0.48686163  1
  H+  H25  1  0.76096031  0.63354269  0.34171524  1
  H+  H26  1  0.64589196  0.27426104  -0.00312109  1
  H+  H27  1  0.13161242  0.48980080  0.83227494  1
  H+  H28  1  0.63550765  0.39498066  0.68707223  1
  H+  H29  1  0.13803560  0.52358380  0.31511092  1
  H+  H30  1  0.74124717  0.34671273  0.49996864  1
  H+  H31  1  0.28790760  0.14144091  0.49671833  1
  H+  H32  1  0.13349725  0.34418234  0.99770452  1
  H+  H33  1  0.52846972  0.38557577  0.00637369  1
  H+  H34  1  0.85751682  0.63976512  0.49636572  1
  H+  H35  1  0.88783938  0.92609943  0.33257524  1
  H+  H36  1  0.05653265  0.44525390  0.74210467  1
  H+  H37  1  0.13334662  0.35450580  0.17766944  1
  H+  H38  1  0.61055763  0.88244659  0.49475382  1
  H+  H39  1  0.53622012  0.64383998  0.49490787  1
  H+  H40  1  0.78937165  0.14014314  1.00626143  1
  H+  H41  1  0.63114779  0.84684586  0.65476977  1
  H+  H42  1  0.65509764  0.78502842  0.98399302  1
  H+  H43  1  0.61752107  0.97427700  0.68578961  1
  H+  H44  1  0.27478541  0.40037065  0.82986147  1
  H+  H45  1  0.86048716  0.72644346  0.65734327  1
  H+  H46  1  0.64986891  0.02430215  0.99552594  1
  H+  H47  1  0.37587311  0.14657754  0.50452927  1
  H+  H48  1  0.15568561  0.11262628  0.51975130  1
  H+  H49  1  0.36804901  0.23188737  0.01457968  1
  H+  H50  1  0.55641725  0.17090039  0.77351540  1
  H+  H51  1  0.34830458  0.93197179  0.29421318  1
  H+  H52  1  1.01406797  0.13792417  0.67034283  1
  H+  H53  1  0.18434073  0.59095511  0.93801759  1
  H+  H54  1  0.23608563  0.62586712  0.00142476  1
  H+  H55  1  0.38714735  0.85144044  0.52728775  1
  H+  H56  1  0.72614842  0.61627355  0.65402845  1
  H+  H57  1  0.10338644  0.96467165  0.00043438  1
  H+  H58  1  0.14548891  0.02240932  0.50684989  1
  H+  H59  1  0.59098527  0.92107330  0.06206692  1
  H+  H60  1  0.01842896  0.62613999  0.83456977  1
  H+  H61  1  0.06416991  0.18210294  1.04903290  1
  H+  H62  1  0.75780261  0.62050319  0.49246234  1
  H+  H63  1  0.91832122  0.03309010  0.83701396  1
  H+  H64  1  0.87349735  0.89148206  0.99556658  1
  H+  H65  1  0.59392376  0.87135212  0.83083089  1
  H+  H66  1  0.53047319  0.38883783  0.16305764  1
  H+  H67  1  0.57885900  0.40509751  0.43314658  1
  H+  H68  1  0.88365908  0.77183494  0.99780913  1
  H+  H69  1  0.74920836  0.95467607  0.20304871  1
  H+  H70  1  0.37426994  0.08265198  0.85154935  1
  H+  H71  1  0.25393804  0.40620559  0.15990804  1
  H+  H72  1  0.27499638  0.14878888  0.32430060  1
  H+  H73  1  0.36988006  0.13779313  0.01772815  1
  H+  H74  1  0.62258232  0.34432976  0.49717198  1
  H+  H75  1  0.65283572  0.90040014  0.18046541  1
  H+  H76  1  0.54527138  0.14878224  0.33416521  1
  H+  H77  1  0.90451924  0.86440788  0.65038628  1
  H+  H78  1  0.34865406  0.38059320  0.49937535  1
  H+  H79  1  0.84657260  0.35797608  0.50790960  1
  H+  H80  1  0.61261994  0.46235384  0.49334367  1
  H+  H81  1  0.61040627  0.24608337  0.16191712  1
  H+  H82  1  0.35370514  0.71980929  0.49739323  1
  H+  H83  1  0.36749080  0.15498683  0.68089313  1
  H+  H84  1  0.21799578  0.60904451  0.50789168  1
  H+  H85  1  0.05040710  0.14355274  0.83074495  1
  H+  H86  1  0.36945638  0.73784712  0.32652525  1
  H+  H87  1  -0.04499973  0.84892906  0.48986838  1
  H+  H88  1  0.61755858  0.13631717  0.75734016  1
  H+  H89  1  0.62460395  1.00925595  0.51132096  1
  H+  H90  1  0.65216814  0.12526211  0.17637550  1
  H+  H91  1  0.38785434  0.28024240  0.32020112  1
  H+  H92  1  0.41208638  0.06134195  0.35374005  1
  H+  H93  1  0.09870061  0.41620532  0.10780397  1
  H+  H94  1  0.52989100  0.13372234  0.00875804  1
  H+  H95  1  0.12852217  0.76270863  0.84770537  1
  H+  H96  1  0.96660348  0.36181470  0.50265404  1
  H+  H97  1  0.27084832  0.88789162  0.66003167  1
  H+  H98  1  0.04914641  0.39581674  0.01631908  1
  H+  H99  1  0.64602311  0.27587398  0.84075165  1
  H+  H100  1  0.17028351  0.64498554  0.16846199  1
  H+  H101  1  0.90221440  0.62386329  0.16939142  1
  H+  H102  1  0.85355399  0.37818721  0.67425603  1
  H+  H103  1  0.64893647  0.52271260  0.66532471  1
  H+  H104  1  0.35798270  -0.03977355  0.17241258  1
  H+  H105  1  0.60667064  0.96628819  0.83614725  1
  H+  H106  1  0.34413248  0.01354727  0.54612966  1
  H+  H107  1  0.64288013  0.52389548  0.17986420  1
  H+  H108  1  0.10721148  0.88221573  0.33817677  1
  H+  H109  1  0.96142234  0.60578852  0.66871241  1
  H+  H110  1  0.87534593  0.48406953  0.16732801  1
  H+  H111  1  0.27459169  0.38209531  0.33853824  1
  H+  H112  1  0.84215763  0.12711954  0.50335154  1
  H+  H113  1  0.07180664  0.92658855  0.41817795  1
  H+  H114  1  0.76678671  0.62804573  0.82944826  1
  H+  H115  1  0.86541619  0.62254749  0.00808567  1
  H+  H116  1  0.90070684  0.85847956  0.84034729  1
  H+  H117  1  0.97686262  0.62276734  0.32725630  1
  H+  H118  1  0.37133392  0.66427884  0.04010509  1
  H+  H119  1  0.36657195  0.22759706  0.16454686  1
  H+  H120  1  0.36464521  0.89514541  0.01504862  1
  H+  H121  1  0.88690640  1.02043856  0.66072897  1
  H+  H122  1  0.36760834  0.19141844  0.84576907  1
  H+  H123  1  0.36600594  0.15705184  0.33803142  1
  H+  H124  1  0.39200146  0.53668339  0.99758234  1
  H+  H125  1  0.50465150  0.37967335  0.83379869  1
  H+  H126  1  0.67255463  0.08002275  0.23424147  1
  H+  H127  1  0.89492097  0.78185011  0.18149945  1
  H+  H128  1  0.63286904  0.51442489  0.83385303  1
  H+  H129  1  0.62208796  0.88960926  0.34290222  1
  H+  H130  1  0.10350343  0.14119241  0.67027016  1
  H+  H131  1  0.13699287  0.86007975  0.99377873  1
  H+  H132  1  0.38936086  0.77752036  0.84942449  1
  H+  H133  1  0.35643100  0.38444486  0.67126593  1
  H+  H134  1  0.10847334  0.21496002  0.33391027  1
  H+  H135  1  0.77235111  0.11424830  0.82257775  1
  H+  H136  1  0.12159489  0.76061565  0.33063648  1
  H+  H137  1  0.26319392  0.91359825  0.50324437  1
  H+  H138  1  0.85681957  0.88698842  0.48513226  1
  H+  H139  1  0.32260883  0.40726184  0.43843212  1
  H+  H140  1  0.36803756  0.54546171  0.18257439  1
  H+  H141  1  0.36250015  0.47324297  0.34323157  1
  H+  H142  1  0.15316536  0.03039606  0.16299325  1
  H+  H143  1  0.14123761  0.02364124  0.31593120  1
  H+  H144  1  0.02875171  0.87705302  0.82781427  1
  H+  H145  1  0.34578629  0.94928579  0.82703881  1
  H+  H146  1  0.87256852  0.39418595  1.01761903  1
  H+  H147  1  0.20932926  0.61450324  0.65835089  1
  H+  H148  1  0.47455342  0.69161964  0.55016962  1
  H+  H149  1  0.93768286  0.60474760  0.22834838  1
  H+  H150  1  0.59324598  0.66696269  0.43409774  1
  H+  H151  1  0.65162857  0.37637582  0.17753870  1
  H+  H152  1  0.50477199  0.11672036  0.51331664  1
  H+  H153  1  0.64462100  0.61952534  0.33180130  1
  H+  H154  1  0.78130946  0.64152082  0.16844390  1
  H+  H155  1  0.42521233  0.59701359  0.57231428  1
  H+  H156  1  0.20109135  0.95357724  0.62143503  1
  H+  H157  1  0.64119313  0.61155566  0.18830154  1
  H+  H158  1  0.13756083  0.89254514  0.15689056  1
  H+  H159  1  0.21496227  0.36593093  0.50343054  1
  H+  H160  1  0.62972197  0.64212178  0.98787801  1
  H+  H161  1  0.64846796  0.11052950  0.31484725  1
  H+  H162  1  0.16417865  0.06803920  0.93167235  1
  H+  H163  1  0.37874848  0.84221942  0.18011351  1
  H+  H164  1  0.10344766  0.62600622  0.33396610  1
  H+  H165  1  0.26952252  0.11325753  0.83605790  1
  H+  H166  1  0.28633102  0.40191274  0.00374505  1
  H+  H167  1  0.47133967  0.85275371  0.18003403  1
  H+  H168  1  0.31367544  0.67852898  0.08824267  1
  H+  H169  1  0.86383850  0.64727914  0.34228313  1
  H+  H170  1  0.37147380  0.50104314  0.65827867  1
  H+  H171  1  0.13913450  0.48069402  1.01005458  1
  H+  H172  1  0.37748380  0.10113664  0.18459717  1
  H+  H173  1  0.89419096  0.27460448  0.17019730  1
  H+  H174  1  0.76740501  0.87189655  0.67487390  1
  H+  H175  1  0.01468958  0.62859913  0.49034824  1
  H+  H176  1  0.06689719  0.50323249  0.68561689  1
  H+  H177  1  0.39080395  0.78842590  1.00969026  1
  H+  H178  1  0.64932520  0.11313467  0.99574766  1
  H+  H179  1  0.37890779  0.38425378  0.84695328  1
  H+  H180  1  0.45222564  0.09124597  0.68574470  1
  H+  H181  1  0.36672374  0.82163757  0.66752444  1
  H+  H182  1  0.91884229  0.60714699  0.57540992  1
  H+  H183  1  0.14388815  0.61812285  0.84537677  1
  H+  H184  1  0.36930370  0.73540316  0.66690963  1
  H+  H185  1  0.87098144  1.01082138  0.17702130  1
  H+  H186  1  0.45825451  0.07496406  0.85976741  1
  H+  H187  1  0.48715305  0.86958425  0.85066087  1
  H+  H188  1  0.89858071  0.10950381  0.83386021  1
  H+  H189  1  0.27277817  0.88940239  1.01337303  1
  H+  H190  1  0.14209354  1.01515318  0.83525553  1
  H+  H191  1  0.39361497  0.37215131  0.32242022  1
  H+  H192  1  0.90575574  0.28290704  1.00387340  1
  H+  H193  1  0.61322498  0.24805261  0.50021841  1
  H+  H194  1  0.38623103  0.36120228  0.00485808  1
  H+  H195  1  0.28135339  0.88406249  0.50802714  1
  H+  H196  1  0.33642148  0.57014658  0.96926446  1
  H+  H197  1  1.04107362  0.40592798  0.83500326  1
  H+  H198  1  0.11845131  0.63773304  -0.00098319  1
  H+  H199  1  0.15039743  0.10999940  0.84014926  1
  H+  H200  1  0.74088411  0.46403547  0.76650618  1
  H+  H201  1  0.78516154  0.89506475  0.99330477  1
  H+  H202  1  0.40329871  0.32948706  0.94172212  1
  H+  H203  1  0.03653884  0.61902388  0.15289824  1
  H+  H204  1  0.35033471  0.60131946  0.67586287  1
  H+  H205  1  0.58926977  0.37069041  0.83984155  1
  H+  H206  1  0.48356299  0.87176832  0.99948854  1
  H+  H207  1  0.27238597  0.13889012  0.16063208  1
  H+  H208  1  0.64746692  0.10635791  0.84774640  1
  H+  H209  1  0.37694713  0.65374397  0.83214158  1
  H+  H210  1  0.87590446  0.02314010  0.50926384  1
  H+  H211  1  0.90306355  0.21596612  0.35219634  1
  H+  H212  1  0.16603468  0.32236663  0.26889399  1
  H+  H213  1  0.13851013  0.22940524  0.82781013  1
  H+  H214  1  0.07560775  0.65863214  0.77529574  1
  H+  H215  1  0.84747527  0.92105389  0.08770969  1
  H+  H216  1  0.20982118  0.09913020  0.99572399  1
  H+  H217  1  0.84227916  0.93601306  0.42921705  1
  H+  H218  1  0.11936799  0.72779755  1.00216815  1
  H+  H219  1  0.13773362  0.35564180  0.32662000  1
  H+  H220  1  0.09465438  0.71683020  0.48720498  1
  H+  H221  1  0.97868907  0.69529131  0.54132128  1
  H+  H222  1  0.89599273  0.36433984  0.17659384  1
  H+  H223  1  0.38620796  0.27535212  0.51095330  1
  H+  H224  1  0.48169613  0.61886602  0.83806045  1
  H+  H225  1  0.88798795  0.07951465  0.34678540  1
  H+  H226  1  0.38194709  0.02428228  1.01227723  1
  H+  H227  1  0.09850389  0.47721626  0.48827834  1
  H+  H228  1  0.95532037  0.11853942  0.50543635  1
  H+  H229  1  0.89111045  0.01969670  0.98770003  1
  H+  H230  1  0.39414524  0.36003799  0.17495871  1
  H+  H231  1  0.21859722  0.84917154  0.83976156  1
  H+  H232  1  0.08351399  0.90889342  0.06083270  1
  H+  H233  1  0.03004058  0.38353243  0.33144580  1
  H+  H234  1  0.60737040  0.61462366  0.66804220  1
  H+  H235  1  0.78589615  0.88996655  0.14519420  1
  H+  H236  1  0.72836939  0.86835403  0.49871777  1
  H+  H237  1  0.97711988  0.85633174  0.99558207  1
  H+  H238  1  0.45963566  0.62879334  0.19137219  1
  H+  H239  1  0.07461887  0.72726145  0.69282415  1
  H+  H240  1  0.85991648  0.20008200  0.81582210  1
  H+  H241  1  1.00418703  0.30854250  0.63386804  1
  H+  H242  1  0.84783752  0.16507758  0.06618625  1
  H+  H243  1  0.10373074  0.65679713  0.67512283  1
  H+  H244  1  0.75549315  0.12929458  0.65688546  1
  H+  H245  1  0.60570468  0.99769230  0.15580216  1
  H+  H246  1  0.36341122  0.49221478  0.82844050  1
  H+  H247  1  0.07608694  0.84046442  0.50649901  1
  H+  H248  1  0.21216199  0.84710190  0.32855372  1
  H+  H249  1  0.86587390  0.52603877  0.83730815  1
  H+  H250  1  0.23851529  0.62874946  0.84352320  1
  H+  H251  1  0.81683667  0.90895800  0.83366153  1
  H+  H252  1  0.48113029  1.04608914  0.43236006  1
  H+  H253  1  0.87461593  0.51639449  0.65754460  1
  H+  H254  1  0.78209710  0.39110985  0.01203995  1
  H+  H255  1  0.37108001  0.94301188  0.66642853  1
  H+  H256  1  0.37668595  0.27918216  0.66531950  1
  H+  H257  1  0.13844023  0.87004205  0.65793239  1
  H+  H258  1  0.61941487  0.75262997  0.83318023  1
  H+  H259  1  0.05980495  0.17321962  0.42457948  1
  H+  H260  1  0.61254628  0.47291361  0.34353037  1
  H+  H261  1  0.32858234  0.41936688  0.72889298  1
  H+  H262  1  0.11813981  0.28656607  0.49471439  1
  H+  H263  1  0.60162243  0.69977647  0.66467899  1
  H+  H264  1  0.62287066  0.88912059  1.00320178  1
  H+  H265  1  0.14115436  0.15075910  0.13745371  1
  H+  H266  1  0.25979245  0.48396390  0.12522028  1
  H+  H267  1  0.14227457  0.36745178  0.83777432  1
  H+  H268  1  0.84440261  0.21674073  0.50154995  1
  H+  H269  1  0.15232264  0.27623987  0.16681035  1
  H+  H270  1  0.86205920  0.72533753  0.83552696  1
  H+  H271  1  0.92494011  0.40033222  0.80466317  1
  H+  H272  1  0.13120511  0.61294226  0.50351710  1
  H+  H273  1  0.78617022  0.58079956  0.05094455  1
  H+  H274  1  0.88428937  0.79820330  0.32744097  1
  H+  H275  1  0.88218611  0.32492037  0.32887987  1
  H+  H276  1  0.64719639  0.36912020  0.33112740  1
  H+  H277  1  0.18190046  0.60138279  0.26481144  1
  H+  H278  1  0.21277629  0.84230619  0.18244452  1
  H+  H279  1  0.64238062  0.01812819  0.31669276  1
  H+  H280  1  0.85800337  0.13140399  0.16349599  1
  H+  H281  1  0.53353671  0.64196938  0.34108119  1
  H+  H282  1  0.47135529  0.36464020  0.51020842  1
  H+  H283  1  -0.01516124  0.61701171  -0.01042150  1
  H+  H284  1  0.39147524  0.61006382  0.34258921  1
  H+  H285  1  0.68868223  0.84339147  0.81122912  1
  H+  H286  1  0.77165944  0.36818383  0.34748280  1
  H+  H287  1  0.71091265  0.10268843  0.50682755  1
  H+  H288  1  0.32334721  0.65838166  0.40481373  1
  H+  H289  1  0.16900426  0.08669834  0.22405415  1
  H+  H290  1  0.61766320  0.38542747  0.00662595  1
  H+  H291  1  0.13791362  0.11025043  0.31818225  1
  H+  H292  1  0.59129391  0.11471066  0.50398720  1
  H+  H293  1  0.85599983  0.16270349  0.41231561  1
  H+  H294  1  0.86372441  0.63124973  0.83742141  1
  H+  H295  1  0.36343211  0.92955840  0.36448456  1
  H+  H296  1  0.68322042  0.34664233  0.27106087  1
  H+  H297  1  0.68031897  0.85599070  0.59255983  1
  H+  H298  1  0.42520208  0.59835741  0.89957262  1
  H+  H299  1  0.92222691  0.83248449  0.58762151  1
  H+  H300  1  0.08580711  0.42267179  0.39068272  1
  H+  H301  1  0.14895502  0.82460001  0.23690549  1
  H+  H302  1  0.82307358  0.66069510  0.40913310  1
  H+  H303  1  0.81256433  0.37729574  0.44195038  1
  H+  H304  1  0.84244290  0.42459047  0.10874823  1
  H+  H305  1  0.92360579  0.08706569  0.92640423  1
  H+  H306  1  0.63618206  0.23073221  0.33375991  1
  H+  H307  1  0.91920111  0.82274593  0.90255274  1
  H+  H308  1  0.12002436  0.82862173  0.56457147  1
  H+  H309  1  0.16026515  0.07008501  0.61421025  1
  H+  H310  1  0.84028545  0.67706232  0.10948806  1
  H+  H311  1  -0.00752869  0.20071990  0.43314766  1
  H+  H312  1  0.82194893  0.16929952  0.72361688  1
  H+  H313  1  0.64036297  0.23526249  0.69239716  1
  H+  H314  1  0.67793334  0.07765178  0.90609190  1
  H+  H315  1  0.40452246  0.80077422  0.25723155  1
  H+  H316  1  0.85078116  0.63538879  0.66922794  1
  H+  H317  1  0.19604427  0.96245178  0.10959349  1
  H+  H318  1  0.17281776  0.83350907  0.93640505  1
  H+  H319  1  0.32941289  0.16414391  0.74239400  1
  H+  H320  1  0.42014157  0.83503508  0.91553603  1
  H+  H321  1  0.73889431  0.37185813  0.17723558  1
  H+  H322  1  0.78922701  0.80523384  0.70313272  1
  H+  H323  1  0.60306011  0.42276789  0.74567893  1
  H+  H324  1  0.15234731  0.59199326  0.59906605  1
  H+  H325  1  0.02378429  0.11998173  0.33345106  1
  H+  H326  1  0.40974140  0.33547337  0.60522781  1
  H+  H327  1  0.31785817  0.63705307  0.18208984  1
  H+  H328  1  0.65186351  0.32184596  0.58973085  1
  H+  H329  1  0.71171943  0.37449540  0.83591701  1
  H+  H330  1  0.59009601  0.16989571  0.06563521  1
  H+  H331  1  0.66548436  0.57602490  0.89131873  1
  H+  H332  1  0.42340616  0.33618961  0.23723584  1
  H+  H333  1  0.41762096  0.08674942  0.28237898  1
  H+  H334  1  0.91889790  0.84925030  0.26367296  1
  H+  H335  1  0.41248848  0.08804682  0.58895148  1
  H+  H336  1  0.17225592  0.27991816  0.99665542  1
  H+  H337  1  0.34476325  0.68086057  0.77353282  1
  H+  H338  1  0.11770419  0.33006574  0.59082180  1
  H+  H339  1  0.26917756  0.56921822  0.71832572  1
  H+  H340  1  0.67409286  0.33421373  0.93863346  1
  H+  H341  1  0.32508095  0.43308820  0.06915731  1
  H+  H342  1  0.77819299  0.14145760  0.15515685  1
  H+  H343  1  0.92446806  0.32934746  0.56896207  1
  H+  H344  1  0.67682604  0.58548215  0.27417667  1
  H+  H345  1  0.52913135  0.21963367  0.12321363  1
  H+  H346  1  0.32840442  0.90495364  0.11201615  1
  H+  H347  1  0.07226503  0.65214522  0.39549919  1
  H+  H348  1  0.58646729  0.68524936  0.13796198  1
  H+  H349  1  0.85093050  0.91230227  0.76686104  1
  H+  H350  1  0.56749601  0.65728770  0.03044648  1
  H+  H351  1  0.64544903  0.77459868  0.50437055  1
  H+  H352  1  0.51990518  0.95754668  0.11857574  1
  H+  H353  1  0.67522999  0.84283092  0.92598463  1
  H+  H354  1  0.58664541  0.92088298  0.39631982  1
  H+  H355  1  0.31517248  0.89793143  0.76428927  1
  H+  H356  1  0.40630314  0.07559764  0.95036683  1
  H+  H357  1  0.46745467  0.10806489  0.18442919  1
  H+  H358  1  0.76449706  0.37358540  0.65950924  1
  H+  H359  1  0.67694874  0.06792313  0.59092188  1
  H+  H360  1  0.94148753  0.35393924  0.95255862  1
  H+  H361  1  0.58952475  0.42111059  0.10332708  1
  H+  H362  1  0.37006408  0.83123494  0.31836423  1
  H+  H363  1  0.86491720  0.76174024  0.49681528  1
  H+  H364  1  0.16329812  0.32790826  0.89603735  1
  H+  H365  1  0.80340480  0.43106129  0.75447918  1
  H+  H366  1  0.52370640  0.38489997  0.33685472  1
  H+  H367  1  0.06890316  0.85849004  0.73875462  1
  H+  H368  1  0.74343593  0.87745522  0.32914556  1
  H+  H369  1  0.11657658  0.87708729  0.82965340  1
  H+  H370  1  0.08905657  0.64478994  0.09136476  1
  H+  H371  1  0.26462645  0.62434210  0.34345356  1
  H+  H372  1  0.66133062  0.56859749  0.56529777  1
  H+  H373  1  0.41507282  0.58689076  0.28004783  1
  H+  H374  1  0.41193327  0.80911751  0.58086165  1
  H+  H375  1  0.87741356  0.33136002  0.85402607  1
  H+  H376  1  0.90154402  0.08100814  0.60615813  1
  H+  H377  1  0.86567480  0.23489363  0.66558488  1
  H+  H378  1  0.90780368  0.57592371  0.90210050  1
  H+  H379  1  0.57743738  0.65115042  0.76161935  1
  H+  H380  1  0.87639368  0.04642815  0.24440098  1
  H+  H381  1  0.68559964  0.85362190  0.27090230  1
  H+  H382  1  0.33914155  0.17243422  0.08378186  1
  H+  H383  1  0.92040573  0.31440626  0.26608172  1
  O2-  O384  1  0.14013401  0.19846586  0.11478951  1
  O2-  O385  1  0.03377149  0.19143241  0.45707736  1
  O2-  O386  1  0.11158193  0.16665608  0.82217786  1
  O2-  O387  1  0.09521462  0.41105445  0.15257204  1
  O2-  O388  1  0.06853160  0.41817845  0.47090634  1
  O2-  O389  1  0.09792424  0.43000975  0.81576978  1
  O2-  O390  1  0.08647153  0.62147248  0.13252049  1
  O2-  O391  1  0.07322716  0.65765850  0.47212161  1
  O2-  O392  1  0.07885035  0.65617767  0.82062689  1
  O2-  O393  1  0.14009096  0.93981445  0.12898028  1
  O2-  O394  1  0.05898287  0.93238961  0.46323513  1
  O2-  O395  1  0.08670248  0.90545588  0.80939387  1
  O2-  O396  1  0.33572665  0.16825422  0.14616789  1
  O2-  O397  1  0.34884352  0.17649297  0.48559854  1
  O2-  O398  1  0.33352099  0.13879314  0.82278443  1
  O2-  O399  1  0.29598605  0.45942517  0.13569674  1
  O2-  O400  1  0.31547769  0.40671565  0.48297289  1
  O2-  O401  1  0.33635306  0.43119570  0.81554300  1
  O2-  O402  1  0.26965214  0.62919012  0.15587359  1
  O2-  O403  1  0.32379698  0.66026458  0.48070862  1
  O2-  O404  1  0.34670605  0.68546282  0.81836173  1
  O2-  O405  1  0.33055124  0.90048369  0.15713968  1
  O2-  O406  1  0.42438342  0.99744824  0.41995938  1
  O2-  O407  1  0.31077322  0.89213996  0.80886241  1
  O2-  O408  1  0.56241627  0.19511398  0.13997120  1
  O2-  O409  1  0.55603003  0.13856884  0.48723232  1
  O2-  O410  1  0.61698944  0.18707295  0.77306142  1
  O2-  O411  1  0.59125103  0.42190808  0.14858219  1
  O2-  O412  1  0.58135523  0.40195747  0.47839075  1
  O2-  O413  1  0.56586272  0.40531627  0.82177034  1
  O2-  O414  1  0.58233411  0.67243171  0.18130164  1
  O2-  O415  1  0.59585822  0.66680896  0.47943818  1
  O2-  O416  1  0.57958481  0.65515840  0.80716933  1
  O2-  O417  1  0.56078629  0.94195311  0.13484858  1
  O2-  O418  1  0.57822596  0.91214997  0.48325070  1
  O2-  O419  1  0.56665663  0.90664121  0.82225337  1
  O2-  O420  1  0.83930844  0.16776830  0.14161171  1
  O2-  O421  1  0.81297624  0.15741228  0.48520101  1
  O2-  O422  1  0.82943193  0.14087583  0.80157570  1
  O2-  O423  1  0.84234159  0.42269389  0.15402988  1
  O2-  O424  1  0.80699401  0.37868285  0.48803687  1
  O2-  O425  1  0.78154659  0.45140653  0.78857014  1
  O2-  O426  1  0.84197627  0.67419511  0.15413683  1
  O2-  O427  1  0.81802832  0.65596740  0.47445011  1
  O2-  O428  1  0.83159884  0.66217802  0.82111971  1
  O2-  O429  1  0.84650371  0.91719653  0.13282265  1
  O2-  O430  1  0.83204791  0.92368695  0.47338862  1
  O2-  O431  1  0.86944138  0.92759471  0.81049611  1
  O2-  O432  1  0.17611993  0.09041594  0.17833685  1
  O2-  O433  1  0.18042890  0.07665376  0.52935629  1
  O2-  O434  1  0.17641311  0.07320238  0.85390793  1
  O2-  O435  1  0.17003589  0.32892982  0.19167602  1
  O2-  O436  1  0.15226322  0.34349968  0.51398021  1
  O2-  O437  1  0.17449304  0.33876089  0.85179369  1
  O2-  O438  1  0.22289678  0.65871199  0.19528758  1
  O2-  O439  1  0.15736492  0.58113428  0.52240396  1
  O2-  O440  1  0.17954114  0.59307737  0.86004691  1
  O2-  O441  1  0.15292230  0.82597281  0.19195025  1
  O2-  O442  1  0.07931321  0.79679283  0.53102869  1
  O2-  O443  1  0.16047530  0.82405545  0.86051569  1
  O2-  O444  1  0.40854699  0.07272810  0.20054350  1
  O2-  O445  1  0.39840765  0.06780568  0.54595827  1
  O2-  O446  1  0.39916926  0.05060733  0.87357853  1
  O2-  O447  1  0.42347388  0.33039544  0.18987051  1
  O2-  O448  1  0.41215923  0.33612523  0.52617743  1
  O2-  O449  1  0.39637130  0.34088881  0.86233219  1
  O2-  O450  1  0.39971872  0.60057196  0.20538050  1
  O2-  O451  1  0.44581185  0.63328283  0.53403079  1
  O2-  O452  1  0.42252861  0.59830525  0.85448132  1
  O2-  O453  1  0.41193667  0.81411223  0.19369497  1
  O2-  O454  1  0.41542491  0.81815241  0.53486276  1
  O2-  O455  1  0.42294539  0.83665966  0.86908771  1
  O2-  O456  1  0.67338750  0.08589125  0.18452291  1
  O2-  O457  1  0.65371206  0.06991330  0.52820998  1
  O2-  O458  1  0.67410122  0.07282005  0.85998659  1
  O2-  O459  1  0.67777485  0.34222608  0.19234244  1
  O2-  O460  1  0.64967741  0.30984127  0.51304555  1
  O2-  O461  1  0.66132129  0.33069580  0.86010325  1
  O2-  O462  1  0.67462031  0.58300298  0.19804094  1
  O2-  O463  1  0.66276639  0.56879589  0.51959823  1
  O2-  O464  1  0.66755349  0.57654570  0.84555094  1
  O2-  O465  1  0.69972665  0.89434423  0.19727309  1
  O2-  O466  1  0.67011194  0.83557539  0.51765449  1
  O2-  O467  1  0.64861652  0.81584961  0.84464706  1
  O2-  O468  1  0.85140408  0.04248102  0.20344078  1
  O2-  O469  1  0.89933317  0.08186055  0.52645915  1
  O2-  O470  1  0.93378670  0.08932888  0.85579414  1
  O2-  O471  1  0.92502259  0.33229347  0.18973789  1
  O2-  O472  1  0.90977431  0.33051962  0.52454882  1
  O2-  O473  1  0.92980854  0.38550630  0.84667966  1
  O2-  O474  1  0.93187969  0.59325623  0.18432000  1
  O2-  O475  1  0.93379577  0.63479651  0.53389316  1
  O2-  O476  1  0.90639438  0.58201261  0.85652004  1
  O2-  O477  1  0.92315227  0.84203197  0.19583946  1
  O2-  O478  1  0.89830390  0.82311964  0.51010172  1
  O2-  O479  1  0.91919163  0.81865743  0.85691455  1
  O2-  O480  1  0.16859383  0.08269432  0.29884178  1
  O2-  O481  1  0.15435598  0.06729828  0.65862299  1
  O2-  O482  1  0.15423554  0.06304666  0.97656459  1
  O2-  O483  1  0.16454256  0.32096806  0.31441153  1
  O2-  O484  1  0.09125645  0.31914351  0.63177244  1
  O2-  O485  1  0.14076411  0.30116368  0.97345409  1
  O2-  O486  1  0.16807453  0.58729579  0.30873159  1
  O2-  O487  1  0.15196165  0.60055221  0.64415927  1
  O2-  O488  1  0.17921952  0.58642995  0.98336022  1
  O2-  O489  1  0.15094282  0.82219173  0.31788782  1
  O2-  O490  1  0.18747973  0.89403439  0.62642497  1
  O2-  O491  1  0.17405779  0.83556154  0.98216964  1
  O2-  O492  1  0.43043471  0.10877527  0.32463385  1
  O2-  O493  1  0.45238636  0.13235303  0.65690085  1
  O2-  O494  1  0.41242215  0.08489887  0.99538609  1
  O2-  O495  1  0.42495728  0.34316582  0.30582931  1
  O2-  O496  1  0.40940686  0.33875145  0.65048950  1
  O2-  O497  1  0.41056192  0.32705330  0.98669968  1
  O2-  O498  1  0.42502752  0.58522589  0.32465420  1
  O2-  O499  1  0.40433763  0.56655582  0.64377315  1
  O2-  O500  1  0.39620027  0.58890560  0.97888940  1
  O2-  O501  1  0.39911900  0.79802463  0.30580634  1
  O2-  O502  1  0.40063069  0.79534183  0.65349759  1
  O2-  O503  1  0.42168924  0.84447107  0.98743222  1
  O2-  O504  1  0.67346838  0.07636261  0.29714283  1
  O2-  O505  1  0.69985811  0.06332087  0.63532485  1
  O2-  O506  1  0.68168860  0.08522234  0.98042401  1
  O2-  O507  1  0.68446598  0.34614692  0.31644714  1
  O2-  O508  1  0.65863915  0.32513126  0.63550130  1
  O2-  O509  1  0.67507785  0.33548013  0.98399509  1
  O2-  O510  1  0.67779761  0.58940540  0.31994662  1
  O2-  O511  1  0.66332084  0.57621581  0.64256289  1
  O2-  O512  1  0.66830732  0.57694846  0.96654138  1
  O2-  O513  1  0.68462711  0.83798575  0.31440793  1
  O2-  O514  1  0.68805395  0.86965708  0.63727471  1
  O2-  O515  1  0.68188037  0.84683098  0.97068091  1
  O2-  O516  1  0.90458535  0.04246869  0.32172709  1
  O2-  O517  1  0.90067089  0.07868676  0.65135451  1
  O2-  O518  1  0.91943200  0.08320034  0.97325861  1
  O2-  O519  1  0.92305468  0.30945861  0.31149763  1
  O2-  O520  1  0.94805282  0.31349880  0.63835647  1
  O2-  O521  1  0.93573378  0.34608342  0.99649148  1
  O2-  O522  1  0.91780877  0.60813058  0.31028493  1
  O2-  O523  1  0.90419487  0.57860678  0.64818624  1
  O2-  O524  1  0.92188701  0.58474498  0.97734257  1
  O2-  O525  1  0.92033546  0.85589943  0.31087373  1
  O2-  O526  1  0.93115896  0.83333246  0.63241385  1
  O2-  O527  1  0.91553773  0.82832895  0.97876305  1
  O2-  O528  1  0.05221631  0.15529529  0.08929756  1
  O2-  O529  1  0.08268393  0.15435014  0.34950740  1
  O2-  O530  1  0.07592122  0.17552923  0.67889002  1
  O2-  O531  1  0.11098473  0.42043017  0.02563681  1
  O2-  O532  1  0.09042820  0.42058250  0.34549492  1
  O2-  O533  1  0.02341139  0.45463954  0.71004356  1
  O2-  O534  1  0.08513291  0.66535656  0.01258950  1
  O2-  O535  1  0.07047619  0.65349892  0.34994950  1
  O2-  O536  1  0.06316535  0.66811648  0.69889465  1
  O2-  O537  1  0.07290139  0.90328069  0.01608165  1
  O2-  O538  1  0.08276837  0.91986577  0.34899326  1
  O2-  O539  1  0.05939762  0.82690033  0.69916852  1
  O2-  O540  1  0.34118623  0.17169870  0.03362448  1
  O2-  O541  1  0.33341400  0.18768537  0.34021959  1
  O2-  O542  1  0.32580442  0.16955662  0.69797868  1
  O2-  O543  1  0.34025332  0.42497680  0.02638026  1
  O2-  O544  1  0.33475130  0.41137134  0.35396370  1
  O2-  O545  1  0.32606895  0.41673114  0.68424779  1
  O2-  O546  1  0.33600639  0.69129555  0.04535558  1
  O2-  O547  1  0.32526653  0.65433407  0.35925446  1
  O2-  O548  1  0.31203538  0.62100417  0.69755129  1
  O2-  O549  1  0.33179930  0.92123752  0.03237660  1
  O2-  O550  1  0.32960079  0.89337266  0.32916342  1
  O2-  O551  1  0.32162565  0.89052141  0.68111066  1
  O2-  O552  1  0.59135248  0.16318057  0.02092286  1
  O2-  O553  1  0.60630122  0.16867884  0.34220435  1
  O2-  O554  1  0.62272231  0.23284242  0.64938195  1
  O2-  O555  1  0.58894219  0.41810355  0.02027183  1
  O2-  O556  1  0.58349520  0.41154270  0.35451663  1
  O2-  O557  1  0.64764236  0.44404204  0.71344830  1
  O2-  O558  1  0.60786938  0.68212340  -0.00292489  1
  O2-  O559  1  0.59552615  0.67003054  0.35364347  1
  O2-  O560  1  0.57464258  0.64367108  0.68427255  1
  O2-  O561  1  0.59202801  0.91964188  0.01687989  1
  O2-  O562  1  0.59186401  0.92135889  0.35173788  1
  O2-  O563  1  0.62672534  1.03229075  0.67843575  1
  O2-  O564  1  0.85042203  0.16758282  0.02008989  1
  O2-  O565  1  0.89669252  0.16890247  0.37935547  1
  O2-  O566  1  0.80887791  0.19135104  0.68616826  1
  O2-  O567  1  0.84159449  0.42513381  0.02854626  1
  O2-  O568  1  0.82507766  0.37588127  0.37010986  1
  O2-  O569  1  0.82070670  0.40714580  0.68095650  1
  O2-  O570  1  0.82069105  0.63372738  0.02801974  1
  O2-  O571  1  0.82583861  0.66838712  0.36088879  1
  O2-  O572  1  0.82264875  0.67005367  0.67655470  1
  O2-  O573  1  0.84648140  0.92648752  0.00794201  1
  O2-  O574  1  0.85810519  0.95663163  0.34995664  1
  O2-  O575  1  0.81381769  0.86703012  0.69764131  1
