# generated using pymatgen
data_H2O
_symmetry_space_group_name_H-M   'P 1'
_cell_length_a   17.98435056
_cell_length_b   17.98013257
_cell_length_c   21.98573460
_cell_angle_alpha   90.03368383
_cell_angle_beta   89.98019311
_cell_angle_gamma   120.00436251
_symmetry_Int_Tables_number   1
_chemical_formula_structural   H2O
_chemical_formula_sum   'H384 O192'
_cell_volume   6156.58801597
_cell_formula_units_Z   192
loop_
 _symmetry_equiv_pos_site_id
 _symmetry_equiv_pos_as_xyz
  1  'x, y, z'
loop_
 _atom_type_symbol
 _atom_type_oxidation_number
  H+  1.0
  O2-  -2.0
loop_
 _atom_site_type_symbol
 _atom_site_label
 _atom_site_symmetry_multiplicity
 _atom_site_fract_x
 _atom_site_fract_y
 _atom_site_fract_z
 _atom_site_occupancy
  H+  H0  1  0.31899359  0.15475449  0.06916404  1
  H+  H1  1  0.60595493  0.12789534  0.48726790  1
  H+  H2  1  0.89965885  0.27623161  0.81807894  1
  H+  H3  1  0.60922104  0.22017615  0.15925774  1
  H+  H4  1  0.36072149  0.38266429  0.50426162  1
  H+  H5  1  0.61470774  0.98168184  0.15463669  1
  H+  H6  1  0.88745433  0.01853353  0.98979162  1
  H+  H7  1  0.14722799  0.11660233  0.83432857  1
  H+  H8  1  0.53139953  0.63618588  0.49452402  1
  H+  H9  1  0.57881515  0.40410559  0.40832554  1
  H+  H10  1  0.72536884  0.11010937  0.65308336  1
  H+  H11  1  0.10495195  0.59681374  0.32626025  1
  H+  H12  1  0.33708505  0.41878468  0.17185079  1
  H+  H13  1  0.53198929  0.64408368  0.82716431  1
  H+  H14  1  0.63606319  0.61363967  0.85201499  1
  H+  H15  1  0.62444497  0.11044541  0.32288218  1
  H+  H16  1  0.85662815  0.13024764  0.15920362  1
  H+  H17  1  0.02558316  0.40424524  0.50256216  1
  H+  H18  1  0.58970249  0.66359131  0.43374879  1
  H+  H19  1  0.62851808  0.35278195  0.17663451  1
  H+  H20  1  0.22687515  0.11794903  0.32396845  1
  H+  H21  1  0.93310318  0.10955172  0.43611549  1
  H+  H22  1  0.36543256  0.84505752  0.50776166  1
  H+  H23  1  0.00218332  0.35951442  0.34965797  1
  H+  H24  1  0.48208354  0.36895535  0.65966001  1
  H+  H25  1  0.23562849  0.12706794  0.50671054  1
  H+  H26  1  0.76617806  0.12718908  0.00243234  1
  H+  H27  1  0.88939305  0.62103032  0.32482059  1
  H+  H28  1  0.98562972  0.12156201  0.65094614  1
  H+  H29  1  0.90373648  0.64055133  0.64723865  1
  H+  H30  1  0.60292013  0.21764266  0.48639427  1
  H+  H31  1  0.10473925  0.21004109  0.82633911  1
  H+  H32  1  0.24668414  0.37807803  0.35120392  1
  H+  H33  1  0.36563162  0.38885798  0.67125888  1
  H+  H34  1  0.59819317  0.45175884  0.49933809  1
  H+  H35  1  0.20159772  0.36806907  0.99893658  1
  H+  H36  1  0.09773314  0.39321056  0.15163792  1
  H+  H37  1  0.86936073  0.22382249  0.67204314  1
  H+  H38  1  0.09923017  0.47301604  -0.00289567  1
  H+  H39  1  0.71497399  0.10954600  0.50058891  1
  H+  H40  1  0.81468316  0.16082099  0.39475432  1
  H+  H41  1  0.37338020  0.64546858  0.82595833  1
  H+  H42  1  0.14725825  0.12930218  0.51324283  1
  H+  H43  1  0.72322325  0.10981668  0.17019743  1
  H+  H44  1  0.51714019  0.12370081  0.33458676  1
  H+  H45  1  0.25236272  0.12422487  1.00440292  1
  H+  H46  1  0.36783643  -0.02038500  0.86842562  1
  H+  H47  1  0.37033156  0.73211011  0.67369794  1
  H+  H48  1  0.87518489  0.40670527  0.81199918  1
  H+  H49  1  0.89903555  0.62477052  0.83539801  1
  H+  H50  1  0.24337883  0.61717906  0.67455245  1
  H+  H51  1  0.03903646  0.26077231  0.87555872  1
  H+  H52  1  0.85390164  0.71884107  0.02036950  1
  H+  H53  1  0.12680914  0.73612590  0.79160738  1
  H+  H54  1  0.28137300  0.88962940  0.86607703  1
  H+  H55  1  0.71526120  0.85794714  0.32004213  1
  H+  H56  1  0.66345485  0.08461425  0.92723149  1
  H+  H57  1  0.85493809  0.13972636  0.48440929  1
  H+  H58  1  0.35369937  0.90951044  -0.00006575  1
  H+  H59  1  0.39398777  0.52820442  0.83765321  1
  H+  H60  1  0.16763777  0.08795730  0.23000579  1
  H+  H61  1  0.88836101  0.02380191  0.83374349  1
  H+  H62  1  0.20474784  0.64596047  0.53976888  1
  H+  H63  1  0.93756843  0.34921042  0.71458215  1
  H+  H64  1  0.87679608  0.76288220  0.19183078  1
  H+  H65  1  0.83475598  0.66840649  0.49316718  1
  H+  H66  1  0.12033996  0.88588546  0.00765024  1
  H+  H67  1  0.14799888  0.12839738  0.66231628  1
  H+  H68  1  0.37683488  0.76354837  0.50977719  1
  H+  H69  1  1.01302536  0.35194955  0.31803105  1
  H+  H70  1  0.86557447  0.13436637  0.66544904  1
  H+  H71  1  0.36516102  0.22052832  0.33845490  1
  H+  H72  1  0.78376925  0.64824744  0.66448821  1
  H+  H73  1  0.61921555  0.72070569  0.33670288  1
  H+  H74  1  0.38580112  0.85935237  0.66825600  1
  H+  H75  1  0.88428721  0.11728774  0.32625835  1
  H+  H76  1  0.28440378  0.38813658  0.82376057  1
  H+  H77  1  0.23040706  0.37614347  0.51729959  1
  H+  H78  1  0.89543963  0.88057652  0.83174763  1
  H+  H79  1  0.73432372  0.38807318  0.83361755  1
  H+  H80  1  0.10983380  0.71778177  0.33562187  1
  H+  H81  1  0.28849504  0.66136778  0.18440973  1
  H+  H82  1  0.10301632  0.62760144  0.00126697  1
  H+  H83  1  0.64492322  0.02406167  0.83802093  1
  H+  H84  1  0.00900186  0.89085665  0.29915390  1
  H+  H85  1  0.87082464  0.74043027  0.66301641  1
  H+  H86  1  0.14653646  0.78380622  0.68753481  1
  H+  H87  1  0.33407526  0.37311772  -0.01996603  1
  H+  H88  1  0.53210846  0.64807729  0.16770857  1
  H+  H89  1  0.88379449  0.01894625  0.17290751  1
  H+  H90  1  0.13652083  0.01929270  0.99190891  1
  H+  H91  1  0.64414574  0.77804886  0.83715307  1
  H+  H92  1  0.88326977  0.41853754  0.66690946  1
  H+  H93  1  0.37111330  0.96963743  0.68578495  1
  H+  H94  1  0.04476029  0.39356235  0.80053757  1
  H+  H95  1  0.79950523  0.39236441  0.45709324  1
  H+  H96  1  0.64306484  0.86695834  0.83886654  1
  H+  H97  1  0.13726917  0.53186134  0.17035797  1
  H+  H98  1  0.64287381  0.36834411  0.99532553  1
  H+  H99  1  0.73452928  0.86738291  0.16616840  1
  H+  H100  1  0.53048798  0.89313115  0.83187178  1
  H+  H101  1  -0.00198273  0.89322899  0.50493783  1
  H+  H102  1  0.63082247  0.11638694  -0.01331506  1
  H+  H103  1  0.53420754  0.63943193  0.67716203  1
  H+  H104  1  0.49048479  0.36538224  0.82578676  1
  H+  H105  1  0.01464526  0.63127175  0.01079116  1
  H+  H106  1  1.02355966  0.11972860  0.82107675  1
  H+  H107  1  0.64202810  0.60792818  0.33484156  1
  H+  H108  1  0.88633394  0.74314983  0.81600638  1
  H+  H109  1  0.13205719  0.10528992  0.16800452  1
  H+  H110  1  0.28064514  0.88387716  0.68369432  1
  H+  H111  1  0.37836525  0.01710678  0.32198352  1
  H+  H112  1  0.39339437  0.78036209  0.84524565  1
  H+  H113  1  0.17002522  0.41566841  0.36880713  1
  H+  H114  1  0.83913650  0.16352822  0.76214276  1
  H+  H115  1  0.12603752  0.63895994  0.15919944  1
  H+  H116  1  0.77617456  0.89206357  0.82291373  1
  H+  H117  1  0.95599011  0.35818684  1.02000036  1
  H+  H118  1  0.62248072  0.89769744  0.45520516  1
  H+  H119  1  0.28047396  0.14994530  0.82284314  1
  H+  H120  1  0.62472785  0.23558603  0.67355937  1
  H+  H121  1  0.10838072  0.49573708  0.51828719  1
  H+  H122  1  0.59436980  0.66927113  0.76985747  1
  H+  H123  1  0.52848951  0.15316534  0.00220701  1
  H+  H124  1  0.61034276  0.37860034  0.34656201  1
  H+  H125  1  0.65927060  0.57159109  0.24187563  1
  H+  H126  1  0.21625406  0.83946498  0.99121525  1
  H+  H127  1  0.27932326  0.60896348  0.48451533  1
  H+  H128  1  0.14757309  0.50418035  0.35972238  1
  H+  H129  1  0.87112377  0.35499492  0.16300916  1
  H+  H130  1  0.21686575  0.61022343  0.97885032  1
  H+  H131  1  0.39663585  0.12135664  0.83447719  1
  H+  H132  1  0.77721328  -0.11905436  1.00320775  1
  H+  H133  1  0.13586682  1.00381844  0.50502421  1
  H+  H134  1  0.26602644  0.12381853  0.15783981  1
  H+  H135  1  0.03439958  0.89831340  0.82176307  1
  H+  H136  1  0.39320780  0.86704150  0.86729057  1
  H+  H137  1  0.38232008  0.09712717  0.16421754  1
  H+  H138  1  0.87528183  0.52896588  0.33976429  1
  H+  H139  1  0.03531519  0.15019211  0.49449369  1
  H+  H140  1  0.34129810  0.41838449  0.76367594  1
  H+  H141  1  0.12164127  0.15848883  0.34296578  1
  H+  H142  1  -0.02131737  0.12643579  0.32869920  1
  H+  H143  1  0.39563234  0.53192584  0.66247982  1
  H+  H144  1  0.12708757  0.26606725  1.00020093  1
  H+  H145  1  0.22934573  0.85783434  0.16940914  1
  H+  H146  1  0.62022855  0.39587631  0.67198717  1
  H+  H147  1  0.15732255  0.59449401  0.59855536  1
  H+  H148  1  0.12341541  0.76069724  0.99381827  1
  H+  H149  1  0.62465015  0.73024803  0.16181365  1
  H+  H150  1  0.48521732  0.11752650  0.83829943  1
  H+  H151  1  0.87079997  0.89547753  0.66984856  1
  H+  H152  1  0.59139690  0.26991572  0.55865359  1
  H+  H153  1  0.32662953  0.66983559  0.33099931  1
  H+  H154  1  0.64177218  0.78430504  0.49091948  1
  H+  H155  1  0.60934088  -0.02443159  0.67340535  1
  H+  H156  1  0.61010303  0.12825746  0.82520473  1
  H+  H157  1  0.39987895  0.51176997  0.32944941  1
  H+  H158  1  0.37221955  0.23577909  0.67370628  1
  H+  H159  1  0.72561198  0.86281644  0.66975389  1
  H+  H160  1  0.74508918  0.39674352  0.35625236  1
  H+  H161  1  0.13897188  0.85874999  0.16590966  1
  H+  H162  1  0.47650013  0.87622771  0.26107292  1
  H+  H163  1  0.86818568  0.88500549  1.00423494  1
  H+  H164  1  0.85419208  0.21844919  0.15415047  1
  H+  H165  1  0.65141884  0.77374671  -0.00722937  1
  H+  H166  1  0.84805649  0.42277779  -0.07206322  1
  H+  H167  1  0.15373591  0.52062945  0.82997391  1
  H+  H168  1  0.12267008  0.98721900  0.67181972  1
  H+  H169  1  0.36233710  0.88013817  0.18174380  1
  H+  H170  1  0.42745456  0.57593240  0.26997575  1
  H+  H171  1  0.27439547  0.51644333  0.03771063  1
  H+  H172  1  0.87715859  0.89937090  0.48101426  1
  H+  H173  1  0.63583719  0.60958440  1.00368944  1
  H+  H174  1  0.48358493  0.35668612  0.33754221  1
  H+  H175  1  0.83053566  0.21008198  0.33002010  1
  H+  H176  1  0.12522507  0.73411351  0.15364647  1
  H+  H177  1  0.34560954  -0.03616592  0.48964322  1
  H+  H178  1  0.77822628  0.64332996  0.33572902  1
  H+  H179  1  0.48339220  0.12124464  0.50300965  1
  H+  H180  1  0.39749302  0.62176020  0.66231036  1
  H+  H181  1  0.85691702  0.88967999  0.31286456  1
  H+  H182  1  0.71854970  0.10664753  0.32401626  1
  H+  H183  1  -0.00863966  0.85137115  -0.01016341  1
  H+  H184  1  0.82196656  0.14895782  0.06327278  1
  H+  H185  1  0.52843603  0.88318704  0.99890615  1
  H+  H186  1  0.48607308  0.34451909  0.17761305  1
  H+  H187  1  0.62091069  0.23602133  1.00189136  1
  H+  H188  1  0.60678334  0.46814616  0.16721726  1
  H+  H189  1  0.09296918  0.38097592  0.00502853  1
  H+  H190  1  0.88073822  0.77277075  0.28763815  1
  H+  H191  1  0.39650371  0.82022862  0.00232125  1
  H+  H192  1  0.13205869  0.03579142  0.31915089  1
  H+  H193  1  0.86791835  0.26852627  1.01676448  1
  H+  H194  1  0.61366564  -0.00636726  0.99526920  1
  H+  H195  1  0.37836928  0.26814382  0.50550134  1
  H+  H196  1  0.63364840  0.11146864  0.16815460  1
  H+  H197  1  0.41257913  0.44766234  0.12349464  1
  H+  H198  1  0.27862314  0.39466880  0.67551010  1
  H+  H199  1  0.71722161  0.35340893  0.17659812  1
  H+  H200  1  0.86369457  0.34478285  0.31565195  1
  H+  H201  1  0.66397162  0.57891589  0.94358360  1
  H+  H202  1  0.88599292  0.53086228  0.98809173  1
  H+  H203  1  0.60705141  -0.02351247  0.46194967  1
  H+  H204  1  0.14323948  0.38162745  0.51828876  1
  H+  H205  1  0.84957358  0.47212219  0.16551024  1
  H+  H206  1  0.47512498  0.10438340  0.16537589  1
  H+  H207  1  0.35918731  0.12835210  0.33453988  1
  H+  H208  1  0.36975090  0.47642379  0.50292073  1
  H+  H209  1  0.12118881  0.24202573  0.50489588  1
  H+  H210  1  0.74237833  0.38226513  0.65937680  1
  H+  H211  1  0.53431550  0.14641853  0.67321844  1
  H+  H212  1  0.96215006  0.36098891  0.16728761  1
  H+  H213  1  0.62222739  0.72956973  0.68019832  1
  H+  H214  1  0.14515444  0.60245547  0.81888202  1
  H+  H215  1  0.73773877  0.34115636  0.51157491  1
  H+  H216  1  0.94130261  0.35095481  0.86686253  1
  H+  H217  1  0.36629533  0.96574752  0.16082080  1
  H+  H218  1  0.53842826  0.38433583  0.00579469  1
  H+  H219  1  0.11186816  0.23707598  0.67558143  1
  H+  H220  1  0.37117940  0.74645484  0.20696772  1
  H+  H221  1  0.14649266  0.29936301  0.35198036  1
  H+  H222  1  0.31717584  0.34295079  1.00688813  1
  H+  H223  1  0.39211853  0.11483881  0.66823221  1
  H+  H224  1  0.39875157  0.55668457  0.16867226  1
  H+  H225  1  0.89367932  1.02675043  0.47612944  1
  H+  H226  1  0.40003285  0.30182864  0.98607671  1
  H+  H227  1  0.62552295  0.60214154  0.50078078  1
  H+  H228  1  0.11744757  0.37725622  0.82138134  1
  H+  H229  1  0.36016387  0.13664327  0.48565886  1
  H+  H230  1  0.87155291  0.35166739  0.51255698  1
  H+  H231  1  0.47069399  0.35287235  0.50728127  1
  H+  H232  1  0.17566243  0.33892737  0.19685580  1
  H+  H233  1  0.39833938  0.61008663  0.50797883  1
  H+  H234  1  0.90886448  0.55461932  0.64608348  1
  H+  H235  1  0.85751646  0.22924496  0.49009206  1
  H+  H236  1  0.40055294  0.64288847  0.19014611  1
  H+  H237  1  0.36225254  0.20633584  0.15914726  1
  H+  H238  1  0.52079187  0.88610049  0.67600428  1
  H+  H239  1  0.98639142  0.87693228  0.65697897  1
  H+  H240  1  0.61651583  0.39499102  0.82390161  1
  H+  H241  1  0.61997269  0.47952435  0.01472163  1
  H+  H242  1  0.76291715  0.47075334  0.40182556  1
  H+  H243  1  0.21876574  0.85947904  0.50383772  1
  H+  H244  1  0.57648764  0.85097265  0.31539534  1
  H+  H245  1  0.38136519  0.25414322  0.82190343  1
  H+  H246  1  0.37056604  0.37737484  0.35169356  1
  H+  H247  1  0.86567541  0.88448315  0.16228179  1
  H+  H248  1  0.88336983  0.10553182  -0.01059771  1
  H+  H249  1  0.64358716  0.61815854  0.66030196  1
  H+  H250  1  0.39237596  0.33122994  0.18468612  1
  H+  H251  1  0.09847473  0.20936498  0.14809926  1
  H+  H252  1  0.64182786  0.51806828  0.33752992  1
  H+  H253  1  0.19438103  0.35073285  0.12742476  1
  H+  H254  1  0.41991839  0.58990063  0.89575486  1
  H+  H255  1  0.01197955  0.12029314  0.15590251  1
  H+  H256  1  0.12214841  0.85821250  0.31436930  1
  H+  H257  1  0.35777445  0.14306331  0.00091947  1
  H+  H258  1  0.12718001  0.61667891  0.72193953  1
  H+  H259  1  0.58147749  0.41220457  0.10484867  1
  H+  H260  1  0.42618735  0.82070061  0.32853906  1
  H+  H261  1  0.25719175  0.88590506  0.33626277  1
  H+  H262  1  0.70136305  0.58188886  0.49330353  1
  H+  H263  1  0.44933966  0.16636031  0.54602394  1
  H+  H264  1  0.52779535  0.64511283  0.01295562  1
  H+  H265  1  0.64035418  0.11612561  0.65543243  1
  H+  H266  1  0.86722724  -0.01796559  0.66795599  1
  H+  H267  1  0.01960568  0.12866018  -0.00055617  1
  H+  H268  1  0.62924519  0.52255323  0.84998732  1
  H+  H269  1  0.13266540  0.10805455  0.99111495  1
  H+  H270  1  0.39045900  0.05228413  0.98381364  1
  H+  H271  1  0.87415172  0.14093586  0.82266821  1
  H+  H272  1  0.63125913  0.60553949  0.18265770  1
  H+  H273  1  0.87077504  0.59943227  0.18131667  1
  H+  H274  1  0.09015773  0.92438517  0.72900932  1
  H+  H275  1  0.16404861  0.52055252  0.66910131  1
  H+  H276  1  0.28360138  0.64311662  0.82562185  1
  H+  H277  1  0.73372741  0.11507518  0.83853050  1
  H+  H278  1  0.38403083  0.62554261  0.34209249  1
  H+  H279  1  0.13632350  0.87581873  0.51379903  1
  H+  H280  1  0.53084170  0.88958471  0.14568673  1
  H+  H281  1  0.28007546  0.14722691  0.67446562  1
  H+  H282  1  0.11173711  0.97106531  0.16348452  1
  H+  H283  1  0.12832265  0.98090294  0.82227535  1
  H+  H284  1  0.76376498  0.63271143  0.17567271  1
  H+  H285  1  0.91682507  0.80082577  0.49792284  1
  H+  H286  1  0.59576049  0.35705347  0.50120815  1
  H+  H287  1  0.40022998  0.69658028  -0.01018494  1
  H+  H288  1  0.07434524  0.15024042  0.06092485  1
  H+  H289  1  0.58403696  0.92023133  0.76918307  1
  H+  H290  1  0.30878632  0.46193160  0.07064543  1
  H+  H291  1  0.05687683  0.50031388  0.30077793  1
  H+  H292  1  0.41022102  0.82819508  0.60586297  1
  H+  H293  1  0.41809998  0.33237521  0.60175091  1
  H+  H294  1  0.34643859  0.65697557  0.43227889  1
  H+  H295  1  0.66051883  0.08287855  0.25822760  1
  H+  H296  1  0.16316658  0.35350537  0.61004275  1
  H+  H297  1  0.12376802  0.40209814  0.71959232  1
  H+  H298  1  0.92656246  0.09034824  0.59156478  1
  H+  H299  1  0.44350666  0.32441387  0.92192144  1
  H+  H300  1  0.66628243  0.58363377  0.59942860  1
  H+  H301  1  0.43355454  0.81814748  0.93615097  1
  H+  H302  1  0.85089568  0.44661509  0.72533426  1
  H+  H303  1  0.12626065  0.30877950  0.91026289  1
  H+  H304  1  0.63547718  0.85949477  0.67266863  1
  H+  H305  1  0.32818761  0.16352633  0.42573599  1
  H+  H306  1  0.92065848  0.08125814  0.89452703  1
  H+  H307  1  0.67910359  0.34677488  0.60226422  1
  H+  H308  1  0.67165337  0.35119417  0.89164268  1
  H+  H309  1  0.72945381  0.36707232  0.97921855  1
  H+  H310  1  0.65556219  0.07524755  0.55912663  1
  H+  H311  1  0.81798350  0.41700113  0.10355890  1
  H+  H312  1  0.66415613  0.82363112  0.25840206  1
  H+  H313  1  0.86709629  0.30596262  0.25175653  1
  H+  H314  1  0.09077996  0.66396538  0.09229797  1
  H+  H315  1  0.01865999  0.63356959  0.34184777  1
  H+  H316  1  0.41756281  0.07700057  0.61189747  1
  H+  H317  1  0.08309218  0.16764024  0.72900488  1
  H+  H318  1  0.12469863  0.95060796  0.44459819  1
  H+  H319  1  0.87632106  0.49687109  0.82326712  1
  H+  H320  1  0.14986821  0.81198432  0.89109903  1
  H+  H321  1  0.62988203  0.26360030  0.32864072  1
  H+  H322  1  0.72812029  0.87207377  0.48547327  1
  H+  H323  1  0.09509964  0.18245036  0.40628907  1
  H+  H324  1  0.02494441  0.88064812  0.16647088  1
  H+  H325  1  0.08591465  0.64338364  0.53027208  1
  H+  H326  1  0.12964727  0.45941217  0.42874003  1
  H+  H327  1  0.39521381  0.36274671  0.83219063  1
  H+  H328  1  0.58256422  0.16057658  0.76652998  1
  H+  H329  1  0.84274960  0.91780913  0.41795366  1
  H+  H330  1  0.07131344  0.42935812  0.09578687  1
  H+  H331  1  0.83651882  0.92446807  0.76262274  1
  H+  H332  1  0.65946127  0.32538674  0.27053150  1
  H+  H333  1  0.59315155  0.93055667  0.05951869  1
  H+  H334  1  0.58661476  0.66878758  0.07258960  1
  H+  H335  1  0.55838097  0.90189734  0.36545712  1
  H+  H336  1  0.76393095  0.63092333  0.01931049  1
  H+  H337  1  0.28636597  0.36008245  0.23671782  1
  H+  H338  1  0.58539224  0.16741720  0.09624940  1
  H+  H339  1  0.11643806  0.77053529  0.51962423  1
  H+  H340  1  0.92917724  0.85226861  0.59644866  1
  H+  H341  1  0.27643221  0.39629756  0.24100073  1
  H+  H342  1  0.14687592  0.86783614  0.66779540  1
  H+  H343  1  0.91589596  0.08289356  0.23081424  1
  H+  H344  1  0.86346595  -0.02038971  0.32692700  1
  H+  H345  1  0.88120421  0.61521562  1.00745647  1
  H+  H346  1  0.86127613  0.38457750  -0.00929668  1
  H+  H347  1  0.64566511  0.86792772  0.16385447  1
  H+  H348  1  0.34649512  0.41466022  0.41184528  1
  H+  H349  1  0.38160746  0.53967461  -0.00948218  1
  H+  H350  1  0.90222725  0.56667401  0.23713837  1
  H+  H351  1  0.15209961  0.57999322  0.23370496  1
  H+  H352  1  0.08650426  0.91478127  0.06611646  1
  H+  H353  1  0.34150474  0.87916250  0.33734470  1
  H+  H354  1  0.18154624  0.09988145  0.60476366  1
  H+  H355  1  0.14016930  0.85881298  0.83326551  1
  H+  H356  1  0.42974265  0.58640115  0.56941200  1
  H+  H357  1  0.61853951  0.48401896  0.67070029  1
  H+  H358  1  0.31263845  0.90937909  0.42794194  1
  H+  H359  1  0.82454465  0.66678389  0.11713046  1
  H+  H360  1  0.92703979  0.84999623  0.88994564  1
  H+  H361  1  0.85345175  0.69293819  0.38480682  1
  H+  H362  1  0.85654433  0.68111067  0.75913062  1
  H+  H363  1  0.58330018  0.42347519  0.76376442  1
  H+  H364  1  0.15848179  0.58000271  0.92059476  1
  H+  H365  1  1.00484623  0.35956463  0.66600867  1
  H+  H366  1  0.41329716  0.07564625  0.26203588  1
  H+  H367  1  0.91637775  0.32933380  0.56594406  1
  H+  H368  1  0.57699582  0.15230015  0.39515977  1
  H+  H369  1  0.53343363  0.62933598  0.34101055  1
  H+  H370  1  0.92572965  0.68072632  0.48356012  1
  H+  H371  1  0.42721731  0.32261761  0.27680146  1
  H+  H372  1  0.18077593  0.09124836  0.89429289  1
  H+  H373  1  0.42301295  0.11214310  0.92577437  1
  H+  H374  1  0.34630741  0.67493295  0.73479633  1
  H+  H375  1  0.94459131  0.76908679  0.94885163  1
  H+  H376  1  0.91558560  0.59277564  0.89881323  1
  H+  H377  1  0.03549219  0.90360178  0.36656498  1
  H+  H378  1  0.68100517  0.83244396  0.93275268  1
  H+  H379  1  0.33885201  0.17819018  0.75761298  1
  H+  H380  1  0.33366042  0.87960333  0.06940822  1
  H+  H381  1  0.84132433  0.91339237  0.09905314  1
  H+  H382  1  0.96244865  0.62983735  0.57005603  1
  H+  H383  1  0.15902349  0.82680605  0.26075393  1
  O2-  O384  1  0.07186415  0.14759337  0.13821893  1
  O2-  O385  1  0.09850779  0.18311069  0.48739264  1
  O2-  O386  1  0.08494804  0.15346786  0.80645188  1
  O2-  O387  1  0.07296152  0.42985372  0.14150196  1
  O2-  O388  1  0.08933578  0.44021969  0.49687771  1
  O2-  O389  1  0.10742702  0.41620019  0.79470468  1
  O2-  O390  1  0.09757942  0.67092116  0.13917962  1
  O2-  O391  1  0.06566156  0.67938100  0.50860164  1
  O2-  O392  1  0.10479052  0.70604938  0.75183011  1
  O2-  O393  1  0.08286712  0.91057924  0.14787335  1
  O2-  O394  1  0.10850099  0.94249454  0.48742470  1
  O2-  O395  1  0.09502552  0.92112749  0.80726107  1
  O2-  O396  1  0.32529079  0.14939470  0.13910209  1
  O2-  O397  1  0.32845737  0.16558070  0.47164810  1
  O2-  O398  1  0.34127841  0.18196358  0.80527052  1
  O2-  O399  1  0.36013518  0.44894527  0.13298022  1
  O2-  O400  1  0.33285381  0.41533607  0.48850951  1
  O2-  O401  1  0.34394742  0.41718558  0.80988238  1
  O2-  O402  1  0.35136445  0.69607277  0.18001828  1
  O2-  O403  1  0.33893837  0.65298937  0.47822128  1
  O2-  O404  1  0.34477758  0.67829727  0.81276749  1
  O2-  O405  1  0.33672293  0.90225126  0.15224587  1
  O2-  O406  1  0.30955134  0.90557921  0.47415124  1
  O2-  O407  1  0.33942554  0.92031165  0.88479674  1
  O2-  O408  1  0.58155613  0.16065486  0.14159232  1
  O2-  O409  1  0.57455985  0.15635114  0.46894714  1
  O2-  O410  1  0.57312305  0.15101258  0.81097744  1
  O2-  O411  1  0.57777814  0.40791732  0.15077768  1
  O2-  O412  1  0.56826309  0.39263900  0.48245278  1
  O2-  O413  1  0.57647487  0.41715923  0.80908698  1
  O2-  O414  1  0.59073772  0.66778396  0.15094209  1
  O2-  O415  1  0.59183933  0.66328892  0.47925638  1
  O2-  O416  1  0.59352333  0.67355266  0.81547720  1
  O2-  O417  1  0.59092959  0.92395936  0.13355200  1
  O2-  O418  1  0.60103253  0.93200353  0.43324547  1
  O2-  O419  1  0.58979228  0.92239915  0.81495907  1
  O2-  O420  1  0.82284159  0.15604899  0.14264823  1
  O2-  O421  1  0.82369326  0.16997136  0.47277759  1
  O2-  O422  1  0.84507855  0.17252681  0.80733069  1
  O2-  O423  1  0.81919147  0.41041716  0.14750468  1
  O2-  O424  1  0.79910768  0.37186368  0.49865056  1
  O2-  O425  1  0.84438727  0.43753714  0.80248097  1
  O2-  O426  1  0.82544853  0.66751667  0.16268513  1
  O2-  O427  1  0.88549920  0.70114656  0.46795476  1
  O2-  O428  1  0.86142444  0.68256917  0.80400569  1
  O2-  O429  1  0.83905547  0.91630130  0.14460900  1
  O2-  O430  1  0.84678898  0.92778095  0.46275038  1
  O2-  O431  1  0.83751463  0.92547008  0.80840167  1
  O2-  O432  1  0.16575266  0.07927290  0.18473766  1
  O2-  O433  1  0.17756212  0.09815890  0.52714176  1
  O2-  O434  1  0.18544233  0.09424076  0.84928620  1
  O2-  O435  1  0.14749480  0.32552675  0.15697989  1
  O2-  O436  1  0.16981177  0.34798589  0.53322957  1
  O2-  O437  1  0.10092856  0.29235612  0.86794971  1
  O2-  O438  1  0.16621153  0.59062117  0.18927035  1
  O2-  O439  1  0.14853384  0.60044792  0.55320604  1
  O2-  O440  1  0.17401545  0.57948726  0.84602161  1
  O2-  O441  1  0.16662877  0.82524082  0.18015215  1
  O2-  O442  1  0.16046326  0.83746935  0.52526382  1
  O2-  O443  1  0.16487314  0.82293268  0.84754762  1
  O2-  O444  1  0.41485474  0.07063953  0.18126656  1
  O2-  O445  1  0.42957942  0.11070565  0.52646688  1
  O2-  O446  1  0.42523926  0.09631367  0.85805769  1
  O2-  O447  1  0.42615836  0.30448599  0.19547059  1
  O2-  O448  1  0.41008499  0.32624247  0.52430960  1
  O2-  O449  1  0.42421237  0.32871490  0.84156660  1
  O2-  O450  1  0.42934072  0.60676032  0.19545455  1
  O2-  O451  1  0.42880344  0.58046705  0.52388714  1
  O2-  O452  1  0.42180710  0.58911408  0.85057594  1
  O2-  O453  1  0.41539161  0.85061866  0.24724542  1
  O2-  O454  1  0.39590362  0.81996337  0.52866214  1
  O2-  O455  1  0.42719809  0.83641829  0.86710817  1
  O2-  O456  1  0.66187987  0.07967071  0.18564296  1
  O2-  O457  1  0.65408318  0.07837088  0.51379084  1
  O2-  O458  1  0.67403939  0.08481132  0.85427449  1
  O2-  O459  1  0.65672250  0.32065583  0.19211484  1
  O2-  O460  1  0.62891493  0.30318606  0.52533473  1
  O2-  O461  1  0.67382195  0.36048678  0.84719478  1
  O2-  O462  1  0.65801790  0.57108955  0.19622407  1
  O2-  O463  1  0.64941361  0.56435515  0.51676848  1
  O2-  O464  1  0.65586717  0.57735683  0.87240855  1
  O2-  O465  1  0.67331908  0.83653677  0.18036093  1
  O2-  O466  1  0.66645667  0.84689824  0.49391937  1
  O2-  O467  1  0.67613434  0.83895106  0.85241889  1
  O2-  O468  1  0.91386989  0.08085612  0.18555102  1
  O2-  O469  1  0.92402837  0.09272277  0.47893970  1
  O2-  O470  1  0.92393372  0.08516930  0.84907420  1
  O2-  O471  1  0.90066065  0.32377604  0.17812015  1
  O2-  O472  1  0.91682805  0.33396171  0.52164749  1
  O2-  O473  1  0.93525136  0.34140803  0.82297465  1
  O2-  O474  1  0.89613860  0.56326400  0.19210734  1
  O2-  O475  1  0.97319116  0.63763976  0.52080038  1
  O2-  O476  1  0.91904718  0.58687267  0.85469044  1
  O2-  O477  1  0.91344369  0.82705904  0.20356368  1
  O2-  O478  1  0.93613424  0.85909376  0.51530167  1
  O2-  O479  1  0.93193484  0.85578144  0.84540625  1
  O2-  O480  1  0.16711867  0.09735918  0.30825345  1
  O2-  O481  1  0.18071630  0.09937804  0.65025945  1
  O2-  O482  1  0.16755869  0.08081444  0.97753630  1
  O2-  O483  1  0.18446105  0.36224121  0.34369536  1
  O2-  O484  1  0.16281000  0.35140912  0.65636643  1
  O2-  O485  1  0.14444569  0.32438995  0.98326596  1
  O2-  O486  1  0.11492004  0.54812974  0.30786999  1
  O2-  O487  1  0.17854307  0.58118462  0.66675425  1
  O2-  O488  1  0.15651569  0.57963649  0.96664498  1
  O2-  O489  1  0.15616633  0.82994172  0.30589448  1
  O2-  O490  1  0.17651496  0.83467754  0.66117902  1
  O2-  O491  1  0.15683859  0.82126331  0.97877394  1
  O2-  O492  1  0.41317627  0.07784344  0.30742420  1
  O2-  O493  1  0.42428411  0.08539850  0.65626707  1
  O2-  O494  1  0.41786821  0.11293935  0.97303273  1
  O2-  O495  1  0.42247380  0.32510138  0.32160019  1
  O2-  O496  1  0.41977501  0.33624620  0.64739413  1
  O2-  O497  1  0.45214065  0.31335470  0.96470007  1
  O2-  O498  1  0.43083591  0.57255398  0.31517464  1
  O2-  O499  1  0.42791262  0.59146488  0.64672314  1
  O2-  O500  1  0.41963266  0.59953410  0.97608923  1
  O2-  O501  1  0.37328008  0.81230763  0.30657231  1
  O2-  O502  1  0.41635203  0.82878242  0.65115742  1
  O2-  O503  1  0.44014109  0.81035126  0.98185164  1
  O2-  O504  1  0.65816915  0.08172397  0.30487450  1
  O2-  O505  1  0.66493095  0.08113340  0.63888065  1
  O2-  O506  1  0.65750960  0.08134189  0.97340590  1
  O2-  O507  1  0.65764571  0.32496837  0.31611877  1
  O2-  O508  1  0.68040617  0.34777914  0.64743021  1
  O2-  O509  1  0.66579038  0.33434616  0.97451129  1
  O2-  O510  1  0.67253714  0.57717930  0.31974828  1
  O2-  O511  1  0.67301105  0.58680389  0.64424235  1
  O2-  O512  1  0.66733444  0.57993818  0.99019673  1
  O2-  O513  1  0.65707903  0.81937153  0.30355304  1
  O2-  O514  1  0.66377769  0.82647214  0.66071650  1
  O2-  O515  1  0.68576219  0.83361970  0.97795477  1
  O2-  O516  1  0.91928618  0.09107973  0.31283577  1
  O2-  O517  1  0.92469226  0.09031200  0.63588945  1
  O2-  O518  1  0.91710874  0.07888978  0.97392525  1
  O2-  O519  1  0.83771898  0.29167385  0.29233168  1
  O2-  O520  1  0.94301675  0.34116118  0.67115709  1
  O2-  O521  1  0.89282177  0.33106999  1.02431100  1
  O2-  O522  1  0.91352294  0.58248634  0.31697676  1
  O2-  O523  1  0.93882669  0.61492785  0.63179218  1
  O2-  O524  1  0.91773548  0.59489096  0.98720853  1
  O2-  O525  1  0.90685642  0.83285871  0.27031894  1
  O2-  O526  1  0.92565272  0.84841287  0.64155768  1
  O2-  O527  1  0.93484238  0.81144316  0.96980846  1
  O2-  O528  1  0.08034364  0.15755217  0.01556482  1
  O2-  O529  1  0.09166832  0.18723184  0.36122027  1
  O2-  O530  1  0.08539284  0.17465100  0.68367284  1
  O2-  O531  1  0.06888149  0.41730121  0.01923388  1
  O2-  O532  1  0.16545127  0.47377151  0.39021160  1
  O2-  O533  1  0.12059356  0.40105458  0.67354143  1
  O2-  O534  1  0.07753000  0.65828146  0.02329371  1
  O2-  O535  1  0.08088799  0.65848273  0.35163976  1
  O2-  O536  1  0.09792759  0.62183724  0.75902858  1
  O2-  O537  1  0.09037518  0.91782530  0.02078441  1
  O2-  O538  1  0.06113587  0.91765776  0.32613108  1
  O2-  O539  1  0.08921445  0.92570119  0.68347500  1
  O2-  O540  1  0.31589784  0.15831895  0.02228963  1
  O2-  O541  1  0.32887485  0.15844602  0.35044123  1
  O2-  O542  1  0.34107804  0.17528112  0.69042710  1
  O2-  O543  1  0.28130340  0.46611650  0.03289093  1
  O2-  O544  1  0.34500167  0.41250728  0.36601188  1
  O2-  O545  1  0.33884250  0.42104738  0.68962570  1
  O2-  O546  1  0.36369830  0.63366949  -0.00243559  1
  O2-  O547  1  0.35989532  0.65957638  0.36122833  1
  O2-  O548  1  0.34270712  0.67019623  0.68935254  1
  O2-  O549  1  0.32472567  0.85927329  0.02637843  1
  O2-  O550  1  0.31704308  0.91480648  0.35317452  1
  O2-  O551  1  0.34168719  0.90873975  0.69751378  1
  O2-  O552  1  0.58784610  0.17435905  0.01677613  1
  O2-  O553  1  0.57841872  0.15280186  0.34882847  1
  O2-  O554  1  0.59569896  0.17419699  0.68590344  1
  O2-  O555  1  0.59281001  0.41813926  0.02952570  1
  O2-  O556  1  0.58320847  0.41164496  0.36250118  1
  O2-  O557  1  0.58592557  0.42277475  0.68542316  1
  O2-  O558  1  0.58746967  0.66851083  0.02703387  1
  O2-  O559  1  0.59407883  0.66240949  0.35590866  1
  O2-  O560  1  0.59407624  0.66629899  0.69273157  1
  O2-  O561  1  0.58879336  0.93084194  0.01352948  1
  O2-  O562  1  0.53837364  0.87484230  0.32397275  1
  O2-  O563  1  0.58062451  0.91795570  0.69295521  1
  O2-  O564  1  0.82602649  0.15386496  0.01791074  1
  O2-  O565  1  0.81234649  0.15233232  0.34942647  1
  O2-  O566  1  0.83494132  0.16250757  0.68356177  1
  O2-  O567  1  0.83921044  0.42250499  -0.02823251  1
  O2-  O568  1  0.79096991  0.44229486  0.38259223  1
  O2-  O569  1  0.85040205  0.44595461  0.67942239  1
  O2-  O570  1  0.82359547  0.66071401  0.03816239  1
  O2-  O571  1  0.84185995  0.68338396  0.34060888  1
  O2-  O572  1  0.84545692  0.67957347  0.67653830  1
  O2-  O573  1  0.83942370  0.91464622  0.02049284  1
  O2-  O574  1  0.83253882  0.91763563  0.33817187  1
  O2-  O575  1  0.83964286  0.92426658  0.68655390  1
