# generated using pymatgen
data_H2O
_symmetry_space_group_name_H-M   'P 1'
_cell_length_a   17.99120743
_cell_length_b   17.97998598
_cell_length_c   22.00763459
_cell_angle_alpha   89.98633856
_cell_angle_beta   90.06933673
_cell_angle_gamma   119.96932150
_symmetry_Int_Tables_number   1
_chemical_formula_structural   H2O
_chemical_formula_sum   'H384 O192'
_cell_volume   6167.19207066
_cell_formula_units_Z   192
loop_
 _symmetry_equiv_pos_site_id
 _symmetry_equiv_pos_as_xyz
  1  'x, y, z'
loop_
 _atom_type_symbol
 _atom_type_oxidation_number
  H+  1.0
  O2-  -2.0
loop_
 _atom_site_type_symbol
 _atom_site_label
 _atom_site_symmetry_multiplicity
 _atom_site_fract_x
 _atom_site_fract_y
 _atom_site_fract_z
 _atom_site_occupancy
  H+  H0  1  0.76885844  0.14401023  0.33846061  1
  H+  H1  1  0.35890127  0.13051271  0.82779121  1
  H+  H2  1  0.97096790  0.09102897  0.97492667  1
  H+  H3  1  0.63267924  0.60672929  0.49344955  1
  H+  H4  1  0.38358214  0.02209129  1.00110806  1
  H+  H5  1  0.53331785  0.39482113  0.49606680  1
  H+  H6  1  0.65343965  0.39621707  0.31983611  1
  H+  H7  1  0.27982787  0.38986327  0.82528031  1
  H+  H8  1  0.51064198  0.65310420  0.15347472  1
  H+  H9  1  0.66418627  0.63391750  0.34264924  1
  H+  H10  1  0.63597021  0.61168818  0.98428965  1
  H+  H11  1  0.38008673  0.74018672  0.82856868  1
  H+  H12  1  0.23903068  0.61510569  0.17779662  1
  H+  H13  1  0.14436068  0.36099364  0.83705879  1
  H+  H14  1  0.51288912  0.89932072  0.50410377  1
  H+  H15  1  0.52672189  0.12428108  0.70769702  1
  H+  H16  1  0.10757191  0.25819585  0.32049085  1
  H+  H17  1  0.61693656  0.49483213  0.14505872  1
  H+  H18  1  0.39035238  0.38189626  0.17152058  1
  H+  H19  1  0.21798523  0.10368936  0.99539715  1
  H+  H20  1  0.94684509  0.09194081  0.49467004  1
  H+  H21  1  0.11399823  0.88346825  0.82466207  1
  H+  H22  1  0.36759698  0.26031023  0.99093224  1
  H+  H23  1  0.39542998  0.37264028  0.67298308  1
  H+  H24  1  0.50326736  0.88178940  0.02112780  1
  H+  H25  1  0.34208197  0.16581546  0.24228722  1
  H+  H26  1  0.88500327  0.84850540  0.82431228  1
  H+  H27  1  0.47493396  0.12728852  0.85239087  1
  H+  H28  1  0.08928421  0.96074683  0.33300984  1
  H+  H29  1  0.78145291  0.63950439  0.15695745  1
  H+  H30  1  0.89042518  0.13266411  0.18136760  1
  H+  H31  1  0.21287503  0.86877481  0.32313221  1
  H+  H32  1  0.02216416  0.87610581  0.82184473  1
  H+  H33  1  0.74169126  0.38589894  0.83571720  1
  H+  H34  1  0.05727040  0.42323802  0.84350249  1
  H+  H35  1  0.77098645  0.64105406  0.66126178  1
  H+  H36  1  0.67448937  0.46147553  0.82867597  1
  H+  H37  1  0.11320205  0.98573943  0.16702881  1
  H+  H38  1  0.63898588  0.61559173  0.65572629  1
  H+  H39  1  0.64947387  0.87328961  0.17812376  1
  H+  H40  1  0.86845067  0.63542117  0.15672841  1
  H+  H41  1  0.20496426  0.12328401  0.51154605  1
  H+  H42  1  0.26629275  0.25501505  0.45645011  1
  H+  H43  1  0.64283976  0.52919201  0.65350866  1
  H+  H44  1  0.10049029  0.11827827  0.99500583  1
  H+  H45  1  0.53021167  0.63938791  0.83175952  1
  H+  H46  1  0.47827228  0.95672455  0.52886078  1
  H+  H47  1  0.57894872  0.66619998  0.06147280  1
  H+  H48  1  -0.01051200  0.61126727  0.83615473  1
  H+  H49  1  0.53117876  0.15537059  0.14741363  1
  H+  H50  1  0.84232004  0.66205055  0.40734807  1
  H+  H51  1  0.53423769  0.40212970  0.68885409  1
  H+  H52  1  0.13407973  0.11830660  0.18235253  1
  H+  H53  1  0.87920501  0.47103208  0.82711154  1
  H+  H54  1  0.37060048  0.39391035  0.82241406  1
  H+  H55  1  0.35631663  0.68326204  0.76660665  1
  H+  H56  1  0.36305530  0.39777158  0.01906424  1
  H+  H57  1  0.72998750  0.38368590  0.16077869  1
  H+  H58  1  0.88686686  0.28012110  0.33081717  1
  H+  H59  1  0.70083212  0.86047227  0.98480522  1
  H+  H60  1  0.41978970  0.40723522  0.52508564  1
  H+  H61  1  0.89182178  0.37215940  0.33277557  1
  H+  H62  1  0.08099988  0.12676114  0.32822960  1
  H+  H63  1  0.61763624  0.87419798  0.83334399  1
  H+  H64  1  0.35386030  0.49362566  0.16608483  1
  H+  H65  1  0.30529121  0.42966246  0.50462840  1
  H+  H66  1  0.02400046  0.38924359  0.34232910  1
  H+  H67  1  1.02610801  0.63892955  0.15901202  1
  H+  H68  1  0.12883591  0.49917533  0.67140483  1
  H+  H69  1  0.90249883  0.81257141  0.92136965  1
  H+  H70  1  0.84024692  0.95347623  -0.04105082  1
  H+  H71  1  0.01591135  0.64144830  0.00423686  1
  H+  H72  1  0.36587971  0.88093979  0.16449512  1
  H+  H73  1  0.89280415  0.53089264  0.17472757  1
  H+  H74  1  0.13004250  0.77587785  0.33694085  1
  H+  H75  1  0.86533706  0.01163877  0.32984710  1
  H+  H76  1  0.52141023  0.89043171  0.17152005  1
  H+  H77  1  0.59833305  0.64955403  0.16016725  1
  H+  H78  1  0.83049755  0.86016567  -0.03319030  1
  H+  H79  1  0.42770947  0.28440819  0.30340342  1
  H+  H80  1  0.85772314  0.14169576  0.48848290  1
  H+  H81  1  0.65994742  0.76867665  0.84799544  1
  H+  H82  1  0.40945286  0.77247046  0.18168204  1
  H+  H83  1  0.67574018  0.94419283  0.47002922  1
  H+  H84  1  0.65480532  0.30870484  0.31556273  1
  H+  H85  1  0.88724666  0.52584870  0.50878599  1
  H+  H86  1  0.98389976  0.36912577  0.51000018  1
  H+  H87  1  0.11314554  0.22677602  0.17529423  1
  H+  H88  1  0.11116736  0.71298529  0.49436959  1
  H+  H89  1  0.77687400  0.39113349  0.49519867  1
  H+  H90  1  0.90593744  0.39354424  0.01883203  1
  H+  H91  1  0.63914979  0.00573308  0.48510675  1
  H+  H92  1  0.34937874  0.22864623  0.67605972  1
  H+  H93  1  0.32615101  0.30593905  0.95550379  1
  H+  H94  1  0.36323828  0.48579776  1.01022805  1
  H+  H95  1  0.14883809  0.51078706  0.98664834  1
  H+  H96  1  0.22119256  0.59653683  0.51136850  1
  H+  H97  1  0.09662811  0.20506566  0.99466280  1
  H+  H98  1  0.09445740  0.90987939  0.58916969  1
  H+  H99  1  0.47681591  0.61279293  0.99321340  1
  H+  H100  1  0.47981205  0.38343982  0.16140774  1
  H+  H101  1  0.37746640  0.85527729  0.99989088  1
  H+  H102  1  0.53988794  0.62881622  0.31280496  1
  H+  H103  1  0.54191192  0.90254176  0.68583691  1
  H+  H104  1  0.30004753  0.81624331  0.72844292  1
  H+  H105  1  0.56788221  0.41799033  0.05777538  1
  H+  H106  1  0.12567937  0.38399464  -0.00320135  1
  H+  H107  1  0.13336573  0.01471513  0.83638263  1
  H+  H108  1  0.88683923  0.07071801  0.55332502  1
  H+  H109  1  0.62005631  0.35450740  0.66454643  1
  H+  H110  1  0.87410180  0.28543133  0.17779668  1
  H+  H111  1  0.10987422  0.62298680  0.49674714  1
  H+  H112  1  0.04527574  0.63183746  0.67363486  1
  H+  H113  1  0.39623238  0.00526440  0.69138538  1
  H+  H114  1  0.59430950  0.88468141  0.02136530  1
  H+  H115  1  0.72647751  0.86108853  0.32629153  1
  H+  H116  1  0.41559903  0.11122451  0.30005310  1
  H+  H117  1  0.12243114  0.47879770  0.15408342  1
  H+  H118  1  0.50013930  0.10554281  0.30864668  1
  H+  H119  1  0.85705879  0.39497736  0.16940962  1
  H+  H120  1  0.36728890  0.49216639  0.34399825  1
  H+  H121  1  0.00118536  0.86642703  0.33497718  1
  H+  H122  1  0.03857574  0.37119778  0.69379064  1
  H+  H123  1  0.36110664  0.71957405  0.01562373  1
  H+  H124  1  0.05450392  0.14412548  0.42975670  1
  H+  H125  1  -0.04389936  0.11666425  0.64506274  1
  H+  H126  1  0.88570892  0.60655243  0.99060057  1
  H+  H127  1  0.40934120  0.08503040  0.90789749  1
  H+  H128  1  0.52795630  0.88808882  0.34093949  1
  H+  H129  1  0.61969129  0.96473935  0.84147443  1
  H+  H130  1  0.09175820  0.98445115  0.67244409  1
  H+  H131  1  0.53857798  0.40198765  0.33490687  1
  H+  H132  1  0.97386212  0.86295468  0.18355833  1
  H+  H133  1  0.11621706  0.47542095  0.34085661  1
  H+  H134  1  0.61985832  0.24580398  0.15135233  1
  H+  H135  1  0.62288260  0.48036359  0.49139717  1
  H+  H136  1  0.63598854  0.11901344  0.68755169  1
  H+  H137  1  0.11743610  0.84994744  0.99631346  1
  H+  H138  1  0.56890163  0.22104709  0.38483025  1
  H+  H139  1  0.10568718  0.24342556  0.66586372  1
  H+  H140  1  0.39082505  0.31055444  0.51689195  1
  H+  H141  1  0.66334176  0.83346011  0.26028029  1
  H+  H142  1  0.48349981  0.37247849  0.83605542  1
  H+  H143  1  0.48348400  0.16257236  0.56620099  1
  H+  H144  1  0.36557657  0.85887838  0.47833406  1
  H+  H145  1  0.71614934  0.83215770  0.49734900  1
  H+  H146  1  0.87673445  0.76221104  0.32920824  1
  H+  H147  1  0.36758340  0.63369755  0.01106969  1
  H+  H148  1  0.33633512  0.42534791  0.73377193  1
  H+  H149  1  0.39502395  0.03173004  0.15515525  1
  H+  H150  1  0.11918025  0.12409173  0.66281864  1
  H+  H151  1  0.61260964  0.45182421  0.73696835  1
  H+  H152  1  0.13901173  0.87424944  0.15373448  1
  H+  H153  1  -0.01147248  0.85204881  0.00767094  1
  H+  H154  1  0.81334248  0.34024899  0.64633210  1
  H+  H155  1  0.15173668  0.37657537  0.65254540  1
  H+  H156  1  0.93238469  0.51342146  0.65979231  1
  H+  H157  1  0.62661388  0.82864899  0.50733602  1
  H+  H158  1  0.60515098  0.25872764  0.83410033  1
  H+  H159  1  0.55364637  0.27386567  0.92960589  1
  H+  H160  1  0.63824840  0.54198457  0.89013030  1
  H+  H161  1  0.60301792  0.22078138  -0.00742068  1
  H+  H162  1  0.07901092  0.11163684  0.49054924  1
  H+  H163  1  0.63748946  0.12163349  0.51023088  1
  H+  H164  1  0.63104874  0.02926708  0.32331921  1
  H+  H165  1  -0.00507411  0.13034884  0.33367127  1
  H+  H166  1  0.88265167  0.09243388  0.97439208  1
  H+  H167  1  0.26838702  0.63335735  0.34232459  1
  H+  H168  1  0.40128361  0.61789785  0.65379693  1
  H+  H169  1  0.72414619  0.08922243  0.84559987  1
  H+  H170  1  0.84346772  0.95890056  0.48983886  1
  H+  H171  1  0.60352960  0.72474006  0.00340874  1
  H+  H172  1  0.02369511  0.13819684  0.17477506  1
  H+  H173  1  0.27223241  0.85527375  0.67431440  1
  H+  H174  1  0.52984724  0.63508330  0.67509711  1
  H+  H175  1  1.03749131  0.64572458  0.34066299  1
  H+  H176  1  0.40104485  0.85916765  0.66398035  1
  H+  H177  1  0.98172914  0.86051134  0.52315035  1
  H+  H178  1  0.39012909  1.02241634  0.47595389  1
  H+  H179  1  0.62065310  0.40757851  0.15047779  1
  H+  H180  1  0.90858744  0.62529959  0.32900674  1
  H+  H181  1  0.22181052  0.84483119  0.49400214  1
  H+  H182  1  0.39203895  0.52987967  0.83953923  1
  H+  H183  1  0.83328774  1.02334186  0.13759689  1
  H+  H184  1  0.35834686  -0.00974957  0.49799228  1
  H+  H185  1  0.64874939  0.76167997  0.66105229  1
  H+  H186  1  0.62853204  0.02079130  1.00471904  1
  H+  H187  1  0.60625106  0.21776106  0.69077467  1
  H+  H188  1  0.13762909  0.64069938  0.68174441  1
  H+  H189  1  0.87086106  0.12082923  0.65187437  1
  H+  H190  1  0.63434532  0.11988787  0.32808934  1
  H+  H191  1  0.76576894  0.62011370  -0.00153850  1
  H+  H192  1  0.11192198  0.73629527  1.00650731  1
  H+  H193  1  0.78276650  0.88771930  0.81321834  1
  H+  H194  1  0.86483867  0.75380908  0.98100202  1
  H+  H195  1  0.84809653  0.23776626  0.68120761  1
  H+  H196  1  0.15339760  0.62078940  0.17000136  1
  H+  H197  1  0.63667246  0.86965803  0.32511190  1
  H+  H198  1  0.39741221  0.62183946  0.83973789  1
  H+  H199  1  0.84585115  0.98660517  0.66226684  1
  H+  H200  1  0.78779357  0.61588866  0.34767828  1
  H+  H201  1  0.36354928  0.68961427  0.50149068  1
  H+  H202  1  0.86442303  0.10195790  0.33020652  1
  H+  H203  1  -0.03364596  0.85968083  0.65938932  1
  H+  H204  1  0.37187865  0.24307070  0.16250681  1
  H+  H205  1  -0.05790857  0.31783895  0.84766964  1
  H+  H206  1  0.23757189  0.37202001  0.66164053  1
  H+  H207  1  0.35914957  0.21847907  0.82089128  1
  H+  H208  1  0.89097952  0.77140691  0.17420967  1
  H+  H209  1  0.64159336  0.36798089  0.50624791  1
  H+  H210  1  0.89369130  0.77262128  0.50685843  1
  H+  H211  1  0.63410324  1.01788872  0.68876860  1
  H+  H212  1  0.87165738  0.75037564  0.65949725  1
  H+  H213  1  0.61429771  0.53411029  0.32834384  1
  H+  H214  1  0.36883542  0.48141863  0.67199422  1
  H+  H215  1  0.77693159  0.60747385  0.80536207  1
  H+  H216  1  0.48454791  0.86477399  0.85080477  1
  H+  H217  1  0.86806036  0.63595138  0.49967567  1
  H+  H218  1  0.22981235  0.36264768  -0.00605138  1
  H+  H219  1  0.12131832  0.35905025  0.32677106  1
  H+  H220  1  0.14611897  0.27171810  0.83526951  1
  H+  H221  1  0.65951665  0.23464529  0.39805501  1
  H+  H222  1  0.59085563  0.34718970  0.97852561  1
  H+  H223  1  0.21714755  0.51857264  0.64178561  1
  H+  H224  1  0.25343751  0.62787464  0.83999833  1
  H+  H225  1  0.90483434  0.82050290  0.26739955  1
  H+  H226  1  0.11796687  -0.02700363  0.53364358  1
  H+  H227  1  0.15272342  0.76723518  0.65509105  1
  H+  H228  1  0.42266456  0.57431365  0.59715157  1
  H+  H229  1  0.37552796  0.15293336  0.15836087  1
  H+  H230  1  0.03551966  0.38226507  -0.00071311  1
  H+  H231  1  -0.01338120  0.11113724  0.82608604  1
  H+  H232  1  0.89765300  0.25535818  0.00799731  1
  H+  H233  1  0.47468003  0.10980931  -0.00087306  1
  H+  H234  1  0.84268277  0.20253824  0.83309439  1
  H+  H235  1  0.58558472  0.18168202  0.79193551  1
  H+  H236  1  0.73145976  0.13108625  0.49958996  1
  H+  H237  1  -0.02180519  0.61087118  0.50691599  1
  H+  H238  1  0.77044557  0.14588222  0.16195212  1
  H+  H239  1  0.92081538  0.34977140  0.56730847  1
  H+  H240  1  0.22477527  0.37149444  0.18228049  1
  H+  H241  1  0.64108902  0.11382170  0.99472647  1
  H+  H242  1  0.58766579  0.70064079  0.47227748  1
  H+  H243  1  0.39789759  0.87143388  0.85072807  1
  H+  H244  1  0.77918033  0.63836657  0.49423821  1
  H+  H245  1  0.11360105  0.73004979  0.14938596  1
  H+  H246  1  0.36378642  0.13701476  0.01240428  1
  H+  H247  1  0.90597033  0.53597773  0.32634612  1
  H+  H248  1  0.72833348  0.12001308  0.67752824  1
  H+  H249  1  0.85753642  0.40683726  0.77128288  1
  H+  H250  1  0.37239683  0.98601167  0.83829188  1
  H+  H251  1  0.35050627  0.59773959  0.49092817  1
  H+  H252  1  0.88154801  0.75755042  0.82540446  1
  H+  H253  1  0.27244824  0.88699676  0.01168268  1
  H+  H254  1  0.23513881  0.87006726  0.84991261  1
  H+  H255  1  0.08577635  0.40941981  0.43618140  1
  H+  H256  1  0.63259433  0.12321065  0.16570362  1
  H+  H257  1  0.16716143  0.38146169  0.50027107  1
  H+  H258  1  0.29654803  0.64801539  0.67059897  1
  H+  H259  1  0.53603048  0.15176592  0.47308465  1
  H+  H260  1  0.38637406  0.85424412  0.32084397  1
  H+  H261  1  0.38708026  0.73647636  0.66663946  1
  H+  H262  1  0.14231917  0.85647626  0.51848033  1
  H+  H263  1  0.62600961  0.51921648  -0.01296858  1
  H+  H264  1  0.13058026  0.64414787  0.83080796  1
  H+  H265  1  0.11416931  0.46755914  0.49600327  1
  H+  H266  1  0.36366369  0.96312171  0.32761395  1
  H+  H267  1  0.86436293  0.12688433  0.82057134  1
  H+  H268  1  0.14867871  0.77871712  0.84538841  1
  H+  H269  1  0.13444548  0.36872502  0.17283626  1
  H+  H270  1  0.86784331  0.39527172  0.49216765  1
  H+  H271  1  0.75896364  0.87799112  0.66016671  1
  H+  H272  1  0.86922092  0.23731597  0.49373585  1
  H+  H273  1  0.32750092  0.65453904  0.40224176  1
  H+  H274  1  0.85018609  0.87279138  0.33658664  1
  H+  H275  1  0.17757726  0.09436917  0.33657948  1
  H+  H276  1  0.24371410  0.60740980  0.99726433  1
  H+  H277  1  0.77169789  0.11762138  0.01123903  1
  H+  H278  1  0.27929969  0.88535953  0.15317120  1
  H+  H279  1  0.46255541  0.58255484  0.49374463  1
  H+  H280  1  0.41182047  0.18323017  0.59039248  1
  H+  H281  1  0.12477510  0.13056285  0.82714691  1
  H+  H282  1  -0.02631348  0.42279972  0.70274928  1
  H+  H283  1  0.82082876  0.96907794  0.07946809  1
  H+  H284  1  0.66325119  0.33575301  0.56812597  1
  H+  H285  1  0.50021962  0.39154294  1.00329513  1
  H+  H286  1  0.62774374  0.77592616  0.17526123  1
  H+  H287  1  0.60672818  0.23233985  0.51208422  1
  H+  H288  1  0.16416608  0.83448425  0.93805351  1
  H+  H289  1  0.59233707  0.17726344  0.05776632  1
  H+  H290  1  0.96770840  0.47133868  0.05857815  1
  H+  H291  1  0.81946306  0.89845155  0.39802574  1
  H+  H292  1  0.67331294  0.36460407  0.89016116  1
  H+  H293  1  0.67276199  0.35993935  0.21991109  1
  H+  H294  1  0.31710453  0.15649539  0.72583984  1
  H+  H295  1  0.72058584  0.70136523  0.20140635  1
  H+  H296  1  0.33765567  0.91409118  0.06859071  1
  H+  H297  1  0.83877315  0.43040480  0.39849535  1
  H+  H298  1  0.22445770  0.10307715  0.83776963  1
  H+  H299  1  0.65599125  0.09095921  0.22770871  1
  H+  H300  1  0.11294752  0.16685229  0.76465390  1
  H+  H301  1  0.84915445  0.43303813  0.10569116  1
  H+  H302  1  0.07502453  0.91387905  0.72242594  1
  H+  H303  1  0.67375928  0.80730368  0.59517306  1
  H+  H304  1  0.57185237  0.92012885  0.10097855  1
  H+  H305  1  0.19928751  0.35607575  0.55941495  1
  H+  H306  1  0.82645815  0.65356892  0.05815093  1
  H+  H307  1  0.18948505  0.82206094  0.59422844  1
  H+  H308  1  0.90643678  0.34231582  0.23798232  1
  H+  H309  1  0.41758192  0.09418556  0.66284082  1
  H+  H310  1  0.44370728  0.35801883  0.25914307  1
  H+  H311  1  0.10002360  0.67195193  0.77122992  1
  H+  H312  1  -0.00051986  0.79825976  0.05767399  1
  H+  H313  1  0.15077538  0.32994743  0.25933538  1
  H+  H314  1  0.61022274  -0.00881293  0.16271092  1
  H+  H315  1  0.82139486  0.08699127  0.05500508  1
  H+  H316  1  0.83613526  0.66362901  0.71916481  1
  H+  H317  1  0.07802278  0.66999702  0.07048103  1
  H+  H318  1  0.41521986  0.82883293  0.94316595  1
  H+  H319  1  0.82858082  0.17383031  0.39849902  1
  H+  H320  1  0.85880530  0.87781544  0.49257634  1
  H+  H321  1  0.32814845  0.43236537  0.10892534  1
  H+  H322  1  0.43356851  0.08459887  0.21449695  1
  H+  H323  1  0.09163508  0.66607391  0.40246332  1
  H+  H324  1  0.19240433  0.58422111  0.92734878  1
  H+  H325  1  0.06795124  0.92056348  0.11078876  1
  H+  H326  1  0.94051909  0.57606554  0.60477818  1
  H+  H327  1  0.22496449  0.11824053  0.17915157  1
  H+  H328  1  0.66461435  0.61848539  0.23963834  1
  H+  H329  1  0.82914847  0.92314781  0.72373416  1
  H+  H330  1  0.15027651  0.09063871  0.57260364  1
  H+  H331  1  0.53706019  0.64780844  0.41282440  1
  H+  H332  1  0.43059802  0.82985575  0.24170850  1
  H+  H333  1  0.16353935  0.07091812  0.93515018  1
  H+  H334  1  0.40723483  0.61801014  0.22466018  1
  H+  H335  1  0.43325057  0.34983761  0.61614470  1
  H+  H336  1  0.38872312  0.76748644  0.33206446  1
  H+  H337  1  0.16620920  0.53586422  0.83923903  1
  H+  H338  1  0.35701557  0.45363845  0.40862493  1
  H+  H339  1  0.41962371  0.33262152  0.89116139  1
  H+  H340  1  0.59338190  0.43193433  0.39774425  1
  H+  H341  1  0.14965527  0.07395936  0.26522949  1
  H+  H342  1  0.34207486  0.92079037  0.78185659  1
  H+  H343  1  0.41600420  0.58463476  0.93424429  1
  H+  H344  1  0.62138092  0.83115088  0.94303836  1
  H+  H345  1  0.38862293  0.62613595  0.32682326  1
  H+  H346  1  0.32466555  0.89176532  0.38084487  1
  H+  H347  1  0.72793751  0.84365872  0.89415598  1
  H+  H348  1  0.90697082  0.30536876  0.94642386  1
  H+  H349  1  0.20956201  0.12395475  0.66373370  1
  H+  H350  1  0.90707348  0.82482737  0.59722344  1
  H+  H351  1  0.16557505  0.84527292  0.09569516  1
  H+  H352  1  0.14072779  0.61636714  0.32764128  1
  H+  H353  1  0.09932133  0.42046975  0.09475237  1
  H+  H354  1  0.90961610  0.53007437  0.99485676  1
  H+  H355  1  0.55743037  0.26872780  0.62931805  1
  H+  H356  1  0.66331023  0.58750290  0.55759251  1
  H+  H357  1  0.67023873  0.06553702  0.90780697  1
  H+  H358  1  0.58760607  0.66262047  0.73632212  1
  H+  H359  1  0.83516433  0.17882974  0.10684103  1
  H+  H360  1  0.44984061  0.85745029  0.60344248  1
  H+  H361  1  0.08184323  0.42981087  0.77161277  1
  H+  H362  1  0.16903380  0.58358654  0.26872480  1
  H+  H363  1  0.92570372  0.58226611  0.89251926  1
  H+  H364  1  0.90129185  0.07877961  0.23427828  1
  H+  H365  1  0.16361216  0.56254058  0.57100091  1
  H+  H366  1  0.31325848  0.15599899  0.31104008  1
  H+  H367  1  0.10538603  0.86976812  0.33509540  1
  H+  H368  1  0.33173105  0.17148302  0.06840940  1
  H+  H369  1  0.87213552  0.62597308  0.81177851  1
  H+  H370  1  0.59910679  0.92999686  0.39441842  1
  H+  H371  1  0.17656100  0.33104171  0.93093252  1
  H+  H372  1  0.60435517  0.61767859  0.82757515  1
  H+  H373  1  0.31824839  0.20962860  0.44176552  1
  H+  H374  1  0.83223164  0.17123786  0.73630843  1
  H+  H375  1  0.87318550  0.97602973  0.81087467  1
  H+  H376  1  0.59369752  0.92639705  0.75025623  1
  H+  H377  1  0.35649015  0.65686583  0.11565452  1
  H+  H378  1  0.92938323  0.59509360  0.23236360  1
  H+  H379  1  0.87027805  0.34377392  0.85069969  1
  H+  H380  1  0.78696770  0.41013304  0.33499747  1
  H+  H381  1  0.92226419  0.07486118  0.88302212  1
  H+  H382  1  0.28813357  0.78162744  0.44460081  1
  H+  H383  1  0.03887675  0.19488334  0.71842740  1
  O2-  O384  1  0.08640296  0.16423718  0.16823075  1
  O2-  O385  1  0.04465136  0.13624844  0.47400671  1
  O2-  O386  1  0.10050172  0.16605374  0.80798700  1
  O2-  O387  1  0.09555953  0.41885365  0.13946301  1
  O2-  O388  1  0.08569189  0.40672887  0.48154221  1
  O2-  O389  1  0.10416332  0.43213040  0.81679114  1
  O2-  O390  1  0.08464832  0.66769948  0.13870038  1
  O2-  O391  1  0.08109456  0.65279795  0.47833419  1
  O2-  O392  1  0.09790773  0.67201659  0.81686321  1
  O2-  O393  1  0.08125689  0.92340429  0.15453778  1
  O2-  O394  1  0.09188346  0.91060575  0.54440449  1
  O2-  O395  1  0.08238864  0.91063331  0.80708484  1
  O2-  O396  1  0.33745223  0.17871066  0.15791308  1
  O2-  O397  1  0.29443311  0.22632432  0.47543592  1
  O2-  O398  1  0.32655354  0.15728416  0.80951033  1
  O2-  O399  1  0.33026848  0.43287108  0.15429959  1
  O2-  O400  1  0.37196796  0.46224784  0.49525262  1
  O2-  O401  1  0.34013609  0.42501369  0.81006326  1
  O2-  O402  1  0.35878199  0.66146577  0.16114640  1
  O2-  O403  1  0.32531396  0.63554170  0.48107041  1
  O2-  O404  1  0.35193936  0.68005740  0.81166069  1
  O2-  O405  1  0.34235522  0.91491873  0.14564194  1
  O2-  O406  1  0.31384563  0.84287492  0.45290934  1
  O2-  O407  1  0.34297574  0.92321248  0.82662975  1
  O2-  O408  1  0.59334651  0.18516766  0.13642452  1
  O2-  O409  1  0.56713455  0.16751824  0.51154315  1
  O2-  O410  1  0.57576402  0.19561350  0.83372093  1
  O2-  O411  1  0.58637594  0.43416585  0.13383764  1
  O2-  O412  1  0.59159654  0.41891190  0.47746680  1
  O2-  O413  1  0.66957539  0.51135621  0.81033235  1
  O2-  O414  1  0.57144893  0.67962814  0.13987658  1
  O2-  O415  1  0.55255096  0.64181183  0.45519360  1
  O2-  O416  1  0.59061289  0.66319264  0.81708324  1
  O2-  O417  1  0.58125088  0.92695073  0.15033044  1
  O2-  O418  1  0.62113779  0.94355419  0.46912376  1
  O2-  O419  1  0.58545666  0.90364499  0.82297965  1
  O2-  O420  1  0.83218050  0.18117735  0.15164129  1
  O2-  O421  1  0.83410917  0.17932573  0.47524297  1
  O2-  O422  1  0.82519289  0.14937464  0.80915107  1
  O2-  O423  1  0.83383108  0.43158434  0.14900896  1
  O2-  O424  1  0.83547690  0.42342227  0.47721840  1
  O2-  O425  1  0.84504419  0.40880930  0.81515119  1
  O2-  O426  1  0.83805696  0.66367002  0.13736895  1
  O2-  O427  1  0.84040570  0.66764895  0.48092209  1
  O2-  O428  1  0.83729966  0.65110240  0.79612770  1
  O2-  O429  1  0.79703026  1.00049469  0.10010836  1
  O2-  O430  1  0.81973987  0.89760999  0.47606557  1
  O2-  O431  1  0.84067114  0.91613277  0.79373224  1
  O2-  O432  1  0.16568242  0.08522280  0.19512335  1
  O2-  O433  1  0.14873258  0.07962407  0.52765449  1
  O2-  O434  1  0.16369364  0.07476064  0.85277915  1
  O2-  O435  1  0.16314805  0.33896952  0.19454388  1
  O2-  O436  1  0.21224489  0.36954878  0.51590400  1
  O2-  O437  1  0.17566569  0.33173604  0.85145664  1
  O2-  O438  1  0.17744500  0.58704070  0.18825848  1
  O2-  O439  1  0.16103143  0.56951688  0.52620569  1
  O2-  O440  1  0.19393509  0.59463226  0.85808806  1
  O2-  O441  1  0.16825322  0.84146437  0.13988348  1
  O2-  O442  1  0.16687720  0.81734868  0.51612166  1
  O2-  O443  1  0.17357176  0.83772522  0.86288337  1
  O2-  O444  1  0.42527205  0.09173881  0.17054683  1
  O2-  O445  1  0.46123042  0.17800273  0.60231244  1
  O2-  O446  1  0.41270855  0.08677183  0.86264523  1
  O2-  O447  1  0.42176959  0.35019146  0.17987072  1
  O2-  O448  1  0.43720205  0.36372453  0.53532387  1
  O2-  O449  1  0.42272042  0.33660726  0.84617440  1
  O2-  O450  1  0.40364988  0.61365815  0.17881947  1
  O2-  O451  1  0.40577743  0.55122069  0.51678217  1
  O2-  O452  1  0.42395135  0.58906383  0.85702606  1
  O2-  O453  1  0.43311227  0.83297817  0.19553812  1
  O2-  O454  1  0.46170923  0.89643487  0.52324309  1
  O2-  O455  1  0.42319768  0.83583953  0.86489185  1
  O2-  O456  1  0.65618645  0.08692079  0.18242181  1
  O2-  O457  1  0.67045002  0.09123085  0.51172244  1
  O2-  O458  1  0.66578882  0.05676982  0.86308133  1
  O2-  O459  1  0.66806326  0.35481153  0.17476697  1
  O2-  O460  1  0.66994074  0.33594981  0.52289956  1
  O2-  O461  1  0.68483849  0.37943630  0.84644900  1
  O2-  O462  1  0.68326473  0.63924279  0.19692595  1
  O2-  O463  1  0.66810605  0.58516024  0.51216133  1
  O2-  O464  1  0.60750426  0.51928174  0.85034387  1
  O2-  O465  1  0.66438912  0.83247394  0.19627167  1
  O2-  O466  1  0.65565404  0.79548438  0.51304896  1
  O2-  O467  1  0.69013439  0.83132578  0.85784448  1
  O2-  O468  1  0.90975867  0.09059243  0.18985951  1
  O2-  O469  1  0.88435098  0.06511254  0.50838650  1
  O2-  O470  1  0.92474452  0.07947091  0.83698952  1
  O2-  O471  1  0.89700658  0.34453417  0.19378949  1
  O2-  O472  1  0.92232877  0.34483126  0.52286828  1
  O2-  O473  1  0.88837734  0.30283115  0.86817028  1
  O2-  O474  1  0.92702564  0.59359096  0.18679717  1
  O2-  O475  1  0.91951715  0.58571034  0.52504433  1
  O2-  O476  1  0.92732300  0.57787867  0.84770500  1
  O2-  O477  1  0.91329664  0.82618388  0.19658019  1
  O2-  O478  1  0.91766295  0.83209194  0.52365912  1
  O2-  O479  1  0.91111246  0.81667852  0.84297746  1
  O2-  O480  1  0.12877017  0.06181654  0.30971865  1
  O2-  O481  1  0.14749100  0.09229009  0.64919475  1
  O2-  O482  1  0.15883969  0.07030667  0.98002796  1
  O2-  O483  1  0.14256109  0.32110767  0.30714223  1
  O2-  O484  1  0.17801028  0.34210273  0.64213045  1
  O2-  O485  1  0.17116931  0.32997363  0.97611378  1
  O2-  O486  1  0.16803751  0.58239635  0.31405472  1
  O2-  O487  1  0.18178643  0.54516996  0.64750855  1
  O2-  O488  1  0.18567480  0.57540201  0.97422077  1
  O2-  O489  1  0.14924669  0.83490395  0.31918136  1
  O2-  O490  1  0.19151467  0.82614740  0.63928057  1
  O2-  O491  1  0.15843006  0.83022830  0.98420375  1
  O2-  O492  1  0.44117091  0.07374371  0.29369006  1
  O2-  O493  1  0.42320571  0.06652009  0.69999772  1
  O2-  O494  1  0.41257608  0.08337362  0.98785303  1
  O2-  O495  1  0.45007040  0.34656505  0.30246626  1
  O2-  O496  1  0.42873165  0.34402538  0.66120299  1
  O2-  O497  1  0.38216436  0.31689059  0.97004992  1
  O2-  O498  1  0.42236987  0.60355543  0.30399587  1
  O2-  O499  1  0.42707035  0.58203476  0.64199684  1
  O2-  O500  1  0.41503194  0.58391944  0.97996185  1
  O2-  O501  1  0.42295496  0.82734593  0.31519748  1
  O2-  O502  1  0.44273879  0.84268918  0.64718785  1
  O2-  O503  1  0.40986518  0.82517366  0.98871284  1
  O2-  O504  1  0.65945553  0.08944390  0.30723370  1
  O2-  O505  1  0.66421498  0.08576742  0.66987733  1
  O2-  O506  1  0.66815089  0.07771305  0.98693821  1
  O2-  O507  1  0.68406198  0.36818760  0.30044087  1
  O2-  O508  1  0.61833000  0.30545325  0.64198004  1
  O2-  O509  1  0.60485107  0.30872020  0.95407641  1
  O2-  O510  1  0.62715387  0.59236471  0.31226924  1
  O2-  O511  1  0.66911081  0.58808702  0.63536118  1
  O2-  O512  1  0.66192634  0.57752112  0.96905344  1
  O2-  O513  1  0.66482889  0.83630798  0.30915977  1
  O2-  O514  1  0.68024413  0.81854760  0.63946320  1
  O2-  O515  1  0.63609476  0.83311491  0.98616267  1
  O2-  O516  1  0.89379291  0.07128719  0.31385605  1
  O2-  O517  1  0.89422423  0.08505414  0.63475119  1
  O2-  O518  1  0.90995554  0.06168462  0.95627782  1
  O2-  O519  1  0.92159972  0.34134329  0.31796245  1
  O2-  O520  1  0.86783841  0.34192229  0.65478891  1
  O2-  O521  1  0.92375916  0.31355595  0.99014138  1
  O2-  O522  1  0.93825060  0.59651422  0.31060811  1
  O2-  O523  1  0.95440293  0.57405525  0.64812701  1
  O2-  O524  1  0.92749910  0.58769636  0.97709374  1
  O2-  O525  1  0.90430261  0.82249955  0.31410033  1
  O2-  O526  1  0.90536653  0.82193547  0.64332954  1
  O2-  O527  1  0.89472970  0.81449671  0.96634346  1
  O2-  O528  1  0.06208230  0.14305958  0.00215148  1
  O2-  O529  1  0.05785698  0.16223833  0.34503597  1
  O2-  O530  1  0.06293516  0.18459847  0.68171829  1
  O2-  O531  1  0.09781461  0.41908172  0.00903674  1
  O2-  O532  1  0.08556406  0.41474133  0.35584344  1
  O2-  O533  1  0.05325174  0.42796674  0.70878862  1
  O2-  O534  1  0.07758398  0.67387856  0.02288054  1
  O2-  O535  1  0.09760913  0.67670652  0.35734538  1
  O2-  O536  1  0.10514527  0.66873993  0.69305948  1
  O2-  O537  1  0.03282959  0.85255822  0.03604653  1
  O2-  O538  1  0.06435654  0.90021229  0.34861606  1
  O2-  O539  1  0.06463588  0.92132401  0.67904112  1
  O2-  O540  1  0.33395242  0.16983094  0.02369952  1
  O2-  O541  1  0.36108739  0.16635955  0.28486824  1
  O2-  O542  1  0.31084200  0.16622046  0.68220438  1
  O2-  O543  1  0.33109799  0.42714936  0.02979524  1
  O2-  O544  1  0.33021199  0.44139703  0.36837086  1
  O2-  O545  1  0.33445259  0.42140446  0.68811417  1
  O2-  O546  1  0.33330592  0.65841999  0.02975621  1
  O2-  O547  1  0.32944484  0.66480107  0.35773181  1
  O2-  O548  1  0.35672679  0.67692174  0.68429320  1
  O2-  O549  1  0.33382909  0.91481162  0.02306776  1
  O2-  O550  1  0.32413286  0.90169164  0.33632033  1
  O2-  O551  1  0.32395399  0.86767893  0.70307312  1
  O2-  O552  1  0.58486983  0.16500103  0.01316986  1
  O2-  O553  1  0.61389199  0.21210748  0.36742341  1
  O2-  O554  1  0.59080077  0.16394757  0.71334337  1
  O2-  O555  1  0.56122608  0.41415523  0.01238813  1
  O2-  O556  1  0.59851986  0.44037332  0.35269858  1
  O2-  O557  1  0.59810990  0.43310427  0.69418809  1
  O2-  O558  1  0.58067945  0.66402495  0.01620743  1
  O2-  O559  1  0.50924100  0.65645047  0.33078469  1
  O2-  O560  1  0.58982165  0.66401586  0.69090577  1
  O2-  O561  1  0.56394183  0.91436587  0.03860930  1
  O2-  O562  1  0.59119401  0.92326916  0.34906216  1
  O2-  O563  1  0.59917304  0.93837285  0.70502728  1
  O2-  O564  1  0.83041965  0.13638018  0.02798055  1
  O2-  O565  1  0.82898707  0.17076100  0.35289090  1
  O2-  O566  1  0.83012364  0.17704603  0.69065026  1
  O2-  O567  1  0.91308704  0.44787093  0.03698055  1
  O2-  O568  1  0.84523800  0.43359262  0.35320876  1
  O2-  O569  1  0.90918491  0.41572038  0.69778276  1
  O2-  O570  1  0.82690550  0.65071428  0.01274304  1
  O2-  O571  1  0.84390353  0.66158385  0.36094823  1
  O2-  O572  1  0.83291980  0.67281196  0.67451338  1
  O2-  O573  1  0.79730404  0.89038792  -0.04095309  1
  O2-  O574  1  0.81780184  0.90105275  0.35242159  1
  O2-  O575  1  0.82252273  0.92582294  0.67752179  1
