# generated using pymatgen
data_H2O
_symmetry_space_group_name_H-M   'P 1'
_cell_length_a   17.97778984
_cell_length_b   17.97873151
_cell_length_c   21.97259372
_cell_angle_alpha   90.01689965
_cell_angle_beta   89.98042010
_cell_angle_gamma   120.05086646
_symmetry_Int_Tables_number   1
_chemical_formula_structural   H2O
_chemical_formula_sum   'H384 O192'
_cell_volume   6147.30047424
_cell_formula_units_Z   192
loop_
 _symmetry_equiv_pos_site_id
 _symmetry_equiv_pos_as_xyz
  1  'x, y, z'
loop_
 _atom_type_symbol
 _atom_type_oxidation_number
  H+  1.0
  O2-  -2.0
loop_
 _atom_site_type_symbol
 _atom_site_label
 _atom_site_symmetry_multiplicity
 _atom_site_fract_x
 _atom_site_fract_y
 _atom_site_fract_z
 _atom_site_occupancy
  H+  H0  1  0.87575797  0.02554807  1.00783131  1
  H+  H1  1  0.32585874  0.56757684  -0.03274502  1
  H+  H2  1  0.32471984  0.92436199  0.77003267  1
  H+  H3  1  0.74087701  0.85779690  0.84535960  1
  H+  H4  1  0.27577949  0.85138360  0.47349734  1
  H+  H5  1  0.61829839  0.22739909  0.15844484  1
  H+  H6  1  0.38308161  0.35550139  0.23164176  1
  H+  H7  1  0.59124641  0.90622214  0.00731675  1
  H+  H8  1  0.58768213  0.91944671  0.39711236  1
  H+  H9  1  0.51834393  0.13091575  0.33430837  1
  H+  H10  1  0.34555904  0.23516414  0.64706463  1
  H+  H11  1  0.39495834  0.36662830  0.99261551  1
  H+  H12  1  0.39781473  0.27930014  0.99436091  1
  H+  H13  1  0.61762848  0.61216635  0.49583814  1
  H+  H14  1  0.13962371  0.09868070  0.00626857  1
  H+  H15  1  0.47752310  0.60110999  0.83485642  1
  H+  H16  1  0.12821636  0.52845722  0.65491556  1
  H+  H17  1  0.38949400  0.32554300  0.41015308  1
  H+  H18  1  0.08843496  0.38348984  0.69008343  1
  H+  H19  1  0.21824785  0.11134691  0.85293800  1
  H+  H20  1  0.74361516  0.88633166  0.04445172  1
  H+  H21  1  0.54772584  0.41482160  0.60244138  1
  H+  H22  1  0.87378458  0.10123973  0.65497373  1
  H+  H23  1  0.47773154  0.73533823  0.03609842  1
  H+  H24  1  0.87465042  0.75581402  0.66468374  1
  H+  H25  1  0.82084103  0.15980802  0.40037952  1
  H+  H26  1  0.61825116  0.13788947  0.15756046  1
  H+  H27  1  0.38182006  0.51372242  0.49146007  1
  H+  H28  1  0.61760407  0.62953432  0.82435455  1
  H+  H29  1  0.36189857  0.71489484  0.48387771  1
  H+  H30  1  0.60306333  0.38070620  0.34304098  1
  H+  H31  1  0.09601174  0.12954434  0.67179068  1
  H+  H32  1  0.13934558  0.52772336  0.84934546  1
  H+  H33  1  0.85552139  0.86557708  0.01131157  1
  H+  H34  1  0.65041893  0.59684221  0.21133689  1
  H+  H35  1  0.74004526  0.61848347  0.83154340  1
  H+  H36  1  0.02727001  0.39077440  0.15841945  1
  H+  H37  1  0.84067705  0.53353557  0.74614759  1
  H+  H38  1  1.08839654  0.96853178  0.49374848  1
  H+  H39  1  0.96487311  0.10603577  0.65235710  1
  H+  H40  1  0.08952416  0.84523855  0.52326501  1
  H+  H41  1  0.60842702  0.00012519  1.01025534  1
  H+  H42  1  0.20728430  0.11095142  0.65838329  1
  H+  H43  1  0.38615938  0.59843292  0.83164456  1
  H+  H44  1  0.35684476  0.21223803  0.35325751  1
  H+  H45  1  0.77445304  0.88426412  0.48705234  1
  H+  H46  1  0.37025326  0.02679950  0.83438594  1
  H+  H47  1  0.72467599  0.11533943  0.32556749  1
  H+  H48  1  0.60383384  0.58916601  0.30488454  1
  H+  H49  1  0.14989422  0.77385461  0.83971205  1
  H+  H50  1  0.35472293  0.46752452  -0.00357876  1
  H+  H51  1  0.92253401  0.63739496  0.99160397  1
  H+  H52  1  0.19111411  0.71941681  0.78885865  1
  H+  H53  1  0.88288387  0.74968612  0.00598005  1
  H+  H54  1  0.63719067  0.76923419  0.49897941  1
  H+  H55  1  0.10878544  0.13272515  0.33483847  1
  H+  H56  1  0.62033164  0.36048801  1.00804630  1
  H+  H57  1  0.15229079  0.71836385  0.40624153  1
  H+  H58  1  0.11551514  0.89202036  0.68219033  1
  H+  H59  1  0.00660615  0.36768278  -0.00585060  1
  H+  H60  1  0.63627099  0.35861526  0.17693082  1
  H+  H61  1  0.63667138  0.62619094  0.04045643  1
  H+  H62  1  0.86095341  0.97775477  0.66287077  1
  H+  H63  1  0.88556761  0.27366972  0.34249861  1
  H+  H64  1  0.47134412  0.35713620  0.49990787  1
  H+  H65  1  0.36537998  0.88503856  0.68708860  1
  H+  H66  1  0.37609953  0.52864882  0.16037603  1
  H+  H67  1  0.62927359  0.55132888  0.14902995  1
  H+  H68  1  0.13194479  0.36107218  0.16502421  1
  H+  H69  1  0.14221945  0.52659483  0.17333266  1
  H+  H70  1  0.14778800  0.66487845  0.34514731  1
  H+  H71  1  0.18037690  0.87218740  1.00203434  1
  H+  H72  1  0.14429141  0.90013982  0.34407329  1
  H+  H73  1  0.51452103  0.62881428  0.33166007  1
  H+  H74  1  0.22241276  0.60162419  0.32728577  1
  H+  H75  1  -0.01546678  0.61747424  0.18428458  1
  H+  H76  1  0.46491509  0.61991633  0.16322912  1
  H+  H77  1  0.28025474  0.07074842  0.70053910  1
  H+  H78  1  0.61171035  0.39078389  0.49834551  1
  H+  H79  1  0.61461136  0.90285792  0.80979213  1
  H+  H80  1  0.60492072  0.79267922  0.99992718  1
  H+  H81  1  0.39647673  0.56747347  0.92267576  1
  H+  H82  1  0.49052092  0.36847946  0.83861201  1
  H+  H83  1  0.23248512  0.35457274  0.84056452  1
  H+  H84  1  0.78733868  0.15696964  0.00572737  1
  H+  H85  1  0.40763181  0.91390826  0.84981052  1
  H+  H86  1  0.49995976  0.92456467  0.84067920  1
  H+  H87  1  0.27152970  0.64635379  0.15602569  1
  H+  H88  1  0.61744544  0.73824273  0.67031062  1
  H+  H89  1  0.43648590  0.92025159  0.01909668  1
  H+  H90  1  0.13677297  1.01674281  0.85431143  1
  H+  H91  1  0.37081403  0.38094112  0.82521159  1
  H+  H92  1  0.62356454  0.51797926  0.50468323  1
  H+  H93  1  0.61629242  0.26060798  1.00197350  1
  H+  H94  1  0.86433515  0.46647803  0.82443845  1
  H+  H95  1  0.63158442  0.48592195  0.82660947  1
  H+  H96  1  0.78551691  0.39333456  0.16906714  1
  H+  H97  1  0.36412956  0.11331182  0.49109228  1
  H+  H98  1  0.64480445  0.28101833  0.85387916  1
  H+  H99  1  0.87349701  0.23026561  0.82374461  1
  H+  H100  1  0.26710729  0.39029962  0.48367157  1
  H+  H101  1  0.89804909  0.61892691  0.18529189  1
  H+  H102  1  0.11525110  0.21140725  1.00771376  1
  H+  H103  1  0.63573060  0.33300130  0.67379515  1
  H+  H104  1  0.77700499  0.88304910  0.33485148  1
  H+  H105  1  0.35360588  0.38586410  0.48305090  1
  H+  H106  1  0.52773071  0.88060898  0.48683584  1
  H+  H107  1  0.63772312  0.87575968  0.17128099  1
  H+  H108  1  0.37055010  0.14187249  0.00967659  1
  H+  H109  1  0.13401809  0.31032779  0.75244707  1
  H+  H110  1  0.16780636  0.31810901  0.93515313  1
  H+  H111  1  0.27336352  0.62354143  0.83096793  1
  H+  H112  1  0.38858520  0.72067147  0.88832305  1
  H+  H113  1  0.86479267  0.89387266  0.81982058  1
  H+  H114  1  0.71932853  0.78589921  0.89334251  1
  H+  H115  1  0.18965609  0.79465274  0.33701378  1
  H+  H116  1  0.04888759  0.64350021  0.01533285  1
  H+  H117  1  0.38820204  0.85563235  0.48468662  1
  H+  H118  1  0.64056607  0.02883589  0.17103885  1
  H+  H119  1  1.01345493  0.38861447  0.48660093  1
  H+  H120  1  0.89938121  0.83620632  0.89988527  1
  H+  H121  1  0.60512639  0.07203466  0.54859695  1
  H+  H122  1  0.85710061  0.39356127  0.49473922  1
  H+  H123  1  0.27480437  0.88482059  0.67589366  1
  H+  H124  1  -0.01194797  0.37386103  0.34138693  1
  H+  H125  1  0.62322347  0.23936852  0.66813806  1
  H+  H126  1  0.42159657  1.08883091  0.22904680  1
  H+  H127  1  0.64340374  0.64049828  0.65282424  1
  H+  H128  1  0.10988534  0.64389395  0.67378080  1
  H+  H129  1  0.14096305  0.72620092  0.01727165  1
  H+  H130  1  0.94074656  0.87857477  0.22163867  1
  H+  H131  1  0.14289462  -0.01957979  1.01983220  1
  H+  H132  1  0.86578888  0.32442894  0.65128593  1
  H+  H133  1  0.88406188  0.53213210  0.50088672  1
  H+  H134  1  0.67700424  0.52199623  0.99110164  1
  H+  H135  1  0.36624187  0.46734989  0.82268244  1
  H+  H136  1  0.46350227  0.65320447  0.00164264  1
  H+  H137  1  0.16171637  0.89839325  0.17837995  1
  H+  H138  1  0.37863665  0.28560728  0.18218846  1
  H+  H139  1  1.00837207  0.72051498  0.86973920  1
  H+  H140  1  0.01933930  0.88632438  0.83412528  1
  H+  H141  1  0.77898249  0.38548101  0.84842020  1
  H+  H142  1  0.01890255  0.13281903  0.33177922  1
  H+  H143  1  0.62483735  0.14711895  0.48057099  1
  H+  H144  1  0.11304552  0.22089576  0.16019996  1
  H+  H145  1  0.64583831  0.37128838  0.84909633  1
  H+  H146  1  0.90427483  0.27444117  -0.00104868  1
  H+  H147  1  -0.09875992  0.37302412  0.17377320  1
  H+  H148  1  0.52536814  0.39135913  0.01724511  1
  H+  H149  1  0.02415624  0.12523874  0.00971438  1
  H+  H150  1  0.35503956  0.39538813  0.15200581  1
  H+  H151  1  0.86408664  0.72458442  0.48036139  1
  H+  H152  1  0.35073111  0.83368688  0.02767344  1
  H+  H153  1  0.10132680  0.48124564  0.48957376  1
  H+  H154  1  0.89574793  0.87912371  0.64918381  1
  H+  H155  1  0.39626346  0.10468457  0.65361273  1
  H+  H156  1  0.38991741  0.01342871  0.65924533  1
  H+  H157  1  0.37931108  0.01777251  0.31604540  1
  H+  H158  1  0.39718938  0.86766276  0.17895136  1
  H+  H159  1  0.52539984  0.89146271  0.16311506  1
  H+  H160  1  0.42971981  0.81686607  0.90671765  1
  H+  H161  1  0.37617038  0.84615321  0.32332578  1
  H+  H162  1  0.37479522  0.15249004  0.16394333  1
  H+  H163  1  0.09727809  0.10099487  0.50489462  1
  H+  H164  1  0.12211402  1.02035550  0.66535923  1
  H+  H165  1  0.17763674  0.69378954  0.49692091  1
  H+  H166  1  0.88135344  0.77859493  0.83899208  1
  H+  H167  1  0.60590463  0.71704965  0.33363623  1
  H+  H168  1  0.86371265  0.88536956  0.48611162  1
  H+  H169  1  0.86039522  0.13935681  0.34051243  1
  H+  H170  1  0.83310917  0.91873330  0.72338654  1
  H+  H171  1  0.31321233  0.90240727  0.38199320  1
  H+  H172  1  0.02474701  0.65970466  0.83110044  1
  H+  H173  1  0.14318689  0.11080701  0.17335532  1
  H+  H174  1  0.90078754  0.86821848  0.32391260  1
  H+  H175  1  0.35349591  0.95252643  0.48169121  1
  H+  H176  1  0.51233676  0.39350269  0.17988681  1
  H+  H177  1  0.36690706  0.72044123  0.67974522  1
  H+  H178  1  0.87035532  0.26677896  0.48998308  1
  H+  H179  1  0.32711206  0.35889564  0.66952967  1
  H+  H180  1  0.52319364  0.13418611  0.00677521  1
  H+  H181  1  0.87311178  0.73158485  0.32940425  1
  H+  H182  1  0.87134822  0.49015074  1.01172020  1
  H+  H183  1  0.21917800  0.61570496  0.66040382  1
  H+  H184  1  0.13967195  0.61474175  0.17736236  1
  H+  H185  1  0.95073432  0.90571500  0.99226147  1
  H+  H186  1  0.35044712  0.14501911  0.82997448  1
  H+  H187  1  0.39291104  0.02007908  0.98516318  1
  H+  H188  1  0.88411311  0.02538760  0.16218749  1
  H+  H189  1  0.59928862  0.45778752  0.21014211  1
  H+  H190  1  0.09146292  0.21657537  0.68034027  1
  H+  H191  1  0.75105710  0.12151452  0.49985540  1
  H+  H192  1  0.12346057  0.37491938  0.00497148  1
  H+  H193  1  0.36229358  0.62558084  0.48636953  1
  H+  H194  1  0.17561223  0.83316061  0.90227829  1
  H+  H195  1  0.77889539  0.14236335  0.15725551  1
  H+  H196  1  0.75898892  0.10216408  0.67808729  1
  H+  H197  1  -0.01148931  0.86591051  0.32384631  1
  H+  H198  1  0.08507628  0.15678810  0.10371704  1
  H+  H199  1  0.13616929  0.37075913  0.49885348  1
  H+  H200  1  0.12581081  0.73016783  0.17042065  1
  H+  H201  1  0.88717207  0.66509153  0.81457386  1
  H+  H202  1  0.62915255  0.26917233  0.32730375  1
  H+  H203  1  0.89714567  0.36291138  0.85043259  1
  H+  H204  1  0.22900046  0.34840053  0.99328611  1
  H+  H205  1  0.28518082  0.50903434  0.60367045  1
  H+  H206  1  0.23937068  0.61803439  0.99873739  1
  H+  H207  1  0.47612230  0.09202021  0.49881873  1
  H+  H208  1  0.44727169  0.83966940  0.73605780  1
  H+  H209  1  0.84376819  0.18066554  0.06762568  1
  H+  H210  1  0.65080245  0.13313498  -0.00804949  1
  H+  H211  1  0.22635448  0.10981402  0.33075277  1
  H+  H212  1  0.14113670  0.78064853  0.67322881  1
  H+  H213  1  0.63685227  0.85912808  0.32608157  1
  H+  H214  1  0.54935889  0.14329394  0.86006964  1
  H+  H215  1  0.26269233  0.86369295  -0.01024730  1
  H+  H216  1  0.91448723  0.83042870  0.55339509  1
  H+  H217  1  0.83994369  0.52606538  0.71227998  1
  H+  H218  1  0.61553696  0.71569658  0.82884286  1
  H+  H219  1  0.59038656  0.59241934  1.03601162  1
  H+  H220  1  0.10694263  0.88189294  0.83369503  1
  H+  H221  1  0.65516476  0.03904674  0.59590647  1
  H+  H222  1  0.07804765  0.42098653  0.39932794  1
  H+  H223  1  0.95579557  0.33100841  0.63988564  1
  H+  H224  1  0.66276383  0.56177680  0.65646388  1
  H+  H225  1  0.85619821  0.63595378  0.32605831  1
  H+  H226  1  0.61306210  -0.03052903  0.50006210  1
  H+  H227  1  0.89943500  0.28389330  0.16899004  1
  H+  H228  1  0.13478080  0.28248551  0.49804164  1
  H+  H229  1  0.13746350  0.35864420  0.32159318  1
  H+  H230  1  0.77070458  0.39618934  0.50312489  1
  H+  H231  1  0.75713246  0.33741834  0.67745882  1
  H+  H232  1  0.14974082  -0.00717279  0.17247500  1
  H+  H233  1  -0.01203350  0.36435338  0.84542129  1
  H+  H234  1  0.66865866  0.85086092  0.94850820  1
  H+  H235  1  0.01108561  0.14537433  0.48384663  1
  H+  H236  1  0.73188492  0.86863455  0.65230065  1
  H+  H237  1  0.35947370  0.71033234  0.33557154  1
  H+  H238  1  0.84203142  0.19736584  0.66505447  1
  H+  H239  1  0.42098020  0.06046558  0.55986632  1
  H+  H240  1  0.26349302  0.89504812  0.83034935  1
  H+  H241  1  0.06661166  0.88184578  0.02768090  1
  H+  H242  1  0.63844102  0.85896633  0.49941874  1
  H+  H243  1  0.88161203  0.02243136  0.32413475  1
  H+  H244  1  0.12657771  0.38645676  0.84056782  1
  H+  H245  1  0.75459992  0.88441481  0.14178502  1
  H+  H246  1  0.86722372  0.14048165  0.15632336  1
  H+  H247  1  0.52085437  0.11814658  0.68352218  1
  H+  H248  1  0.44892306  0.11886124  0.81752756  1
  H+  H249  1  0.51662145  0.62762574  0.48530240  1
  H+  H250  1  0.25540903  0.87258817  0.17787058  1
  H+  H251  1  0.89987790  0.89764397  0.16499023  1
  H+  H252  1  0.88033093  1.02361369  0.49774173  1
  H+  H253  1  0.13899018  0.47063772  0.00121135  1
  H+  H254  1  0.64189517  0.91451061  0.65694822  1
  H+  H255  1  0.62895729  0.78368668  0.16763865  1
  H+  H256  1  0.60193970  0.65722799  0.14049577  1
  H+  H257  1  0.35769322  0.73612382  -0.01101183  1
  H+  H258  1  0.37865888  0.59398156  0.31948878  1
  H+  H259  1  0.91766416  0.67691239  0.63687177  1
  H+  H260  1  0.88994052  0.11897910  0.99917896  1
  H+  H261  1  0.36128147  0.23776925  0.82546167  1
  H+  H262  1  0.62984922  0.27375997  0.50421704  1
  H+  H263  1  0.60943911  0.50463608  0.30959283  1
  H+  H264  1  0.87333531  0.48378767  0.17333972  1
  H+  H265  1  0.97019660  0.85584410  0.49271038  1
  H+  H266  1  0.15253488  0.62468514  0.84500323  1
  H+  H267  1  0.52433285  0.88581944  0.33977669  1
  H+  H268  1  0.74235644  0.12621659  0.83804735  1
  H+  H269  1  0.72960143  0.48369077  0.68965133  1
  H+  H270  1  0.52990912  0.44355672  0.61067356  1
  H+  H271  1  0.15539319  0.83671502  0.61444888  1
  H+  H272  1  0.88564880  0.36796181  0.33939843  1
  H+  H273  1  0.35838026  0.64448559  0.15007118  1
  H+  H274  1  0.84094769  0.12512372  0.49173178  1
  H+  H275  1  0.81475375  0.35639624  0.73684519  1
  H+  H276  1  0.88208041  0.11115656  0.84171330  1
  H+  H277  1  0.20357710  0.35626286  0.70038480  1
  H+  H278  1  0.26369079  0.38972613  0.15048184  1
  H+  H279  1  0.12651219  0.97827395  0.34004611  1
  H+  H280  1  0.14528403  0.76211777  0.50490325  1
  H+  H281  1  0.36623334  0.45756314  0.29902805  1
  H+  H282  1  0.37583624  0.35108250  0.34313426  1
  H+  H283  1  0.76927645  0.64064979  0.14826602  1
  H+  H284  1  0.60971575  0.13398631  0.33411872  1
  H+  H285  1  1.01671271  0.14228866  0.82985564  1
  H+  H286  1  0.99984897  0.66592871  0.64471260  1
  H+  H287  1  0.38292826  0.10762895  0.32451265  1
  H+  H288  1  0.33148209  0.71144605  0.06227062  1
  H+  H289  1  0.87647121  0.63139992  0.48243287  1
  H+  H290  1  0.32690698  0.13937171  0.40247884  1
  H+  H291  1  0.67105778  0.08906665  0.22985376  1
  H+  H292  1  0.97624557  0.10857162  0.17044555  1
  H+  H293  1  0.20793343  0.85184904  0.24337677  1
  H+  H294  1  0.12158738  0.06852091  0.56616262  1
  H+  H295  1  0.93168193  0.61524335  0.54766559  1
  H+  H296  1  0.57895383  0.92964798  0.10118637  1
  H+  H297  1  0.51393431  0.37874458  0.35782530  1
  H+  H298  1  0.39306020  0.31278312  0.54752878  1
  H+  H299  1  0.36367910  0.20172907  0.48747993  1
  H+  H300  1  0.17134055  0.08351432  0.26945559  1
  H+  H301  1  0.83760554  0.43346912  0.07001946  1
  H+  H302  1  0.60919214  0.42513077  0.76907224  1
  H+  H303  1  0.09363836  0.67632159  0.73784359  1
  H+  H304  1  0.07444877  0.17065394  0.42672949  1
  H+  H305  1  0.32948596  0.64979951  0.39411814  1
  H+  H306  1  0.66579747  0.83212855  0.26578422  1
  H+  H307  1  0.65228612  0.31793550  0.56941050  1
  H+  H308  1  0.95376667  0.60854229  0.93402820  1
  H+  H309  1  0.83626552  0.91624794  0.39391117  1
  H+  H310  1  0.43290365  0.34083319  0.89940878  1
  H+  H311  1  0.90856667  0.08178870  0.26498349  1
  H+  H312  1  0.38927414  0.77524849  0.17265634  1
  H+  H313  1  0.58172719  0.16617229  0.42462057  1
  H+  H314  1  0.49582795  0.87916155  0.67602138  1
  H+  H315  1  0.13631359  0.26794870  0.84017401  1
  H+  H316  1  0.34204954  0.62194340  0.66756423  1
  H+  H317  1  0.22684312  0.60913345  0.50238519  1
  H+  H318  1  0.78563235  0.66778822  0.66136442  1
  H+  H319  1  0.32068699  0.15519579  0.73949009  1
  H+  H320  1  0.69179567  0.57933664  0.89420388  1
  H+  H321  1  0.42995760  0.32349577  0.64601299  1
  H+  H322  1  0.02399467  0.41615319  0.71195430  1
  H+  H323  1  0.57650209  0.65604396  0.42440444  1
  H+  H324  1  0.34618692  0.18375822  0.10542104  1
  H+  H325  1  0.57606416  0.15606680  0.74532285  1
  H+  H326  1  0.65103660  0.03966530  0.83524379  1
  H+  H327  1  0.66398731  0.32713912  0.23459841  1
  H+  H328  1  0.60824334  0.94884522  0.74994244  1
  H+  H329  1  0.68137903  0.09995428  0.93438678  1
  H+  H330  1  0.58657760  0.42149227  0.43613164  1
  H+  H331  1  0.41175067  0.82996956  0.54771279  1
  H+  H332  1  0.55273867  0.68842829  0.09285178  1
  H+  H333  1  0.04287144  0.76054541  0.56660423  1
  H+  H334  1  0.10360154  0.47729091  0.33675955  1
  H+  H335  1  0.90633150  0.08270818  0.55689903  1
  H+  H336  1  0.65338740  0.33324699  0.94153262  1
  H+  H337  1  0.83618081  0.16576476  0.76468197  1
  H+  H338  1  0.35957210  0.92042272  0.10346869  1
  H+  H339  1  0.27614571  0.37005671  0.29893328  1
  H+  H340  1  0.09616670  0.67240152  0.10969125  1
  H+  H341  1  0.84026463  0.66754163  0.41651687  1
  H+  H342  1  0.71529871  0.36074789  0.32741488  1
  H+  H343  1  0.84537328  0.68655092  0.75691313  1
  H+  H344  1  0.76764909  0.60824100  0.98362533  1
  H+  H345  1  0.17304331  0.07067126  0.94756553  1
  H+  H346  1  0.90055849  0.31673955  0.55123624  1
  H+  H347  1  0.41185391  0.58028827  0.25578733  1
  H+  H348  1  0.10934393  0.42674484  0.78288489  1
  H+  H349  1  0.90796550  0.07748702  0.90152348  1
  H+  H350  1  0.16673882  0.59122468  0.56120002  1
  H+  H351  1  0.58367161  0.16690036  0.06773343  1
  H+  H352  1  0.08997061  0.42081142  0.09931309  1
  H+  H353  1  0.33093499  0.41491317  0.05914977  1
  H+  H354  1  0.67027224  0.83611090  0.59330853  1
  H+  H355  1  0.16315271  0.58127860  0.26890861  1
  H+  H356  1  0.59095917  0.67329147  0.72702116  1
  H+  H357  1  0.65812440  0.59272736  0.56261247  1
  H+  H358  1  0.48337614  0.12030228  0.17001430  1
  H+  H359  1  0.58306480  0.41931167  0.07856442  1
  H+  H360  1  0.85964931  0.97968160  0.82231447  1
  H+  H361  1  0.07785549  0.91794831  0.73924141  1
  H+  H362  1  0.40608600  0.56936179  0.55275997  1
  H+  H363  1  0.16165861  0.32990056  0.22358385  1
  H+  H364  1  0.63399325  0.14759037  0.83778632  1
  H+  H365  1  0.23957375  0.12450496  0.17430678  1
  H+  H366  1  0.28144499  0.13971162  0.01309914  1
  H+  H367  1  0.93659252  0.33352226  0.93360545  1
  H+  H368  1  0.41643724  0.08383847  0.92930802  1
  H+  H369  1  0.20363741  0.57715600  0.93438897  1
  H+  H370  1  0.32768051  0.40251115  0.73407688  1
  H+  H371  1  0.06775607  0.16198749  0.76738033  1
  H+  H372  1  0.63682254  0.02439772  0.32437249  1
  H+  H373  1  0.33825575  0.48987409  0.65032903  1
  H+  H374  1  0.33142171  0.65576770  0.77074751  1
  H+  H375  1  0.38015354  0.98733687  0.15941631  1
  H+  H376  1  0.41762934  0.82342572  0.26853679  1
  H+  H377  1  -0.01504605  0.87833616  0.65346170  1
  H+  H378  1  0.85925433  0.68323528  0.06120346  1
  H+  H379  1  0.12925255  0.92663925  0.11263734  1
  H+  H380  1  0.08615705  0.91337869  0.43388321  1
  H+  H381  1  0.65104562  0.44476756  0.64470811  1
  H+  H382  1  0.13161743  0.26700009  0.31907571  1
  H+  H383  1  0.79821482  0.57962211  0.12126631  1
  O2-  O384  1  0.08538672  0.15842094  0.14919335  1
  O2-  O385  1  0.07290989  0.17436833  0.47195234  1
  O2-  O386  1  0.07418760  0.17838563  0.81102225  1
  O2-  O387  1  0.09053838  0.42165706  0.14431552  1
  O2-  O388  1  0.07480181  0.42185160  0.47289903  1
  O2-  O389  1  0.09571577  0.41778793  0.82615619  1
  O2-  O390  1  0.09234607  0.67043300  0.15591000  1
  O2-  O391  1  0.18381077  0.74827072  0.48027800  1
  O2-  O392  1  0.13428479  0.69168637  0.80777830  1
  O2-  O393  1  0.13124988  0.93075669  0.15858646  1
  O2-  O394  1  0.07145885  0.90868829  0.47806551  1
  O2-  O395  1  0.07911246  0.91436885  0.81801869  1
  O2-  O396  1  0.34405136  0.18342013  0.15083285  1
  O2-  O397  1  0.33251133  0.14104255  0.47482525  1
  O2-  O398  1  0.32401201  0.17692478  0.81148155  1
  O2-  O399  1  0.32423563  0.42351967  0.13423120  1
  O2-  O400  1  0.32865411  0.42035827  0.46843631  1
  O2-  O401  1  0.33528422  0.40526393  0.80913734  1
  O2-  O402  1  0.33090887  0.67896098  0.13796890  1
  O2-  O403  1  0.32871981  0.65325068  0.47210561  1
  O2-  O404  1  0.33381844  0.64897299  0.81545055  1
  O2-  O405  1  0.35279457  0.92483481  0.14817732  1
  O2-  O406  1  0.33256502  0.89800060  0.45819974  1
  O2-  O407  1  0.32453158  0.93146389  0.81519187  1
  O2-  O408  1  0.58697201  0.16732716  0.14155466  1
  O2-  O409  1  0.58442880  0.16679067  0.47079455  1
  O2-  O410  1  0.59613509  0.17470786  0.83113330  1
  O2-  O411  1  0.57624433  0.42380226  0.17271255  1
  O2-  O412  1  0.58297847  0.42239124  0.48216483  1
  O2-  O413  1  0.60053999  0.42317393  0.81328719  1
  O2-  O414  1  0.56641719  0.68537484  0.13635144  1
  O2-  O415  1  0.57831347  0.65681601  0.47062946  1
  O2-  O416  1  0.58499817  0.65781893  0.81015630  1
  O2-  O417  1  0.58523460  0.92547907  0.14629349  1
  O2-  O418  1  0.58960878  0.91412568  0.47581172  1
  O2-  O419  1  0.59645702  0.94250798  0.79527431  1
  O2-  O420  1  0.83868239  0.17226509  0.14064236  1
  O2-  O421  1  0.80648758  0.15199768  0.47753537  1
  O2-  O422  1  0.83936404  0.16931066  0.81051434  1
  O2-  O423  1  0.84560090  0.42471363  0.15484129  1
  O2-  O424  1  0.83118580  0.43062598  0.49039894  1
  O2-  O425  1  0.83500907  0.40398981  0.82745244  1
  O2-  O426  1  0.82090361  0.63966011  0.13264165  1
  O2-  O427  1  0.83927632  0.66453014  0.46343025  1
  O2-  O428  1  0.84458369  0.68216310  0.80261353  1
  O2-  O429  1  0.81510103  0.91651605  0.12242177  1
  O2-  O430  1  0.83488111  0.91762633  0.47194799  1
  O2-  O431  1  0.83039916  0.91988007  0.80496807  1
  O2-  O432  1  0.17904370  0.08611688  0.18880203  1
  O2-  O433  1  0.10295090  0.05368757  0.52363701  1
  O2-  O434  1  0.16703936  0.07203247  0.87679376  1
  O2-  O435  1  0.16257847  0.32939492  0.17812216  1
  O2-  O436  1  0.16931802  0.34323709  0.51196073  1
  O2-  O437  1  0.17195820  0.32981100  0.85553378  1
  O2-  O438  1  0.17285727  0.58609704  0.19069739  1
  O2-  O439  1  0.16718099  0.59196018  0.51588724  1
  O2-  O440  1  0.17590716  0.58778970  0.86296887  1
  O2-  O441  1  0.19729930  0.84770074  0.19797727  1
  O2-  O442  1  0.09879548  0.80398719  0.54880712  1
  O2-  O443  1  0.16447968  0.83359864  0.85781762  1
  O2-  O444  1  0.42177988  0.09102124  0.18333722  1
  O2-  O445  1  0.41676471  0.05572923  0.51470234  1
  O2-  O446  1  0.40460019  0.09002040  0.84858072  1
  O2-  O447  1  0.40486528  0.34815456  0.19183505  1
  O2-  O448  1  0.40753557  0.32106927  0.50373160  1
  O2-  O449  1  0.43026144  0.33866950  0.85389268  1
  O2-  O450  1  0.40414841  0.58795562  0.17801705  1
  O2-  O451  1  0.41604272  0.57575302  0.50838059  1
  O2-  O452  1  0.41596969  0.56746347  0.84766233  1
  O2-  O453  1  0.42436399  0.83351433  0.19213055  1
  O2-  O454  1  0.41715681  0.82534932  0.50393123  1
  O2-  O455  1  0.45575485  0.91362612  0.87136037  1
  O2-  O456  1  0.67252906  0.09057310  0.18434365  1
  O2-  O457  1  0.64912806  0.05596654  0.54328896  1
  O2-  O458  1  0.68183426  0.09741266  0.85488982  1
  O2-  O459  1  0.66649930  0.32791698  0.18898088  1
  O2-  O460  1  0.65425401  0.33029836  0.52509556  1
  O2-  O461  1  0.67210336  0.34071360  0.87089281  1
  O2-  O462  1  0.66054709  0.60943167  0.16655125  1
  O2-  O463  1  0.64931713  0.58160886  0.51665492  1
  O2-  O464  1  0.68131347  0.58516485  0.84951734  1
  O2-  O465  1  0.66773988  0.84338973  0.18310458  1
  O2-  O466  1  0.66904060  0.82874984  0.51491161  1
  O2-  O467  1  0.69292852  0.81490787  0.87254424  1
  O2-  O468  1  0.91422752  0.08242109  0.18197919  1
  O2-  O469  1  0.90431594  0.08445791  0.51142221  1
  O2-  O470  1  0.90978148  0.07808883  0.85637595  1
  O2-  O471  1  0.93431106  0.34353142  0.18377247  1
  O2-  O472  1  0.90497037  0.32624565  0.50625160  1
  O2-  O473  1  0.92817876  0.33151468  0.86186579  1
  O2-  O474  1  0.92468692  0.58627379  0.20004025  1
  O2-  O475  1  0.91673241  0.59743195  0.50429427  1
  O2-  O476  1  0.97760170  0.66252726  0.85260712  1
  O2-  O477  1  0.95464870  0.90847021  0.18217982  1
  O2-  O478  1  0.90864503  0.82383509  0.50835750  1
  O2-  O479  1  0.90960426  0.83874341  0.85560712  1
  O2-  O480  1  0.16590846  0.08135165  0.31457937  1
  O2-  O481  1  0.14603312  0.07969968  0.64757221  1
  O2-  O482  1  0.17513326  0.07227360  0.99427615  1
  O2-  O483  1  0.16347946  0.32738780  0.30257729  1
  O2-  O484  1  0.14071499  0.33114377  0.71045026  1
  O2-  O485  1  0.16680102  0.31614946  0.98056352  1
  O2-  O486  1  0.16119087  0.57907929  0.31466234  1
  O2-  O487  1  0.16075232  0.58939632  0.64186823  1
  O2-  O488  1  0.22146638  0.56501302  0.97474105  1
  O2-  O489  1  0.22079984  0.86119042  0.31920012  1
  O2-  O490  1  0.17214264  0.84227294  0.65859739  1
  O2-  O491  1  0.20144804  0.83828666  0.97971266  1
  O2-  O492  1  0.41477823  0.07976770  0.30629818  1
  O2-  O493  1  0.42483598  0.07266813  0.64102020  1
  O2-  O494  1  0.42026036  0.08111447  0.97437956  1
  O2-  O495  1  0.40305027  0.32301339  0.36730017  1
  O2-  O496  1  0.37033789  0.29460221  0.63211426  1
  O2-  O497  1  0.43045104  0.34016085  0.97983896  1
  O2-  O498  1  0.41269918  0.56986601  0.30052768  1
  O2-  O499  1  0.34024190  0.53727460  0.62502107  1
  O2-  O500  1  0.38067046  0.56633465  0.96677928  1
  O2-  O501  1  0.41278004  0.82094502  0.31419629  1
  O2-  O502  1  0.43696046  0.84105075  0.69249339  1
  O2-  O503  1  0.41469023  0.75923125  0.92329114  1
  O2-  O504  1  0.66484178  0.08511547  0.30913403  1
  O2-  O505  1  0.66199102  0.03547371  0.65237452  1
  O2-  O506  1  0.68322720  0.10400922  0.97978792  1
  O2-  O507  1  0.65536578  0.32979344  0.31228281  1
  O2-  O508  1  0.65445241  0.30013345  0.64917144  1
  O2-  O509  1  0.64236273  0.32385674  0.98728980  1
  O2-  O510  1  0.61560337  0.54961535  0.28041673  1
  O2-  O511  1  0.67800822  0.61419324  0.63308076  1
  O2-  O512  1  0.71811263  0.56215073  0.96128346  1
  O2-  O513  1  0.66461491  0.82655325  0.31089618  1
  O2-  O514  1  0.67043262  0.84290975  0.63860971  1
  O2-  O515  1  0.65415752  0.85134101  0.99186642  1
  O2-  O516  1  0.90973456  0.08391007  0.31026267  1
  O2-  O517  1  0.90532564  0.07481993  0.63492380  1
  O2-  O518  1  0.91181110  0.08004191  0.98604513  1
  O2-  O519  1  0.91846647  0.33715818  0.33100732  1
  O2-  O520  1  0.89466046  0.29665150  0.62857801  1
  O2-  O521  1  0.94214083  0.33559344  0.98004944  1
  O2-  O522  1  0.87104832  0.50388064  0.34590030  1
  O2-  O523  1  0.96396289  0.67392978  0.61390212  1
  O2-  O524  1  0.94949388  0.60328135  0.97861355  1
  O2-  O525  1  0.92958702  0.83776152  0.30688280  1
  O2-  O526  1  0.92725036  0.84994378  0.63363905  1
  O2-  O527  1  0.89495653  0.85449098  0.98568019  1
  O2-  O528  1  0.08441830  0.15151681  0.02442734  1
  O2-  O529  1  0.07956776  0.16555757  0.34661120  1
  O2-  O530  1  0.06019359  0.15407055  0.68747267  1
  O2-  O531  1  0.09686946  0.41099871  0.01592727  1
  O2-  O532  1  0.07306198  0.41614276  0.35311155  1
  O2-  O533  1  0.05967382  0.41699046  0.67820009  1
  O2-  O534  1  0.10545766  0.66960196  0.03639612  1
  O2-  O535  1  0.14165341  0.71335230  0.36132587  1
  O2-  O536  1  0.08444086  0.67674131  0.69216997  1
  O2-  O537  1  0.12641616  0.92120840  0.03836432  1
  O2-  O538  1  0.10233883  0.91796139  0.35540438  1
  O2-  O539  1  0.08232718  0.92104668  0.69372971  1
  O2-  O540  1  0.34369897  0.17473804  0.02483398  1
  O2-  O541  1  0.32804945  0.14842327  0.35645385  1
  O2-  O542  1  0.31409214  0.13320335  0.69574086  1
  O2-  O543  1  0.33313288  0.40857458  0.01367573  1
  O2-  O544  1  0.33928381  0.39379588  0.29438919  1
  O2-  O545  1  0.30975076  0.39700409  0.68986631  1
  O2-  O546  1  0.31849116  0.73123937  0.02341321  1
  O2-  O547  1  0.32890002  0.64880593  0.34851135  1
  O2-  O548  1  0.32510107  0.65987322  0.68937707  1
  O2-  O549  1  0.37510662  0.89857509  0.02747593  1
  O2-  O550  1  0.31300686  0.90302202  0.33597083  1
  O2-  O551  1  0.33527422  0.91819294  0.69268469  1
  O2-  O552  1  0.58356887  0.17003645  0.02138952  1
  O2-  O553  1  0.57877655  0.16359904  0.34999458  1
  O2-  O554  1  0.57953964  0.15262536  0.70081697  1
  O2-  O555  1  0.58561318  0.41678855  0.03399373  1
  O2-  O556  1  0.57796014  0.41465082  0.36058817  1
  O2-  O557  1  0.66782817  0.46356883  0.68679707  1
  O2-  O558  1  0.50763652  0.70443282  0.02548599  1
  O2-  O559  1  0.57435492  0.65636440  0.34864156  1
  O2-  O560  1  0.59227478  0.67669545  0.68197702  1
  O2-  O561  1  0.56740093  0.94084681  0.02459611  1
  O2-  O562  1  0.58609865  0.91898638  0.35150398  1
  O2-  O563  1  0.61269644  0.94604325  0.67429270  1
  O2-  O564  1  0.84802479  0.18427378  0.02124781  1
  O2-  O565  1  0.83079081  0.17068967  0.35544039  1
  O2-  O566  1  0.82095405  0.14397653  0.68996330  1
  O2-  O567  1  0.82466644  0.43478834  0.02648432  1
  O2-  O568  1  0.83150904  0.42162194  0.34676115  1
  O2-  O569  1  0.81729039  0.36249428  0.69248278  1
  O2-  O570  1  0.86910222  0.69071519  0.01637135  1
  O2-  O571  1  0.83721641  0.67196438  0.34606605  1
  O2-  O572  1  0.84425442  0.69392506  0.67926858  1
  O2-  O573  1  0.80646298  0.91324222  0.05483991  1
  O2-  O574  1  0.83797090  0.91714676  0.34827411  1
  O2-  O575  1  0.83345983  0.91638895  0.67810949  1
