# generated using pymatgen
data_H2O
_symmetry_space_group_name_H-M   'P 1'
_cell_length_a   17.98797015
_cell_length_b   17.99554523
_cell_length_c   22.00248310
_cell_angle_alpha   90.01401609
_cell_angle_beta   89.97704956
_cell_angle_gamma   119.99144046
_symmetry_Int_Tables_number   1
_chemical_formula_structural   H2O
_chemical_formula_sum   'H384 O192'
_cell_volume   6168.60429641
_cell_formula_units_Z   192
loop_
 _symmetry_equiv_pos_site_id
 _symmetry_equiv_pos_as_xyz
  1  'x, y, z'
loop_
 _atom_type_symbol
 _atom_type_oxidation_number
  H+  1.0
  O2-  -2.0
loop_
 _atom_site_type_symbol
 _atom_site_label
 _atom_site_symmetry_multiplicity
 _atom_site_fract_x
 _atom_site_fract_y
 _atom_site_fract_z
 _atom_site_occupancy
  H+  H0  1  0.61583577  0.93722984  0.67257582  1
  H+  H1  1  0.11952119  0.85291449  0.87485407  1
  H+  H2  1  0.59208613  0.93286402  0.10265282  1
  H+  H3  1  0.76989135  0.86668628  0.68128373  1
  H+  H4  1  0.11892160  0.72968095  0.16200098  1
  H+  H5  1  0.34464704  0.17307627  0.07852927  1
  H+  H6  1  0.45958702  0.69369001  0.85699828  1
  H+  H7  1  0.39097945  0.78632313  -0.00189479  1
  H+  H8  1  0.83563163  0.41058901  0.74053325  1
  H+  H9  1  0.11866959  0.51199298  0.17498948  1
  H+  H10  1  0.89242964  0.59916905  0.33262382  1
  H+  H11  1  0.96709454  0.36326033  0.51416768  1
  H+  H12  1  0.40831583  0.10960548  0.33472522  1
  H+  H13  1  0.63930488  0.61184568  0.32774181  1
  H+  H14  1  -0.05278450  0.09191322  0.64670807  1
  H+  H15  1  0.71502818  0.13353888  0.52736037  1
  H+  H16  1  0.65440347  0.87795764  0.17185966  1
  H+  H17  1  0.77035581  0.62866014  0.01030924  1
  H+  H18  1  0.63760673  0.27832421  -0.00713302  1
  H+  H19  1  0.90736268  0.37274927  0.83446556  1
  H+  H20  1  0.42171280  0.81031301  0.11461025  1
  H+  H21  1  -0.02413536  0.11937453  0.80664190  1
  H+  H22  1  0.66122263  0.57281901  0.23239823  1
  H+  H23  1  0.32431457  -0.03113771  0.83710780  1
  H+  H24  1  0.86300038  0.63378927  0.00840215  1
  H+  H25  1  0.13445611  -0.01877735  1.03786302  1
  H+  H26  1  0.74849745  0.63425631  0.50109618  1
  H+  H27  1  0.84955074  0.22981942  0.49954225  1
  H+  H28  1  0.48854665  0.12518985  1.00398912  1
  H+  H29  1  0.37427306  0.73122220  0.67921877  1
  H+  H30  1  0.15363890  0.58126385  0.57427078  1
  H+  H31  1  0.77060206  0.36978006  0.68512067  1
  H+  H32  1  0.85691107  -0.00129045  0.83998588  1
  H+  H33  1  -0.00192015  0.37958565  0.16804650  1
  H+  H34  1  0.12501678  0.34794549  0.82415168  1
  H+  H35  1  0.91901589  0.90784727  0.14942706  1
  H+  H36  1  0.13634719  0.84461929  0.50753340  1
  H+  H37  1  0.48996699  0.13015467  0.17705365  1
  H+  H38  1  0.23007126  0.09439600  1.02247340  1
  H+  H39  1  0.63611174  0.29539578  0.53406656  1
  H+  H40  1  0.10295219  0.38669781  0.03875365  1
  H+  H41  1  0.52568966  0.37800794  1.00798011  1
  H+  H42  1  0.37573009  0.97736796  0.33673273  1
  H+  H43  1  0.64836863  0.86087849  0.32948875  1
  H+  H44  1  0.87271754  0.49137754  0.51527761  1
  H+  H45  1  0.97722779  0.61427949  0.17751788  1
  H+  H46  1  0.40334291  0.13615393  0.18166618  1
  H+  H47  1  0.49744482  0.36843805  0.34831549  1
  H+  H48  1  0.48293298  0.37688419  0.49986091  1
  H+  H49  1  0.37923381  0.59293913  0.16560499  1
  H+  H50  1  0.63811586  0.78373014  0.99648176  1
  H+  H51  1  0.14996845  0.00372865  0.32464420  1
  H+  H52  1  0.37353493  0.00384468  0.16677505  1
  H+  H53  1  0.85488819  -0.12313957  1.00597801  1
  H+  H54  1  0.69863736  0.85732284  0.84274067  1
  H+  H55  1  0.62379829  0.23523263  0.16840460  1
  H+  H56  1  0.88428830  0.60156686  0.83376457  1
  H+  H57  1  0.29559369  0.66613478  0.28281977  1
  H+  H58  1  0.08915908  0.90903423  0.58671960  1
  H+  H59  1  0.36134836  0.22097634  1.01496242  1
  H+  H60  1  0.38089079  0.35412884  0.65044296  1
  H+  H61  1  0.23628926  0.87253299  0.17119149  1
  H+  H62  1  -0.00309257  0.13478512  0.49250087  1
  H+  H63  1  0.01945558  0.38616531  0.67152607  1
  H+  H64  1  0.39634697  0.12093775  1.00346574  1
  H+  H65  1  1.01110827  0.87797887  0.85256139  1
  H+  H66  1  0.36925523  0.59922929  0.84806313  1
  H+  H67  1  -0.01737646  0.36050181  -0.01553408  1
  H+  H68  1  0.62171812  0.39243442  0.34534420  1
  H+  H69  1  0.88576374  0.06984591  0.56467470  1
  H+  H70  1  0.32102017  0.48220223  0.80065254  1
  H+  H71  1  0.41332764  0.02018839  0.67130738  1
  H+  H72  1  0.24524074  0.88227704  0.01478206  1
  H+  H73  1  0.70514141  0.10168101  0.32905136  1
  H+  H74  1  0.94399830  0.35291626  0.33230873  1
  H+  H75  1  0.61702799  0.49500780  0.49846220  1
  H+  H76  1  0.38200772  0.66274785  0.28397939  1
  H+  H77  1  0.53132287  0.87824362  0.34199975  1
  H+  H78  1  0.86196795  0.38838870  0.16893677  1
  H+  H79  1  0.03227506  0.63407277  0.33677395  1
  H+  H80  1  0.88601063  0.80339199  0.90146546  1
  H+  H81  1  0.75479561  0.58318156  0.80750219  1
  H+  H82  1  0.86368001  0.72252911  0.66645235  1
  H+  H83  1  0.08569894  0.11754402  0.65783907  1
  H+  H84  1  0.53140250  0.61737584  0.66997944  1
  H+  H85  1  0.09054681  0.16889631  0.33888236  1
  H+  H86  1  0.40332596  0.79353902  0.29264050  1
  H+  H87  1  1.02365619  0.63839862  0.67942022  1
  H+  H88  1  0.10276340  0.47398414  0.50210462  1
  H+  H89  1  1.00721264  0.89791791  0.14492665  1
  H+  H90  1  0.26529485  0.62752156  0.52178699  1
  H+  H91  1  0.63885938  0.52305541  0.99690410  1
  H+  H92  1  0.39443144  0.86865238  0.51511987  1
  H+  H93  1  0.15946073  0.09918291  0.81069859  1
  H+  H94  1  0.35145131  0.66198882  0.73177788  1
  H+  H95  1  0.84221028  0.13771502  0.49892318  1
  H+  H96  1  0.88341325  0.35335077  0.66794776  1
  H+  H97  1  0.11029689  0.71544590  0.49240746  1
  H+  H98  1  0.12617021  0.36115782  0.49459194  1
  H+  H99  1  0.14637879  0.62206475  1.00435593  1
  H+  H100  1  0.21964380  0.31996633  0.04085417  1
  H+  H101  1  0.04757985  0.25461559  0.04432223  1
  H+  H102  1  0.63928868  0.50949197  0.17510166  1
  H+  H103  1  0.24450112  0.61022954  0.82797467  1
  H+  H104  1  -0.00816194  0.19995110  0.77050037  1
  H+  H105  1  0.27323828  0.88505119  0.67780887  1
  H+  H106  1  0.65006546  0.28835829  0.83433187  1
  H+  H107  1  0.82118964  0.64608955  0.75916668  1
  H+  H108  1  0.44246923  0.08114585  0.61309761  1
  H+  H109  1  0.10398080  0.10319522  0.50529500  1
  H+  H110  1  0.70145580  0.85237583  0.52919010  1
  H+  H111  1  0.48185262  0.87409611  1.00050419  1
  H+  H112  1  0.13521467  0.88196103  0.03838478  1
  H+  H113  1  0.41211907  0.54737513  -0.00555233  1
  H+  H114  1  0.40934026  0.36957180  0.99950780  1
  H+  H115  1  0.37837065  0.86059023  0.67706183  1
  H+  H116  1  0.66757521  0.34120531  0.27573266  1
  H+  H117  1  0.63378441  0.73529995  0.67840832  1
  H+  H118  1  0.14724958  0.77066019  0.32140439  1
  H+  H119  1  0.62768975  0.60951149  0.50954857  1
  H+  H120  1  0.87368822  0.75323020  0.99886970  1
  H+  H121  1  0.15332034  0.13065650  0.18709385  1
  H+  H122  1  0.72628410  0.93922765  0.44747806  1
  H+  H123  1  0.63358847  1.00471468  0.32322406  1
  H+  H124  1  0.77335528  0.63412457  0.66027660  1
  H+  H125  1  0.46822192  0.97844648  0.45394725  1
  H+  H126  1  0.37603744  0.11473668  0.81780444  1
  H+  H127  1  0.61745829  0.98513326  0.01113830  1
  H+  H128  1  0.28537368  0.10560202  0.80191380  1
  H+  H129  1  0.77399750  0.62650055  0.16352758  1
  H+  H130  1  0.29351508  0.12385505  0.34340019  1
  H+  H131  1  0.88106872  0.02907628  0.32033596  1
  H+  H132  1  0.01574244  0.86998515  0.50701613  1
  H+  H133  1  0.09835615  0.96410639  0.50668997  1
  H+  H134  1  0.54902684  0.15502735  0.36027791  1
  H+  H135  1  0.64427367  0.61386587  -0.01071422  1
  H+  H136  1  0.37848395  0.60388512  0.51676362  1
  H+  H137  1  0.11604013  0.40530893  0.65816717  1
  H+  H138  1  0.02931807  0.88158053  0.64400421  1
  H+  H139  1  0.86658525  0.14470373  0.15858841  1
  H+  H140  1  0.83548744  0.86386868  0.83299957  1
  H+  H141  1  0.66244002  0.36417812  0.59036346  1
  H+  H142  1  0.84839942  0.96260287  0.67407573  1
  H+  H143  1  0.16008235  0.06337162  0.74477778  1
  H+  H144  1  0.62251273  0.61719651  0.66861922  1
  H+  H145  1  0.35427797  0.71742337  0.52585344  1
  H+  H146  1  0.95438884  0.12712278  0.32664306  1
  H+  H147  1  0.21480168  0.59275493  0.16857030  1
  H+  H148  1  0.03021888  0.63916656  0.00603622  1
  H+  H149  1  0.58801297  0.58021911  0.14194633  1
  H+  H150  1  0.63219687  0.45019438  0.74557597  1
  H+  H151  1  0.73313176  0.36627730  0.17901376  1
  H+  H152  1  0.35197693  0.94037991  0.10838414  1
  H+  H153  1  0.62088611  0.87492486  0.84507306  1
  H+  H154  1  0.34333787  0.68263874  0.17518314  1
  H+  H155  1  0.86500081  0.47882989  0.16848642  1
  H+  H156  1  0.39553813  0.51929727  0.65418629  1
  H+  H157  1  0.87730815  0.23519899  0.82697648  1
  H+  H158  1  0.88808259  0.52270061  0.66491306  1
  H+  H159  1  0.88934772  0.40335497  1.01269643  1
  H+  H160  1  0.58508315  0.40770286  0.09511124  1
  H+  H161  1  0.59991270  0.16889422  0.76979403  1
  H+  H162  1  0.39843369  0.87408585  0.32418312  1
  H+  H163  1  0.48262763  0.62319610  0.31905434  1
  H+  H164  1  0.64257532  0.36164884  0.17436432  1
  H+  H165  1  0.73165844  0.11992922  1.00058808  1
  H+  H166  1  0.99886304  0.37648451  0.83545726  1
  H+  H167  1  0.29013991  0.16182501  0.17280901  1
  H+  H168  1  0.40226424  0.34116144  0.37237587  1
  H+  H169  1  0.34699375  0.40364402  0.32139648  1
  H+  H170  1  0.07112362  0.47748274  0.34567438  1
  H+  H171  1  0.36950925  0.43355589  0.07330096  1
  H+  H172  1  0.88030837  0.27209294  0.17498750  1
  H+  H173  1  0.41477507  0.04210285  0.51217974  1
  H+  H174  1  0.41101194  0.48687456  0.79133595  1
  H+  H175  1  0.56720298  0.50360383  0.82016229  1
  H+  H176  1  0.84124190  0.93445883  0.09026792  1
  H+  H177  1  0.85696066  0.02225496  0.50029199  1
  H+  H178  1  0.52987286  0.16724646  0.51650179  1
  H+  H179  1  0.11799034  0.87677121  0.32507313  1
  H+  H180  1  0.22694921  0.46220035  0.60078931  1
  H+  H181  1  0.26185634  0.51525317  0.87518595  1
  H+  H182  1  0.42038329  0.93132226  0.18062734  1
  H+  H183  1  0.15437293  0.53752870  0.00244918  1
  H+  H184  1  0.12682178  0.60644898  0.51036090  1
  H+  H185  1  0.20327218  0.55004599  0.32122940  1
  H+  H186  1  0.38812845  0.36641855  0.49621163  1
  H+  H187  1  0.63418890  0.99910271  0.16024448  1
  H+  H188  1  0.47314385  0.87646616  0.67181388  1
  H+  H189  1  0.10187451  -0.04340695  0.83202545  1
  H+  H190  1  0.09005030  0.40043947  0.34112309  1
  H+  H191  1  0.37751399  0.22851647  0.49697963  1
  H+  H192  1  0.61558556  0.40385997  0.50283840  1
  H+  H193  1  0.62044910  0.17252380  0.51938716  1
  H+  H194  1  0.11926166  0.30006107  0.32880570  1
  H+  H195  1  0.52731965  0.37356908  0.15597188  1
  H+  H196  1  0.53930080  0.14507130  0.82945693  1
  H+  H197  1  0.85980036  0.09502654  0.65794387  1
  H+  H198  1  0.55005227  0.59785850  0.76206703  1
  H+  H199  1  0.74006841  0.86494649  0.32104831  1
  H+  H200  1  0.90085112  0.79048807  0.27297702  1
  H+  H201  1  0.85677758  0.26247684  0.32977764  1
  H+  H202  1  0.06376272  0.25337054  1.01296525  1
  H+  H203  1  0.38040372  -0.00697488  1.01544678  1
  H+  H204  1  0.14233657  0.77061485  0.66145383  1
  H+  H205  1  0.97936967  0.59953960  0.50679454  1
  H+  H206  1  0.35336225  0.22204071  0.65636502  1
  H+  H207  1  0.65557282  0.84206393  0.93749832  1
  H+  H208  1  0.63029144  0.81985552  0.69459132  1
  H+  H209  1  0.03552547  0.88681861  0.31118585  1
  H+  H210  1  0.77315262  0.88913753  1.00440005  1
  H+  H211  1  0.78186010  0.15274738  0.83238272  1
  H+  H212  1  0.51940088  0.92878175  0.17672734  1
  H+  H213  1  0.86627664  0.14326812  0.00365468  1
  H+  H214  1  0.78906407  0.90467812  0.15400151  1
  H+  H215  1  0.25275808  0.37458634  0.16162147  1
  H+  H216  1  0.76691235  0.39501895  0.52410781  1
  H+  H217  1  0.85651947  0.74627216  0.84125535  1
  H+  H218  1  0.53430216  0.65363131  -0.00378808  1
  H+  H219  1  0.22407249  0.11366444  0.66651880  1
  H+  H220  1  0.51046083  0.63071010  0.48701034  1
  H+  H221  1  0.61969619  0.14364882  0.01528294  1
  H+  H222  1  0.90572324  0.53760167  0.99753490  1
  H+  H223  1  0.35348902  0.47309628  0.48808104  1
  H+  H224  1  0.22952713  0.61667481  0.66607282  1
  H+  H225  1  0.12951064  0.65460856  0.82789006  1
  H+  H226  1  0.59653975  0.71897379  0.49720441  1
  H+  H227  1  0.55493574  0.12397015  0.67373692  1
  H+  H228  1  0.11288280  0.63781393  0.16519458  1
  H+  H229  1  0.60509072  1.01929326  0.68346283  1
  H+  H230  1  0.24066197  0.87610142  0.84500470  1
  H+  H231  1  0.86420414  0.75677437  0.50263686  1
  H+  H232  1  0.50100027  0.58424029  0.14156596  1
  H+  H233  1  0.88897538  0.85998925  0.65919679  1
  H+  H234  1  0.13713871  0.41408278  0.97344048  1
  H+  H235  1  0.16463985  0.09359907  0.34805681  1
  H+  H236  1  0.78672741  0.38579745  0.83011908  1
  H+  H237  1  0.38006714  0.21620665  0.34654682  1
  H+  H238  1  0.63842057  0.52241941  0.33141054  1
  H+  H239  1  0.50931344  0.86877460  0.49995929  1
  H+  H240  1  0.16845887  0.47567496  0.81267700  1
  H+  H241  1  0.87450227  0.47644024  0.82770516  1
  H+  H242  1  0.36045108  0.49729642  0.32750181  1
  H+  H243  1  0.39602087  0.12033465  0.52040104  1
  H+  H244  1  0.85364320  0.38338022  0.51595511  1
  H+  H245  1  0.88525056  0.89498008  0.30704389  1
  H+  H246  1  0.21478278  0.35764688  0.49018683  1
  H+  H247  1  0.01231643  0.08949742  0.02561577  1
  H+  H248  1  0.65434256  0.13622936  0.84674453  1
  H+  H249  1  0.09006526  0.22189950  0.49213018  1
  H+  H250  1  0.88553740  0.61046125  0.17777213  1
  H+  H251  1  0.82869358  0.16555884  0.73636665  1
  H+  H252  1  0.83593124  0.13304687  0.34693923  1
  H+  H253  1  0.76055747  0.14582201  0.68310275  1
  H+  H254  1  -0.02178057  0.61035057  0.84024644  1
  H+  H255  1  0.73608541  0.12530547  0.17619851  1
  H+  H256  1  0.61799494  0.38505914  0.00555308  1
  H+  H257  1  0.77058019  0.62471708  0.34158013  1
  H+  H258  1  0.62131714  0.14443605  0.16726398  1
  H+  H259  1  0.38019037  0.24940485  0.17046137  1
  H+  H260  1  0.64872030  0.52543356  0.65139739  1
  H+  H261  1  0.50287438  0.59869391  0.82435550  1
  H+  H262  1  0.47477526  0.34965439  0.84621162  1
  H+  H263  1  0.23089652  0.28853727  1.02717455  1
  H+  H264  1  0.52680543  0.92879352  0.83399009  1
  H+  H265  1  0.14571065  0.86594887  0.15843303  1
  H+  H266  1  0.37058714  0.65401258  0.01156718  1
  H+  H267  1  0.38114276  0.81212867  0.11615180  1
  H+  H268  1  0.10451443  0.25136721  0.82940792  1
  H+  H269  1  0.10505989  0.22509323  0.16632857  1
  H+  H270  1  0.88556567  0.61114367  0.66011211  1
  H+  H271  1  0.11827317  0.36384774  0.16654476  1
  H+  H272  1  0.98261531  0.16662641  0.95871267  1
  H+  H273  1  0.13654890  0.53055039  0.66779311  1
  H+  H274  1  0.14500026  0.85817455  0.64305002  1
  H+  H275  1  0.12378980  0.76614334  0.86414072  1
  H+  H276  1  0.21083026  0.38612264  0.32238904  1
  H+  H277  1  0.06534807  0.41988064  0.44034339  1
  H+  H278  1  0.13781665  0.01890003  0.65497700  1
  H+  H279  1  0.88589582  0.03319253  0.16714780  1
  H+  H280  1  0.39639562  0.25351721  0.84158066  1
  H+  H281  1  0.92270174  0.33357576  0.92719549  1
  H+  H282  1  0.83651835  0.17487966  0.09898018  1
  H+  H283  1  0.13259550  0.08181058  0.02391128  1
  H+  H284  1  0.66856475  0.38596450  0.83249747  1
  H+  H285  1  0.37727372  0.90140972  0.01663418  1
  H+  H286  1  0.61992109  0.72670067  0.33544928  1
  H+  H287  1  0.12314695  0.63749340  0.33754635  1
  H+  H288  1  0.92373609  0.58114215  0.26889386  1
  H+  H289  1  0.41017432  0.83737497  0.58042248  1
  H+  H290  1  0.46731647  0.42461556  0.21575423  1
  H+  H291  1  0.14958463  0.09037163  0.56223407  1
  H+  H292  1  0.38119561  0.89508076  0.85212026  1
  H+  H293  1  0.58378107  0.65395929  0.05417344  1
  H+  H294  1  0.64534598  0.29130429  0.34027710  1
  H+  H295  1  0.67339704  0.09469131  0.94136243  1
  H+  H296  1  0.42776476  0.88480701  0.91156872  1
  H+  H297  1  0.94510356  0.86959770  0.22630423  1
  H+  H298  1  0.41581968  0.31937342  0.93964891  1
  H+  H299  1  0.12333579  0.11349157  0.91282324  1
  H+  H300  1  0.37202967  0.50195113  0.17307287  1
  H+  H301  1  0.66595489  0.58318046  0.58593915  1
  H+  H302  1  0.32517811  0.42343889  0.42477827  1
  H+  H303  1  0.35204407  0.16136099  0.44365148  1
  H+  H304  1  0.86119057  0.09215097  0.83838933  1
  H+  H305  1  0.40414655  0.61323704  0.65598702  1
  H+  H306  1  0.41215446  0.32718049  0.59189224  1
  H+  H307  1  0.86146562  0.70768007  0.35367620  1
  H+  H308  1  0.14788241  0.34401434  0.22956610  1
  H+  H309  1  0.45857049  0.90123778  0.24379283  1
  H+  H310  1  0.88585363  0.85752288  0.49839891  1
  H+  H311  1  0.90295308  0.08714073  0.23070935  1
  H+  H312  1  0.33865757  0.37011752  0.17500665  1
  H+  H313  1  0.36382960  0.70396650  0.40456695  1
  H+  H314  1  0.35295645  0.65780803  0.40410397  1
  H+  H315  1  0.91878550  0.58712693  0.93413931  1
  H+  H316  1  0.86448528  0.43452265  0.07425479  1
  H+  H317  1  0.91129400  0.08452359  0.92678828  1
  H+  H318  1  0.64911807  0.80892667  0.59037398  1
  H+  H319  1  0.59199702  0.17651456  0.07451468  1
  H+  H320  1  0.67071032  0.08232572  0.23480391  1
  H+  H321  1  0.05823018  0.81550581  0.76906954  1
  H+  H322  1  0.57830051  0.89392347  0.40648100  1
  H+  H323  1  0.80749409  0.16423942  0.40695737  1
  H+  H324  1  0.59435354  0.42670718  0.40749533  1
  H+  H325  1  0.33701670  0.42659114  0.71860592  1
  H+  H326  1  0.27881461  0.65033149  0.01423990  1
  H+  H327  1  0.31663846  0.91196995  0.74346464  1
  H+  H328  1  0.46729635  0.49698686  0.06593658  1
  H+  H329  1  0.59172964  0.86171933  0.50698642  1
  H+  H330  1  0.42467164  0.34872864  0.26214947  1
  H+  H331  1  0.17540159  0.83007357  0.26121849  1
  H+  H332  1  0.08355300  0.67587794  0.77613451  1
  H+  H333  1  0.19053777  0.09947095  0.24180372  1
  H+  H334  1  0.87844342  0.92312478  0.37354396  1
  H+  H335  1  0.18801990  0.36577847  0.90260911  1
  H+  H336  1  0.73122317  0.46296822  0.66825505  1
  H+  H337  1  0.42189855  0.57061986  0.56275617  1
  H+  H338  1  0.43432152  0.08631202  0.91088563  1
  H+  H339  1  0.04622139  0.15383414  0.70427437  1
  H+  H340  1  0.81879439  0.90086899  0.77200205  1
  H+  H341  1  0.58014964  0.66836266  0.39497396  1
  H+  H342  1  0.44149565  0.08783242  0.27470385  1
  H+  H343  1  0.42654223  0.58487531  0.25706102  1
  H+  H344  1  0.96205681  0.84150940  0.99160376  1
  H+  H345  1  0.64918579  1.04543644  0.84472234  1
  H+  H346  1  0.59606510  0.20145401  0.42177114  1
  H+  H347  1  0.42741652  0.60811989  0.93488087  1
  H+  H348  1  0.11363383  0.64055189  0.68216774  1
  H+  H349  1  0.61499677  0.89420634  0.01204267  1
  H+  H350  1  0.17061395  0.83728987  0.96353715  1
  H+  H351  1  0.91082944  0.32823730  0.57540650  1
  H+  H352  1  0.66775201  0.33806725  0.93358452  1
  H+  H353  1  0.88217563  0.26367257  0.66633920  1
  H+  H354  1  0.83509169  0.65750987  0.10626464  1
  H+  H355  1  0.66288505  0.11813285  0.59051211  1
  H+  H356  1  0.28374113  0.88754066  0.33652481  1
  H+  H357  1  0.76120699  0.87765249  0.43502056  1
  H+  H358  1  0.08234003  0.66301772  0.06812862  1
  H+  H359  1  0.92600854  0.58000552  0.57120480  1
  H+  H360  1  0.06998269  0.13043239  0.08543278  1
  H+  H361  1  0.28104167  0.40150449  0.65587660  1
  H+  H362  1  0.17628670  0.36740925  0.57730280  1
  H+  H363  1  0.37567510  0.93603039  0.42681736  1
  H+  H364  1  0.01881624  0.13517419  0.17337973  1
  H+  H365  1  0.04842645  0.42379239  0.10599750  1
  H+  H366  1  0.90764584  0.82722302  0.59602840  1
  H+  H367  1  0.33076349  0.66119291  0.10174667  1
  H+  H368  1  0.24671705  0.67840973  0.78042814  1
  H+  H369  1  0.34097166  0.15958268  0.71158763  1
  H+  H370  1  0.17130830  0.57594822  0.25957386  1
  H+  H371  1  0.17505956  0.81460825  0.55925081  1
  H+  H372  1  0.81493699  0.65535266  0.44382782  1
  H+  H373  1  0.44667951  0.02120900  0.87039490  1
  H+  H374  1  0.08165491  0.65522918  0.43292342  1
  H+  H375  1  0.86595114  0.23140128  0.00367531  1
  H+  H376  1  0.68297055  0.84354991  0.22775638  1
  H+  H377  1  0.58046499  0.94537172  0.77197010  1
  H+  H378  1  0.05730042  0.18258637  0.40263970  1
  H+  H379  1  0.10129004  0.12594556  0.88922897  1
  H+  H380  1  0.25527561  0.40512953  0.95731450  1
  H+  H381  1  0.90332713  0.32484971  0.23939462  1
  H+  H382  1  0.10154751  0.42887433  0.75815670  1
  H+  H383  1  0.07084242  0.80615844  0.73863650  1
  O2-  O384  1  0.08064178  0.16254373  0.16026756  1
  O2-  O385  1  0.05559612  0.16323010  0.47396714  1
  O2-  O386  1  0.01976776  0.16684749  0.78017446  1
  O2-  O387  1  0.05903992  0.41340914  0.14774688  1
  O2-  O388  1  0.07127598  0.41392397  0.48483967  1
  O2-  O389  1  0.10852751  0.42891700  0.80317167  1
  O2-  O390  1  0.08298771  0.66794571  0.15054960  1
  O2-  O391  1  0.07767228  0.65269994  0.47823295  1
  O2-  O392  1  0.08413770  0.67060310  0.82129493  1
  O2-  O393  1  0.10011697  0.91334373  0.12199514  1
  O2-  O394  1  0.07939433  0.90191792  0.51129092  1
  O2-  O395  1  0.07289966  0.90993142  0.86210481  1
  O2-  O396  1  0.35178443  0.19006243  0.15611055  1
  O2-  O397  1  0.35057778  0.16619097  0.48825470  1
  O2-  O398  1  0.34837788  0.14537341  0.80088345  1
  O2-  O399  1  0.31497585  0.39956684  0.15085741  1
  O2-  O400  1  0.32161544  0.41393495  0.46913777  1
  O2-  O401  1  0.34825271  0.44893010  0.78603510  1
  O2-  O402  1  0.31849925  0.63638674  0.14480980  1
  O2-  O403  1  0.32836912  0.65409431  0.52567310  1
  O2-  O404  1  0.22453608  0.65376767  0.82013044  1
  O2-  O405  1  0.34973905  0.94173785  0.15427983  1
  O2-  O406  1  0.40830563  0.95396620  0.46607338  1
  O2-  O407  1  0.29744756  0.90968472  0.82214387  1
  O2-  O408  1  0.59081887  0.17455066  0.15194535  1
  O2-  O409  1  0.59146668  0.20514910  0.50371515  1
  O2-  O410  1  0.59917589  0.17969739  0.81424106  1
  O2-  O411  1  0.58654555  0.40705864  0.14199973  1
  O2-  O412  1  0.58709171  0.43114777  0.48112322  1
  O2-  O413  1  0.65551540  0.47131415  0.79904381  1
  O2-  O414  1  0.54314492  0.57970446  0.11476132  1
  O2-  O415  1  0.57100594  0.66624404  0.47209169  1
  O2-  O416  1  0.52358786  0.56569653  0.80038980  1
  O2-  O417  1  0.59580106  0.93618174  0.14848575  1
  O2-  O418  1  0.56757398  0.89032199  0.48216110  1
  O2-  O419  1  0.58471392  0.94527622  0.81722190  1
  O2-  O420  1  0.83596752  0.17552299  0.14452958  1
  O2-  O421  1  0.81351020  0.16966014  0.48472919  1
  O2-  O422  1  0.84035707  0.17414843  0.81374162  1
  O2-  O423  1  0.83326574  0.41887161  0.15166570  1
  O2-  O424  1  0.82648372  0.41906248  0.50494061  1
  O2-  O425  1  0.84683723  0.41514546  0.81262077  1
  O2-  O426  1  0.83502898  0.65472684  0.15151270  1
  O2-  O427  1  0.81229427  0.67017961  0.48652577  1
  O2-  O428  1  0.81309024  0.63419634  0.80377506  1
  O2-  O429  1  0.84794584  0.94206527  0.13631590  1
  O2-  O430  1  0.76769753  0.92329397  0.46227379  1
  O2-  O431  1  0.80974367  0.89811515  0.81686974  1
  O2-  O432  1  0.19800450  0.11629269  0.19847150  1
  O2-  O433  1  0.13011637  0.06999831  0.52097515  1
  O2-  O434  1  0.16908765  0.05705343  0.78964365  1
  O2-  O435  1  0.15016799  0.33718475  0.18475001  1
  O2-  O436  1  0.15546779  0.32878126  0.50809730  1
  O2-  O437  1  0.14234010  0.30954220  0.84501045  1
  O2-  O438  1  0.15830909  0.57200372  0.18965027  1
  O2-  O439  1  0.15297057  0.57358773  0.52937198  1
  O2-  O440  1  0.27880176  0.54495958  0.83589239  1
  O2-  O441  1  0.17446464  0.83824372  0.18170240  1
  O2-  O442  1  0.16551385  0.81098656  0.51462859  1
  O2-  O443  1  0.15426634  0.82404549  0.88354921  1
  O2-  O444  1  0.42974646  0.10107171  0.19395907  1
  O2-  O445  1  0.43075285  0.09396735  0.53660481  1
  O2-  O446  1  0.43822135  0.07178122  0.86713653  1
  O2-  O447  1  0.42576810  0.36330135  0.21796409  1
  O2-  O448  1  0.42052622  0.33894496  0.51074239  1
  O2-  O449  1  0.41935818  0.30784950  0.86439817  1
  O2-  O450  1  0.41043823  0.56440676  0.18263026  1
  O2-  O451  1  0.41044096  0.57040886  0.51819093  1
  O2-  O452  1  0.43616660  0.63210525  0.86130159  1
  O2-  O453  1  0.47316010  0.93456062  0.20296575  1
  O2-  O454  1  0.40909962  0.82849587  0.53556476  1
  O2-  O455  1  0.43792566  0.91572054  0.87191058  1
  O2-  O456  1  0.67452855  0.09228657  0.18889654  1
  O2-  O457  1  0.65813761  0.11590486  0.54514465  1
  O2-  O458  1  0.68332390  0.10476962  0.86248553  1
  O2-  O459  1  0.67200561  0.33363712  0.19408727  1
  O2-  O460  1  0.67098147  0.35881671  0.54667243  1
  O2-  O461  1  0.68627201  0.34694232  0.85149593  1
  O2-  O462  1  0.66024257  0.57013600  0.18707432  1
  O2-  O463  1  0.65920734  0.58125502  0.52365565  1
  O2-  O464  1  0.57815966  0.45629773  0.83291962  1
  O2-  O465  1  0.68865249  0.85102267  0.18317427  1
  O2-  O466  1  0.64422844  0.81246494  0.54539876  1
  O2-  O467  1  0.64114651  0.83644785  0.86087748  1
  O2-  O468  1  0.91430692  0.09302277  0.18618137  1
  O2-  O469  1  0.89198573  0.07894768  0.51904415  1
  O2-  O470  1  0.89127399  0.06124601  0.85200435  1
  O2-  O471  1  0.91019066  0.33144060  0.19311669  1
  O2-  O472  1  0.90692037  0.33280798  0.53005052  1
  O2-  O473  1  0.93821942  0.34235132  0.84904181  1
  O2-  O474  1  0.91783744  0.58143719  0.19424046  1
  O2-  O475  1  0.92063695  0.56974898  0.52628789  1
  O2-  O476  1  0.91642582  0.57545392  0.85251333  1
  O2-  O477  1  0.95023926  0.87923647  0.16535388  1
  O2-  O478  1  0.90563095  0.82193020  0.51760731  1
  O2-  O479  1  0.88474343  0.80619156  0.85604979  1
  O2-  O480  1  0.18912901  0.07029355  0.31966213  1
  O2-  O481  1  0.15730317  0.07833730  0.66961319  1
  O2-  O482  1  0.16815125  0.05389491  1.01269648  1
  O2-  O483  1  0.14934262  0.35831024  0.30991655  1
  O2-  O484  1  0.19409115  0.40336907  0.61568902  1
  O2-  O485  1  0.21356340  0.41312883  0.93440584  1
  O2-  O486  1  0.18486762  0.58865040  0.30511965  1
  O2-  O487  1  0.16860343  0.59187332  0.65381082  1
  O2-  O488  1  0.18569719  0.59882143  0.99251819  1
  O2-  O489  1  0.17939973  0.83126751  0.30658758  1
  O2-  O490  1  0.17868231  0.82747335  0.64145535  1
  O2-  O491  1  0.18207477  0.85191542  1.00737459  1
  O2-  O492  1  0.43873172  0.07926579  0.31944949  1
  O2-  O493  1  0.45683146  0.07725433  0.65628417  1
  O2-  O494  1  0.42843200  0.09314630  0.98686339  1
  O2-  O495  1  0.43083030  0.33262204  0.33764531  1
  O2-  O496  1  0.40658460  0.31961144  0.63656382  1
  O2-  O497  1  0.41811605  0.32215842  0.98543609  1
  O2-  O498  1  0.42271062  0.59506252  0.30166429  1
  O2-  O499  1  0.43226648  0.58174144  0.64056885  1
  O2-  O500  1  0.42665576  0.60538469  0.98067747  1
  O2-  O501  1  0.43758157  0.85636870  0.30335299  1
  O2-  O502  1  0.41268152  0.83471479  0.66010689  1
  O2-  O503  1  0.42171823  0.84782071  0.98450383  1
  O2-  O504  1  0.65364888  0.06166693  0.30500259  1
  O2-  O505  1  0.65698335  0.10941937  0.66804987  1
  O2-  O506  1  0.67023688  0.08997412  0.98669001  1
  O2-  O507  1  0.66726030  0.34907833  0.32033955  1
  O2-  O508  1  0.67872801  0.40711292  0.67166041  1
  O2-  O509  1  0.66422174  0.33839326  0.97845731  1
  O2-  O510  1  0.66972143  0.58163470  0.31302222  1
  O2-  O511  1  0.67484268  0.58562255  0.63564996  1
  O2-  O512  1  0.67522220  0.58227474  0.98151566  1
  O2-  O513  1  0.67828516  0.83175708  0.31099734  1
  O2-  O514  1  0.66056639  0.80050146  0.66804408  1
  O2-  O515  1  0.66333848  0.84483662  0.98294866  1
  O2-  O516  1  0.89573390  0.08880253  0.31049298  1
  O2-  O517  1  0.88261804  0.06018580  0.63891579  1
  O2-  O518  1  0.93096485  0.11228705  0.96768907  1
  O2-  O519  1  0.89082293  0.31907101  0.30886556  1
  O2-  O520  1  0.91472544  0.32493472  0.65152325  1
  O2-  O521  1  0.92117409  0.33042441  0.97258187  1
  O2-  O522  1  0.93225710  0.58241386  0.31436544  1
  O2-  O523  1  0.91931616  0.58182714  0.64862585  1
  O2-  O524  1  0.92332007  0.59527868  0.97885621  1
  O2-  O525  1  0.93394658  0.85288231  0.27496600  1
  O2-  O526  1  0.91602696  0.82838893  0.64107269  1
  O2-  O527  1  0.90194781  0.81318820  0.97927181  1
  O2-  O528  1  0.07074724  0.11600060  0.04174637  1
  O2-  O529  1  0.05955606  0.19490992  0.35695017  1
  O2-  O530  1  0.04825727  0.14356596  0.66025274  1
  O2-  O531  1  0.09495868  0.41504463  0.00374727  1
  O2-  O532  1  0.05364326  0.42049190  0.36191082  1
  O2-  O533  1  0.08143274  0.42400533  0.68250782  1
  O2-  O534  1  0.08808377  0.65997801  0.02363951  1
  O2-  O535  1  0.09300764  0.66665432  0.35300922  1
  O2-  O536  1  0.08316543  0.67113806  0.69602610  1
  O2-  O537  1  0.09840463  0.91062886  0.05496606  1
  O2-  O538  1  0.08914946  0.91031970  0.33533425  1
  O2-  O539  1  0.09139362  0.91209174  0.63267217  1
  O2-  O540  1  0.33667309  0.16256583  0.03375894  1
  O2-  O541  1  0.35334837  0.15566291  0.35987152  1
  O2-  O542  1  0.32060287  0.15971853  0.67021611  1
  O2-  O543  1  0.41434456  0.46002010  0.04175898  1
  O2-  O544  1  0.32196066  0.43512475  0.34036913  1
  O2-  O545  1  0.33912923  0.42113942  0.67203745  1
  O2-  O546  1  0.34157509  0.68364503  0.02957169  1
  O2-  O547  1  0.35524691  0.69559692  0.26716405  1
  O2-  O548  1  0.34576587  0.66765079  0.68819190  1
  O2-  O549  1  0.35028078  0.93407265  0.03398692  1
  O2-  O550  1  0.34424610  0.91600116  0.35187791  1
  O2-  O551  1  0.33001706  0.91334121  0.69950203  1
  O2-  O552  1  0.58877827  0.17392623  0.02892640  1
  O2-  O553  1  0.60374711  0.20005314  0.37714984  1
  O2-  O554  1  0.61611458  0.15790258  0.69092080  1
  O2-  O555  1  0.58511644  0.41233066  0.02439745  1
  O2-  O556  1  0.58907718  0.42281637  0.36146730  1
  O2-  O557  1  0.61683932  0.43383611  0.69179184  1
  O2-  O558  1  0.59408678  0.67730168  0.01207577  1
  O2-  O559  1  0.58320441  0.66603222  0.34939284  1
  O2-  O560  1  0.58823922  0.64123424  0.69105655  1
  O2-  O561  1  0.58497727  0.92533815  0.02776430  1
  O2-  O562  1  0.58846263  0.89884824  0.36122400  1
  O2-  O563  1  0.57732803  0.95232657  0.69325570  1
  O2-  O564  1  0.83591642  0.17205938  0.02161502  1
  O2-  O565  1  0.80594106  0.16331510  0.36143434  1
  O2-  O566  1  0.82259798  0.16262138  0.69103563  1
  O2-  O567  1  0.89189055  0.45279560  0.03364462  1
  O2-  O568  1  0.84009897  0.43325496  0.33117498  1
  O2-  O569  1  0.83165509  0.40723335  0.69417190  1
  O2-  O570  1  0.83145736  0.66145434  0.02639564  1
  O2-  O571  1  0.82865604  0.64619345  0.36092651  1
  O2-  O572  1  0.83281675  0.66088802  0.67922332  1
  O2-  O573  1  0.83335384  0.91534988  0.01906725  1
  O2-  O574  1  0.85677326  0.92172091  0.33276400  1
  O2-  O575  1  0.83114478  0.90531441  0.69261668  1
