# generated using pymatgen
data_H2O
_symmetry_space_group_name_H-M   'P 1'
_cell_length_a   17.98161853
_cell_length_b   17.97688328
_cell_length_c   22.00103286
_cell_angle_alpha   90.00154169
_cell_angle_beta   89.99428832
_cell_angle_gamma   120.01013918
_symmetry_Int_Tables_number   1
_chemical_formula_structural   H2O
_chemical_formula_sum   'H384 O192'
_cell_volume   6158.46527977
_cell_formula_units_Z   192
loop_
 _symmetry_equiv_pos_site_id
 _symmetry_equiv_pos_as_xyz
  1  'x, y, z'
loop_
 _atom_type_symbol
 _atom_type_oxidation_number
  H+  1.0
  O2-  -2.0
loop_
 _atom_site_type_symbol
 _atom_site_label
 _atom_site_symmetry_multiplicity
 _atom_site_fract_x
 _atom_site_fract_y
 _atom_site_fract_z
 _atom_site_occupancy
  H+  H0  1  0.88425428  0.62204490  0.66512077  1
  H+  H1  1  0.86421019  0.22664265  0.49175084  1
  H+  H2  1  0.38507752  0.34466224  0.66917158  1
  H+  H3  1  0.12721900  1.02534969  0.50407492  1
  H+  H4  1  0.35559808  0.94664654  0.10812024  1
  H+  H5  1  0.85792718  0.63749244  0.16169828  1
  H+  H6  1  0.64025038  0.36949055  0.83694056  1
  H+  H7  1  0.51545675  0.37307071  0.64288673  1
  H+  H8  1  0.38423983  1.02994892  0.51839891  1
  H+  H9  1  0.13545507  0.37173113  0.33353995  1
  H+  H10  1  0.85859731  0.47418711  0.15533637  1
  H+  H11  1  0.18069769  0.81188923  0.24624648  1
  H+  H12  1  0.37064199  0.38203083  0.82868678  1
  H+  H13  1  0.65633044  0.77798887  0.66994910  1
  H+  H14  1  0.36355222  0.63653672  0.67095993  1
  H+  H15  1  0.72225118  0.61417488  0.33198067  1
  H+  H16  1  0.47089162  0.61971805  0.84185944  1
  H+  H17  1  0.12763330  0.27036723  0.33790694  1
  H+  H18  1  0.11050051  0.72418606  0.47865425  1
  H+  H19  1  0.52165750  0.88589706  0.66948904  1
  H+  H20  1  0.86971202  0.38934753  0.49507417  1
  H+  H21  1  0.62219324  0.86770566  0.83127448  1
  H+  H22  1  0.67176403  0.09623678  0.57165632  1
  H+  H23  1  0.11038650  0.23150187  0.00299060  1
  H+  H24  1  0.26710552  0.63708610  0.15717067  1
  H+  H25  1  0.72572286  0.61307134  0.50139791  1
  H+  H26  1  0.12990107  0.86276713  0.99653189  1
  H+  H27  1  0.25857884  0.87843205  1.01049820  1
  H+  H28  1  0.11324448  0.71328554  0.32753995  1
  H+  H29  1  0.09860912  0.37840642  0.00601073  1
  H+  H30  1  0.12676973  0.60039678  0.32255128  1
  H+  H31  1  0.36139048  0.41104297  0.00681313  1
  H+  H32  1  0.86533911  -0.01555848  0.79189599  1
  H+  H33  1  0.40865024  0.83138284  0.60601201  1
  H+  H34  1  0.35930392  0.72582887  0.82576833  1
  H+  H35  1  0.85880896  0.72777843  0.33497740  1
  H+  H36  1  0.11668657  0.22125181  0.82656730  1
  H+  H37  1  0.35844555  0.47071031  0.49484336  1
  H+  H38  1  0.02266082  0.14114902  -0.00031214  1
  H+  H39  1  0.13855095  0.36248002  0.83776529  1
  H+  H40  1  0.89834297  0.26371230  0.65766112  1
  H+  H41  1  0.46931262  0.87030206  0.99554909  1
  H+  H42  1  0.48730749  0.68088481  1.06405477  1
  H+  H43  1  0.13524430  0.86901260  0.48074946  1
  H+  H44  1  -0.01887304  0.11288008  0.83115441  1
  H+  H45  1  0.60903059  -0.02574657  0.52452128  1
  H+  H46  1  0.35083241  0.47267460  0.34436076  1
  H+  H47  1  0.97229872  0.86457196  0.16379140  1
  H+  H48  1  0.88791289  0.53312755  0.84708780  1
  H+  H49  1  0.96815703  0.61127817  0.32320173  1
  H+  H50  1  0.22566874  0.36411294  0.50693861  1
  H+  H51  1  0.02459600  0.88310027  0.49044667  1
  H+  H52  1  0.60498145  0.20258752  0.00526317  1
  H+  H53  1  0.36093672  0.73779137  1.00671187  1
  H+  H54  1  0.86523137  0.98827217  0.49215110  1
  H+  H55  1  0.67084723  0.32548899  0.22819617  1
  H+  H56  1  0.01683696  0.38575906  0.16111079  1
  H+  H57  1  0.73109708  0.86727076  0.50669217  1
  H+  H58  1  0.30265083  0.27503214  1.03853131  1
  H+  H59  1  0.13068764  0.10654231  0.66159606  1
  H+  H60  1  0.51918403  0.87867121  0.33979234  1
  H+  H61  1  0.78304760  0.89934413  0.71173462  1
  H+  H62  1  0.10555321  0.38428171  0.15965541  1
  H+  H63  1  0.22939246  0.36823521  0.33665325  1
  H+  H64  1  0.84847489  0.37188882  -0.00146902  1
  H+  H65  1  0.89610523  0.12081179  0.83420720  1
  H+  H66  1  0.88059906  0.26643472  0.97991075  1
  H+  H67  1  0.48457974  0.10338978  0.31204694  1
  H+  H68  1  0.60770039  0.48142675  0.34130532  1
  H+  H69  1  0.38793823  0.86455792  0.66901477  1
  H+  H70  1  0.76290449  0.12334485  0.99684595  1
  H+  H71  1  0.97481475  0.12070093  0.16649867  1
  H+  H72  1  0.83376784  0.84748373  0.64944968  1
  H+  H73  1  0.63076674  0.61168739  0.32933780  1
  H+  H74  1  0.76993206  0.13396988  0.34492139  1
  H+  H75  1  0.86766598  0.90140677  0.48653700  1
  H+  H76  1  -0.00804254  0.14422739  0.65520025  1
  H+  H77  1  0.46486843  0.86129230  0.84181115  1
  H+  H78  1  0.10725361  0.63414249  0.15807695  1
  H+  H79  1  0.49108759  0.64145690  0.06166293  1
  H+  H80  1  0.27061653  0.38960274  0.15701811  1
  H+  H81  1  0.96885753  0.61140316  0.17047475  1
  H+  H82  1  0.72553961  0.11625321  0.67120036  1
  H+  H83  1  0.85867963  0.63794723  0.33689032  1
  H+  H84  1  0.88264264  0.77395143  0.16763371  1
  H+  H85  1  0.78213746  0.15147231  0.82645051  1
  H+  H86  1  0.12185492  0.88031638  0.68705793  1
  H+  H87  1  0.36619780  0.46772094  0.68437541  1
  H+  H88  1  0.62001030  0.73211996  0.49110302  1
  H+  H89  1  0.61051744  0.72083032  0.16900580  1
  H+  H90  1  0.49706755  0.35121895  0.97590774  1
  H+  H91  1  0.23291914  0.36106088  0.66354117  1
  H+  H92  1  0.38707271  0.86051942  0.51122139  1
  H+  H93  1  0.10386538  0.89152517  0.14944279  1
  H+  H94  1  0.91269684  0.59102712  0.60439611  1
  H+  H95  1  0.17278988  0.96738474  0.03802604  1
  H+  H96  1  0.61762124  0.21651549  0.16114175  1
  H+  H97  1  0.63791196  0.11057587  0.18853314  1
  H+  H98  1  0.88264798  0.72788099  0.01308394  1
  H+  H99  1  0.61188453  0.12675512  0.33883755  1
  H+  H100  1  0.29334574  0.27635002  0.00537578  1
  H+  H101  1  0.88463757  0.11593109  0.50165596  1
  H+  H102  1  0.12541180  0.02429531  0.15895671  1
  H+  H103  1  0.13666931  0.11861818  0.99028921  1
  H+  H104  1  0.63642438  0.35427161  0.17007294  1
  H+  H105  1  0.87906351  0.52341108  0.32654798  1
  H+  H106  1  0.21954220  0.37163116  -0.00723687  1
  H+  H107  1  -0.00230629  0.86957750  -0.00042426  1
  H+  H108  1  0.26663551  0.13555906  0.16872355  1
  H+  H109  1  0.40992581  0.83250544  0.26700806  1
  H+  H110  1  0.12863582  1.01688867  0.66167120  1
  H+  H111  1  0.61617628  0.47466358  0.48562986  1
  H+  H112  1  0.85986725  0.23881228  0.15800226  1
  H+  H113  1  0.67144994  0.09257443  0.76488533  1
  H+  H114  1  0.35322726  0.37632199  0.50030842  1
  H+  H115  1  0.87772094  0.90384649  0.78792917  1
  H+  H116  1  0.88411385  0.11699822  0.16677744  1
  H+  H117  1  0.48532906  0.61134380  0.66471738  1
  H+  H118  1  0.84900871  0.48789362  0.67516635  1
  H+  H119  1  0.24783928  0.87002737  0.68650782  1
  H+  H120  1  0.87159200  0.24217355  0.82989757  1
  H+  H121  1  0.22147131  0.61583182  0.50282434  1
  H+  H122  1  0.60543232  0.71196431  0.97056498  1
  H+  H123  1  0.61547513  0.65259505  0.08851658  1
  H+  H124  1  0.03110826  0.86205811  0.71022039  1
  H+  H125  1  0.11686150  0.38932488  0.49378933  1
  H+  H126  1  0.10899781  0.72307562  0.15325895  1
  H+  H127  1  0.83889038  0.67355794  0.74627712  1
  H+  H128  1  -0.00615733  0.88917635  0.82811029  1
  H+  H129  1  0.84600680  0.72536344  0.68480295  1
  H+  H130  1  0.51269433  0.38938569  0.34113270  1
  H+  H131  1  0.86652278  0.39146198  0.33976493  1
  H+  H132  1  0.89114521  0.63767533  0.01784576  1
  H+  H133  1  0.37293805  0.60863209  0.32952256  1
  H+  H134  1  0.22700066  0.36006595  0.84182300  1
  H+  H135  1  0.72871427  0.11393944  0.51177518  1
  H+  H136  1  0.41495915  0.05214140  0.25641597  1
  H+  H137  1  0.19579824  0.84436280  0.11271239  1
  H+  H138  1  0.26620960  0.13986335  0.49780988  1
  H+  H139  1  0.53733095  0.40237275  0.81105363  1
  H+  H140  1  0.72754893  0.35319237  0.32085921  1
  H+  H141  1  0.38342035  0.36359757  0.32861281  1
  H+  H142  1  0.37948816  0.61419498  0.83507930  1
  H+  H143  1  0.59938216  0.97839060  0.81717085  1
  H+  H144  1  0.39814543  0.27607310  0.82204662  1
  H+  H145  1  0.60730367  0.23175593  0.82712623  1
  H+  H146  1  0.28246627  0.93378627  0.36787142  1
  H+  H147  1  0.16336919  0.33645547  0.93190761  1
  H+  H148  1  0.71485722  0.33714459  0.98693203  1
  H+  H149  1  0.01998825  0.14127496  0.49113445  1
  H+  H150  1  0.63873568  0.28193019  0.66245090  1
  H+  H151  1  0.16220365  0.58468737  0.56264017  1
  H+  H152  1  0.72515796  0.61068719  0.17405921  1
  H+  H153  1  0.99537901  0.34437279  0.65254325  1
  H+  H154  1  0.36517398  0.46956309  0.83276895  1
  H+  H155  1  0.63694397  0.46269604  1.00927326  1
  H+  H156  1  0.37675731  0.11362172  0.67480642  1
  H+  H157  1  0.11642450  0.47452243  0.66920101  1
  H+  H158  1  0.61353309  0.89098656  0.67331032  1
  H+  H159  1  0.52049424  0.87434738  0.15735747  1
  H+  H160  1  0.91834479  0.34293167  0.89364201  1
  H+  H161  1  0.60939441  0.46841453  0.16083348  1
  H+  H162  1  0.61013743  0.88575992  0.52156290  1
  H+  H163  1  0.63154012  0.12232905  0.81540930  1
  H+  H164  1  0.86338760  0.14256672  0.33878869  1
  H+  H165  1  0.90878289  0.86647939  0.99549323  1
  H+  H166  1  0.78178344  0.89847570  0.33111053  1
  H+  H167  1  0.16117105  0.57823057  0.22803761  1
  H+  H168  1  0.62300579  0.38826210  0.48353052  1
  H+  H169  1  0.13562525  0.02865665  0.99022976  1
  H+  H170  1  0.77143693  0.38289546  0.15665710  1
  H+  H171  1  0.38248921  0.86181861  0.32778489  1
  H+  H172  1  0.38443498  1.02453218  0.84056958  1
  H+  H173  1  0.11385615  0.47443355  0.33764498  1
  H+  H174  1  0.10715004  0.11134651  0.31220802  1
  H+  H175  1  0.22631023  0.59743269  0.98506748  1
  H+  H176  1  0.64085643  0.26219551  0.31754523  1
  H+  H177  1  0.12147394  0.22754244  0.67516000  1
  H+  H178  1  0.21928070  0.60713046  0.32372216  1
  H+  H179  1  0.38253354  0.26801005  0.18046414  1
  H+  H180  1  0.34749975  0.12577407  0.17904415  1
  H+  H181  1  0.60040781  0.46414377  0.65813452  1
  H+  H182  1  0.72569023  0.96808762  0.94949062  1
  H+  H183  1  0.51703495  0.14022460  0.82724341  1
  H+  H184  1  0.97888572  0.36269897  0.50006264  1
  H+  H185  1  0.63054607  0.85752446  0.16315184  1
  H+  H186  1  0.37203896  0.98732379  0.33450436  1
  H+  H187  1  0.58213422  0.41779146  0.40762519  1
  H+  H188  1  0.73588618  0.37025392  0.50274306  1
  H+  H189  1  0.46901943  0.61156273  0.17977262  1
  H+  H190  1  0.61311692  0.63980345  0.48808181  1
  H+  H191  1  0.88486665  0.61138313  0.50400466  1
  H+  H192  1  0.63386821  0.02757258  0.66677446  1
  H+  H193  1  0.86355746  0.89021267  0.15416308  1
  H+  H194  1  0.88781318  0.11223775  0.97891898  1
  H+  H195  1  0.58667594  0.40228561  0.06545859  1
  H+  H196  1  0.92515830  0.32382315  0.56037300  1
  H+  H197  1  0.35041289  -0.03399018  1.00738467  1
  H+  H198  1  0.72717769  0.11222657  0.19691124  1
  H+  H199  1  0.11162584  0.63884411  0.83272033  1
  H+  H200  1  0.90258512  0.80209904  0.83063656  1
  H+  H201  1  0.36461873  0.26723551  0.50979581  1
  H+  H202  1  0.19355904  0.84579363  0.62681199  1
  H+  H203  1  0.96684366  0.77859491  0.55819622  1
  H+  H204  1  0.72514965  0.86412558  0.16158228  1
  H+  H205  1  0.60483460  0.87613897  0.33671567  1
  H+  H206  1  0.63665475  0.52556489  0.74125828  1
  H+  H207  1  0.61309256  0.63346398  0.69287573  1
  H+  H208  1  0.09563599  1.01841144  0.31242468  1
  H+  H209  1  0.63397589  0.59873432  0.88246087  1
  H+  H210  1  0.15977059  0.83524248  0.53793211  1
  H+  H211  1  0.61372163  0.15062416  0.67610586  1
  H+  H212  1  0.11737182  0.72439257  0.68179693  1
  H+  H213  1  0.60314064  0.71947827  0.33183721  1
  H+  H214  1  0.13470302  0.78560888  0.84331316  1
  H+  H215  1  0.88590966  0.86852242  0.31876724  1
  H+  H216  1  0.14057773  0.50549931  -0.01609495  1
  H+  H217  1  0.88236782  0.36772013  0.17145415  1
  H+  H218  1  0.10908922  0.63462142  0.48774077  1
  H+  H219  1  0.86274170  0.39481047  0.82158918  1
  H+  H220  1  0.91175894  0.83451868  0.25850410  1
  H+  H221  1  0.13410676  0.60978687  0.65967294  1
  H+  H222  1  0.23868084  0.84332331  0.30416361  1
  H+  H223  1  0.13129984  0.52122440  0.16786446  1
  H+  H224  1  -0.03285161  0.35736375  -0.01137706  1
  H+  H225  1  0.28011932  0.14047858  0.82249985  1
  H+  H226  1  0.62741678  0.33785069  0.99024537  1
  H+  H227  1  0.38622834  0.11501235  0.83849035  1
  H+  H228  1  0.11456902  0.47804081  0.49167673  1
  H+  H229  1  0.60495357  0.89536087  -0.00058578  1
  H+  H230  1  0.10442875  0.89352064  0.32913680  1
  H+  H231  1  0.86348216  -0.02049366  0.15499029  1
  H+  H232  1  0.88009330  -0.01609482  0.99839942  1
  H+  H233  1  0.35413417  0.14112951  0.50510957  1
  H+  H234  1  0.35239504  0.88326480  0.83704723  1
  H+  H235  1  0.81944190  0.40320734  0.05677418  1
  H+  H236  1  0.92792460  0.88089311  0.67009719  1
  H+  H237  1  0.22425606  0.61215515  0.65665989  1
  H+  H238  1  0.09973664  0.71623173  0.00067625  1
  H+  H239  1  0.11534163  0.47697881  0.82326713  1
  H+  H240  1  0.13666994  0.88016418  0.84464938  1
  H+  H241  1  0.57747896  0.72130359  -0.04964022  1
  H+  H242  1  0.87041238  0.47937205  0.49657979  1
  H+  H243  1  0.35733774  0.63975772  0.15998490  1
  H+  H244  1  0.35731295  0.64121665  0.48484416  1
  H+  H245  1  0.76566263  0.60655881  1.00261004  1
  H+  H246  1  0.78533880  0.64883904  0.83893362  1
  H+  H247  1  0.02120175  0.15737325  0.34000289  1
  H+  H248  1  0.13317409  0.27174719  0.16949022  1
  H+  H249  1  0.89546823  0.03795523  0.32173550  1
  H+  H250  1  0.39633631  0.87405907  0.17547074  1
  H+  H251  1  0.35321457  0.21114881  0.32310517  1
  H+  H252  1  0.48652999  0.63012823  0.50051710  1
  H+  H253  1  0.71780553  0.78188759  0.28565001  1
  H+  H254  1  0.91574379  0.82328258  0.57754540  1
  H+  H255  1  0.36379597  0.12394763  -0.00680201  1
  H+  H256  1  0.97631547  0.61609271  0.50528200  1
  H+  H257  1  0.87271238  0.64646317  0.83749234  1
  H+  H258  1  0.97379118  0.35936904  0.32716970  1
  H+  H259  1  0.10755200  0.13849467  0.15278303  1
  H+  H260  1  0.47494352  0.09156253  0.99459289  1
  H+  H261  1  0.66671486  0.07738918  0.28127886  1
  H+  H262  1  0.22172717  0.61153050  0.83224321  1
  H+  H263  1  0.60655805  0.74759841  0.82643391  1
  H+  H264  1  0.37877255  0.77603976  0.17305859  1
  H+  H265  1  0.26456228  0.88872836  0.83506391  1
  H+  H266  1  0.62364847  0.23177081  0.48332519  1
  H+  H267  1  0.86114914  0.71892721  0.49361856  1
  H+  H268  1  0.88241643  0.27295327  0.32828186  1
  H+  H269  1  0.28211673  0.89064750  0.48560877  1
  H+  H270  1  0.84181891  0.92410850  1.05742829  1
  H+  H271  1  0.36678004  0.53259023  0.98985006  1
  H+  H272  1  0.12484213  0.38932364  0.67257228  1
  H+  H273  1  0.46765454  0.11117158  0.66833540  1
  H+  H274  1  0.35310610  0.72433292  0.33506701  1
  H+  H275  1  0.28149593  0.13594872  0.98780437  1
  H+  H276  1  0.35606690  0.12751638  0.31373519  1
  H+  H277  1  0.91052105  0.33537477  0.23193618  1
  H+  H278  1  0.97824287  0.61920213  0.84820711  1
  H+  H279  1  0.62088966  0.14257698  0.48695675  1
  H+  H280  1  0.63835484  1.01576289  0.34035414  1
  H+  H281  1  0.35866660  0.47968309  0.16075614  1
  H+  H282  1  0.36798400  0.98251408  0.68671143  1
  H+  H283  1  -0.02020809  0.37236464  0.83444152  1
  H+  H284  1  0.15178622  0.07824984  0.56680774  1
  H+  H285  1  0.13519298  0.27613642  0.50738732  1
  H+  H286  1  1.01002046  0.88128232  0.33053076  1
  H+  H287  1  0.14088790  1.02231198  0.83994072  1
  H+  H288  1  0.95710609  0.20151883  0.62534108  1
  H+  H289  1  0.07996110  0.66547440  0.77411909  1
  H+  H290  1  0.33780353  0.16353213  0.75990030  1
  H+  H291  1  0.10739167  0.93351835  0.78104448  1
  H+  H292  1  0.38329054  0.25215780  0.66634466  1
  H+  H293  1  0.77138787  0.39034950  0.82675533  1
  H+  H294  1  0.07862791  0.17339627  0.09559971  1
  H+  H295  1  0.83662349  0.17205248  0.74217150  1
  H+  H296  1  0.39865485  0.07863908  0.58120005  1
  H+  H297  1  0.83633987  0.92923326  0.39271086  1
  H+  H298  1  0.58503646  0.14899858  0.10719331  1
  H+  H299  1  0.66211570  0.57760849  0.55806732  1
  H+  H300  1  0.07848132  0.65932682  0.39015270  1
  H+  H301  1  0.38379174  0.35762520  0.17187028  1
  H+  H302  1  0.10807219  0.13940284  0.49202941  1
  H+  H303  1  0.83089222  0.16519819  0.43368786  1
  H+  H304  1  0.08566524  0.16517925  0.73344918  1
  H+  H305  1  0.92260827  0.09764669  0.26289036  1
  H+  H306  1  0.36599948  0.62862784  0.99009155  1
  H+  H307  1  0.16841210  0.57095700  0.89256022  1
  H+  H308  1  0.93636014  0.59364213  0.95854186  1
  H+  H309  1  0.39331137  0.32421737  0.57090787  1
  H+  H310  1  0.57757525  0.66953551  0.39557003  1
  H+  H311  1  0.43748360  0.33266840  0.88180933  1
  H+  H312  1  0.13753191  0.07754870  0.21916434  1
  H+  H313  1  0.57817127  0.67965701  0.73516137  1
  H+  H314  1  0.86058141  0.14062147  0.68002882  1
  H+  H315  1  0.08034842  0.18116056  0.40251323  1
  H+  H316  1  0.67440158  0.85546579  0.88485279  1
  H+  H317  1  0.15988139  0.83405964  0.93652130  1
  H+  H318  1  0.67248965  0.33907029  0.55951895  1
  H+  H319  1  0.33315583  0.66886820  0.76404262  1
  H+  H320  1  0.37559220  0.86320892  0.99867224  1
  H+  H321  1  0.67659155  0.82620829  0.24858969  1
  H+  H322  1  0.33048428  0.40598716  0.74180965  1
  H+  H323  1  0.70683437  0.70868830  0.06068911  1
  H+  H324  1  0.32256886  0.66824205  0.39589931  1
  H+  H325  1  0.83654321  0.42007114  0.39933094  1
  H+  H326  1  0.35808488  0.72965110  0.49269360  1
  H+  H327  1  0.61186559  0.98628829  0.00603029  1
  H+  H328  1  0.36348827  0.72626038  0.67099346  1
  H+  H329  1  0.81903502  0.42557365  0.73680742  1
  H+  H330  1  0.41832380  0.34011583  0.26848627  1
  H+  H331  1  0.06961870  0.41025042  0.06474368  1
  H+  H332  1  0.75456067  0.90632876  0.97804217  1
  H+  H333  1  0.56658800  0.91179907  0.76365403  1
  H+  H334  1  0.67850030  0.83169458  0.56853928  1
  H+  H335  1  0.46149710  0.60707176  0.32916034  1
  H+  H336  1  0.62339974  0.48463502  0.83433670  1
  H+  H337  1  0.17108351  0.09189202  0.89473153  1
  H+  H338  1  0.74318036  0.38718142  0.67002492  1
  H+  H339  1  0.61365886  0.66178707  0.81779398  1
  H+  H340  1  0.08681439  0.41731156  0.39974870  1
  H+  H341  1  0.07167370  0.91760303  0.42504300  1
  H+  H342  1  0.52021036  0.38006423  0.16075768  1
  H+  H343  1  0.43791624  0.64595669  0.55357090  1
  H+  H344  1  0.66090508  0.32877502  0.89688122  1
  H+  H345  1  0.33197552  0.67358943  0.06573782  1
  H+  H346  1  0.28212465  0.13485574  0.67588534  1
  H+  H347  1  0.02377213  0.63982053  0.67553009  1
  H+  H348  1  0.66891630  0.57760696  0.23570483  1
  H+  H349  1  0.41844158  0.07135684  0.93327921  1
  H+  H350  1  0.58151190  0.18189866  0.73305049  1
  H+  H351  1  0.40735466  0.82949994  0.90277851  1
  H+  H352  1  0.83530459  0.66781933  0.10010586  1
  H+  H353  1  0.69058295  0.57355334  0.92124627  1
  H+  H354  1  0.33102892  0.43550704  0.06790341  1
  H+  H355  1  0.08650821  0.41518236  0.76522556  1
  H+  H356  1  0.77809906  0.17466600  0.11964489  1
  H+  H357  1  0.90896050  0.58110919  0.22977640  1
  H+  H358  1  0.06832389  0.65203991  0.05555909  1
  H+  H359  1  0.47383840  0.85729207  0.52488803  1
  H+  H360  1  0.40288924  0.57992706  0.23514942  1
  H+  H361  1  0.08135620  0.92465230  0.08783858  1
  H+  H362  1  0.60877688  0.63015563  0.17817463  1
  H+  H363  1  0.35592727  0.92886228  0.43727399  1
  H+  H364  1  0.34076743  0.92110252  0.74756008  1
  H+  H365  1  0.42227763  0.55821743  0.61040350  1
  H+  H366  1  0.11906335  0.13218507  0.82516744  1
  H+  H367  1  0.57423220  0.90415289  0.09501285  1
  H+  H368  1  0.61386888  0.11864397  1.01059232  1
  H+  H369  1  0.83034135  0.66711553  0.42987197  1
  H+  H370  1  0.66446046  0.07894323  0.94280998  1
  H+  H371  1  0.58049379  0.16382476  0.39143882  1
  H+  H372  1  0.32459313  0.41188857  0.40454728  1
  H+  H373  1  0.63179166  0.37020113  0.64484722  1
  H+  H374  1  0.39651853  0.59032239  0.92348795  1
  H+  H375  1  0.71599607  0.59740331  0.70272096  1
  H+  H376  1  0.92203906  0.09708445  0.56187839  1
  H+  H377  1  0.92332581  0.08281107  0.92189087  1
  H+  H378  1  0.24056344  0.90237255  0.17047030  1
  H+  H379  1  0.67268365  0.59402445  1.01049536  1
  H+  H380  1  0.84190000  0.16289616  0.04758583  1
  H+  H381  1  0.40733259  0.26373462  0.96888669  1
  H+  H382  1  0.17361011  0.33452525  0.60284362  1
  H+  H383  1  0.16406743  0.33048058  0.22946615  1
  O2-  O384  1  0.07845505  0.17255689  0.14140451  1
  O2-  O385  1  0.08070054  0.17275226  0.47589575  1
  O2-  O386  1  0.08690738  0.16228151  0.80936810  1
  O2-  O387  1  0.07683317  0.41576001  0.14449106  1
  O2-  O388  1  0.08645444  0.41805193  0.47536075  1
  O2-  O389  1  0.08548689  0.41471880  0.81063723  1
  O2-  O390  1  0.07405496  0.66164208  0.14369147  1
  O2-  O391  1  0.07676346  0.66168819  0.46975258  1
  O2-  O392  1  0.08127275  0.66983191  0.81902953  1
  O2-  O393  1  0.07007335  0.91836736  0.13649407  1
  O2-  O394  1  0.08082312  0.91781851  0.47014909  1
  O2-  O395  1  0.09828397  0.92931259  0.82497789  1
  O2-  O396  1  0.33014367  0.16540955  0.16311723  1
  O2-  O397  1  0.32716208  0.17239496  0.48596624  1
  O2-  O398  1  0.34062708  0.16754586  0.80760244  1
  O2-  O399  1  0.33066651  0.42145054  0.14109879  1
  O2-  O400  1  0.32614250  0.41200450  0.47916735  1
  O2-  O401  1  0.33415887  0.40925631  0.81872789  1
  O2-  O402  1  0.32831581  0.67022336  0.14294973  1
  O2-  O403  1  0.32506828  0.67051772  0.47345615  1
  O2-  O404  1  0.33224474  0.66568534  0.80937970  1
  O2-  O405  1  0.38295891  0.95708617  0.14898771  1
  O2-  O406  1  0.34528427  0.91958063  0.48159334  1
  O2-  O407  1  0.32719470  0.91754492  0.82072687  1
  O2-  O408  1  0.59137681  0.15424453  0.15201629  1
  O2-  O409  1  0.59661698  0.17376731  0.46533792  1
  O2-  O410  1  0.57713188  0.17207411  0.80983006  1
  O2-  O411  1  0.58042784  0.40853009  0.14520332  1
  O2-  O412  1  0.59157431  0.41711409  0.46691212  1
  O2-  O413  1  0.60052699  0.43885659  0.80275200  1
  O2-  O414  1  0.57599920  0.65741807  0.16189169  1
  O2-  O415  1  0.58553344  0.67270443  0.47334669  1
  O2-  O416  1  0.57342853  0.68233698  0.81097458  1
  O2-  O417  1  0.57773213  0.89438428  0.13924437  1
  O2-  O418  1  0.57422531  0.91117453  0.53155774  1
  O2-  O419  1  0.56557690  0.91544552  0.80915071  1
  O2-  O420  1  0.82820098  0.17863101  0.13997932  1
  O2-  O421  1  0.83283870  0.16469301  0.47938277  1
  O2-  O422  1  0.84409859  0.17989566  0.81676222  1
  O2-  O423  1  0.83274890  0.41325562  0.14186265  1
  O2-  O424  1  0.83994811  0.42013635  0.47955762  1
  O2-  O425  1  0.83016051  0.42375527  0.80826372  1
  O2-  O426  1  0.82766661  0.66783187  0.14631431  1
  O2-  O427  1  0.82710085  0.66091339  0.47557862  1
  O2-  O428  1  0.84249528  0.67625608  0.81965849  1
  O2-  O429  1  0.83310526  0.92014544  0.13819302  1
  O2-  O430  1  0.83428407  0.92790117  0.47391989  1
  O2-  O431  1  0.84948901  0.93318982  0.76670329  1
  O2-  O432  1  0.15461496  0.08467415  0.17511001  1
  O2-  O433  1  0.15060139  0.08357452  0.52126593  1
  O2-  O434  1  0.17132583  0.08903125  0.84932848  1
  O2-  O435  1  0.16415690  0.33320051  0.18484050  1
  O2-  O436  1  0.16527945  0.33626244  0.52340083  1
  O2-  O437  1  0.16598927  0.33084857  0.85579546  1
  O2-  O438  1  0.16279531  0.58210777  0.18277519  1
  O2-  O439  1  0.16040896  0.58419133  0.51703347  1
  O2-  O440  1  0.16174596  0.57990055  0.84762746  1
  O2-  O441  1  0.18258773  0.84971356  0.15507665  1
  O2-  O442  1  0.16505030  0.83617878  0.49391544  1
  O2-  O443  1  0.16812925  0.84511793  0.85884061  1
  O2-  O444  1  0.32922279  -0.02347974  0.18851773  1
  O2-  O445  1  0.39791095  0.08532880  0.53633188  1
  O2-  O446  1  0.41784648  0.08560161  0.85454548  1
  O2-  O447  1  0.41524734  0.33162653  0.19080836  1
  O2-  O448  1  0.38729726  0.32813699  0.52617651  1
  O2-  O449  1  0.43077626  0.33770215  0.83617650  1
  O2-  O450  1  0.40617541  0.58251922  0.18985058  1
  O2-  O451  1  0.42785612  0.60674577  0.51984110  1
  O2-  O452  1  0.40966066  0.58584396  0.85543293  1
  O2-  O453  1  0.41445187  0.83369608  0.19200790  1
  O2-  O454  1  0.40843284  0.82321965  0.52862375  1
  O2-  O455  1  0.40471218  0.82661804  0.85728910  1
  O2-  O456  1  0.66773220  0.08357092  0.21107470  1
  O2-  O457  1  0.66859439  0.08645407  0.52729617  1
  O2-  O458  1  0.66501352  0.09116866  0.80915589  1
  O2-  O459  1  0.67046698  0.32687610  0.18188768  1
  O2-  O460  1  0.67377336  0.34132890  0.51466760  1
  O2-  O461  1  0.66645240  0.33515977  0.85084243  1
  O2-  O462  1  0.66485216  0.57794444  0.19068567  1
  O2-  O463  1  0.66336956  0.58323830  0.51395347  1
  O2-  O464  1  0.67595969  0.58032204  0.87648955  1
  O2-  O465  1  0.66655505  0.83128489  0.17986849  1
  O2-  O466  1  0.67261018  0.82974496  0.52371719  1
  O2-  O467  1  0.65326256  0.83665879  0.84266349  1
  O2-  O468  1  0.91478349  0.08906810  0.18366686  1
  O2-  O469  1  0.91580740  0.08561915  0.51687033  1
  O2-  O470  1  0.91963233  0.08289044  0.84486335  1
  O2-  O471  1  0.91233146  0.33574500  0.18658609  1
  O2-  O472  1  0.91881667  0.33243174  0.51595493  1
  O2-  O473  1  0.91824942  0.34455731  0.84769634  1
  O2-  O474  1  0.90777961  0.58090739  0.18453176  1
  O2-  O475  1  0.91767132  0.58697190  0.52396902  1
  O2-  O476  1  0.91797706  0.59199155  0.86390842  1
  O2-  O477  1  0.91254540  0.83512619  0.18239347  1
  O2-  O478  1  0.93824767  0.80757824  0.54059219  1
  O2-  O479  1  0.92916972  0.86440505  0.82522368  1
  O2-  O480  1  0.09108839  0.06082168  0.28674289  1
  O2-  O481  1  0.15733147  0.07455309  0.64324048  1
  O2-  O482  1  0.16516738  0.08865585  0.97239776  1
  O2-  O483  1  0.16609059  0.33776214  0.31990454  1
  O2-  O484  1  0.17220748  0.33309383  0.64826841  1
  O2-  O485  1  0.16010083  0.33639490  0.97766211  1
  O2-  O486  1  0.15899633  0.57139576  0.30814550  1
  O2-  O487  1  0.16403667  0.58102730  0.64106931  1
  O2-  O488  1  0.18806037  0.54934204  0.95864498  1
  O2-  O489  1  0.17825000  0.81243975  0.29084956  1
  O2-  O490  1  0.18463704  0.83635372  0.67029256  1
  O2-  O491  1  0.15695521  0.82804035  0.98203856  1
  O2-  O492  1  0.42201668  0.06885357  0.29954106  1
  O2-  O493  1  0.40551683  0.07493798  0.66073026  1
  O2-  O494  1  0.41460937  0.06278626  0.97823430  1
  O2-  O495  1  0.42073085  0.34130173  0.31415013  1
  O2-  O496  1  0.41194110  0.31528899  0.64858585  1
  O2-  O497  1  0.44126461  0.32502725  0.95429328  1
  O2-  O498  1  0.40042092  0.57474855  0.31559727  1
  O2-  O499  1  0.42316443  0.57723100  0.65220947  1
  O2-  O500  1  0.39161808  0.59157157  0.97041828  1
  O2-  O501  1  0.40861715  0.82862840  0.31292191  1
  O2-  O502  1  0.41443022  0.83163039  0.65149652  1
  O2-  O503  1  0.40772889  0.83546178  0.98153804  1
  O2-  O504  1  0.67003714  0.07733617  0.32769538  1
  O2-  O505  1  0.66358204  0.09079540  0.65929189  1
  O2-  O506  1  0.67281132  0.07642794  0.98632992  1
  O2-  O507  1  0.67120144  0.32152993  0.30057691  1
  O2-  O508  1  0.67205416  0.34280980  0.64529509  1
  O2-  O509  1  0.65369674  0.30658664  0.97001379  1
  O2-  O510  1  0.66169885  0.58098180  0.31659622  1
  O2-  O511  1  0.65187644  0.56304638  0.70474606  1
  O2-  O512  1  0.70205804  0.56715207  0.98864122  1
  O2-  O513  1  0.68794054  0.81389511  0.29274872  1
  O2-  O514  1  0.67842370  0.83829257  0.65397324  1
  O2-  O515  1  0.70589472  0.90719870  0.95561534  1
  O2-  O516  1  0.92406162  0.09921407  0.30846410  1
  O2-  O517  1  0.94129308  0.14075209  0.63278251  1
  O2-  O518  1  0.92309293  0.08506775  0.96765251  1
  O2-  O519  1  0.91402202  0.33331463  0.31199714  1
  O2-  O520  1  0.94613451  0.29815503  0.62899898  1
  O2-  O521  1  0.90966820  0.32841108  0.96809345  1
  O2-  O522  1  0.90670070  0.58412594  0.31082801  1
  O2-  O523  1  0.91228734  0.58950676  0.64979681  1
  O2-  O524  1  0.93303260  0.59353113  1.00332415  1
  O2-  O525  1  0.91047003  0.83259293  0.30458635  1
  O2-  O526  1  0.88219014  0.83435567  0.64658975  1
  O2-  O527  1  0.93703642  0.83211621  0.98920672  1
  O2-  O528  1  0.08088637  0.17156724  0.01917629  1
  O2-  O529  1  0.08178284  0.19001680  0.35666902  1
  O2-  O530  1  0.08518380  0.16610793  0.68754525  1
  O2-  O531  1  0.06716955  0.40820012  0.01947127  1
  O2-  O532  1  0.08616599  0.41354884  0.35385745  1
  O2-  O533  1  0.08938534  0.41518471  0.68624981  1
  O2-  O534  1  0.07965900  0.65505877  0.01143486  1
  O2-  O535  1  0.07672835  0.65461810  0.34484007  1
  O2-  O536  1  0.08316736  0.66186544  0.69096231  1
  O2-  O537  1  0.11212231  0.93779163  0.02678512  1
  O2-  O538  1  0.06977207  0.91483327  0.34855156  1
  O2-  O539  1  0.08383783  0.90579457  0.69115058  1
  O2-  O540  1  0.34344206  0.16564283  -0.00222715  1
  O2-  O541  1  0.31583383  0.14918630  0.31718248  1
  O2-  O542  1  0.34105225  0.16366153  0.69172038  1
  O2-  O543  1  0.33101740  0.43999060  0.02157250  1
  O2-  O544  1  0.32009272  0.41120686  0.35843551  1
  O2-  O545  1  0.33188637  0.40663295  0.69617596  1
  O2-  O546  1  0.33205911  0.67531101  0.02000923  1
  O2-  O547  1  0.32195561  0.66350023  0.35047554  1
  O2-  O548  1  0.33095067  0.66443464  0.68454247  1
  O2-  O549  1  0.31853254  0.90845557  0.02823665  1
  O2-  O550  1  0.33243862  0.92903739  0.35669357  1
  O2-  O551  1  0.34187469  0.91983790  0.70152867  1
  O2-  O552  1  0.57693030  0.14387651  0.02352573  1
  O2-  O553  1  0.57871902  0.15719604  0.34569280  1
  O2-  O554  1  0.58605257  0.18478069  0.68753335  1
  O2-  O555  1  0.59354052  0.40233743  0.02050646  1
  O2-  O556  1  0.57494266  0.42060944  0.35724106  1
  O2-  O557  1  0.57956574  0.41030812  0.63501135  1
  O2-  O558  1  0.64984162  0.66143585  0.05090736  1
  O2-  O559  1  0.57140603  0.66140564  0.35037779  1
  O2-  O560  1  0.58796483  0.67219176  0.69098855  1
  O2-  O561  1  0.57261728  0.92089189  0.01736012  1
  O2-  O562  1  0.57859363  0.90599611  0.35608152  1
  O2-  O563  1  0.58104111  0.91880333  0.68714763  1
  O2-  O564  1  0.83205636  0.15912789  0.00361704  1
  O2-  O565  1  0.83289747  0.17073357  0.35687309  1
  O2-  O566  1  0.82643491  0.16562782  0.69685093  1
  O2-  O567  1  0.80846313  0.39096577  0.01291931  1
  O2-  O568  1  0.83637278  0.42214109  0.35403784  1
  O2-  O569  1  0.81358932  0.42704822  0.69040001  1
  O2-  O570  1  0.85201811  0.66749526  0.02911082  1
  O2-  O571  1  0.82919948  0.66903817  0.35340773  1
  O2-  O572  1  0.82932979  0.66752735  0.70034357  1
  O2-  O573  1  0.84486890  0.92285268  0.01225963  1
  O2-  O574  1  0.84118523  0.93062549  0.34753107  1
  O2-  O575  1  0.77139731  0.88714719  0.66558383  1
