# generated using pymatgen
data_H2O
_symmetry_space_group_name_H-M   'P 1'
_cell_length_a   17.99117228
_cell_length_b   17.98821334
_cell_length_c   22.01015888
_cell_angle_alpha   89.99790437
_cell_angle_beta   90.00282218
_cell_angle_gamma   120.00267107
_symmetry_Int_Tables_number   1
_chemical_formula_structural   H2O
_chemical_formula_sum   'H384 O192'
_cell_volume   6168.64262977
_cell_formula_units_Z   192
loop_
 _symmetry_equiv_pos_site_id
 _symmetry_equiv_pos_as_xyz
  1  'x, y, z'
loop_
 _atom_type_symbol
 _atom_type_oxidation_number
  H+  1.0
  O2-  -2.0
loop_
 _atom_site_type_symbol
 _atom_site_label
 _atom_site_symmetry_multiplicity
 _atom_site_fract_x
 _atom_site_fract_y
 _atom_site_fract_z
 _atom_site_occupancy
  H+  H0  1  0.85982033  0.47535284  0.67339410  1
  H+  H1  1  0.15521583  0.53749163  0.35486703  1
  H+  H2  1  0.61137144  0.46893758  0.82459064  1
  H+  H3  1  0.38317128  0.89556474  0.15528692  1
  H+  H4  1  0.63806853  0.02756097  0.83444720  1
  H+  H5  1  0.37289840  0.24196300  0.66683991  1
  H+  H6  1  0.86733454  0.32637640  0.33178540  1
  H+  H7  1  0.15334602  0.41364133  0.20699313  1
  H+  H8  1  0.31310388  0.16222875  0.43837292  1
  H+  H9  1  0.38825094  0.02375605  0.17490076  1
  H+  H10  1  0.77216346  0.63558609  0.66554448  1
  H+  H11  1  0.10516728  0.97165534  0.16845914  1
  H+  H12  1  0.62547368  0.44315883  0.33263848  1
  H+  H13  1  0.51520240  0.36098550  1.01984780  1
  H+  H14  1  0.08795529  0.15558244  0.22356670  1
  H+  H15  1  0.11222216  0.12811423  0.99894124  1
  H+  H16  1  0.88969711  0.12026132  0.65341814  1
  H+  H17  1  0.77182089  0.38763096  0.82133287  1
  H+  H18  1  0.29783554  0.16579138  0.16482855  1
  H+  H19  1  0.23255991  0.35687287  0.62618421  1
  H+  H20  1  0.85810034  0.22746023  0.66433134  1
  H+  H21  1  0.56880312  0.95042509  0.15726180  1
  H+  H22  1  0.48084610  0.35666740  0.83270506  1
  H+  H23  1  0.58454065  0.41691470  0.76178080  1
  H+  H24  1  0.30747253  0.65747542  0.15025542  1
  H+  H25  1  0.37685296  0.72396445  0.00231527  1
  H+  H26  1  0.93752684  0.59671495  0.99909295  1
  H+  H27  1  0.86486860  -0.01487813  0.67261066  1
  H+  H28  1  0.62988238  0.62019089  0.16494707  1
  H+  H29  1  0.86616271  0.90476040  0.49805269  1
  H+  H30  1  0.13644655  0.02928455  0.65435397  1
  H+  H31  1  0.35976190  0.35240961  0.97663256  1
  H+  H32  1  0.62611799  0.02143315  0.49737811  1
  H+  H33  1  0.36227523  0.23213335  0.34775947  1
  H+  H34  1  0.35386718  0.63316801  0.49779485  1
  H+  H35  1  0.42754435  0.79052962  0.15641303  1
  H+  H36  1  0.10559776  0.97268246  0.82447052  1
  H+  H37  1  0.23769005  0.12529011  0.33070557  1
  H+  H38  1  0.86689669  0.51133319  0.16789443  1
  H+  H39  1  0.66761056  0.54241964  0.99243959  1
  H+  H40  1  0.11389753  0.22842885  0.66211265  1
  H+  H41  1  1.01720759  0.14965619  0.84858229  1
  H+  H42  1  0.86033766  0.22588473  0.81983493  1
  H+  H43  1  0.63966907  0.11949475  0.65064881  1
  H+  H44  1  0.65887332  0.59471774  0.59916834  1
  H+  H45  1  0.60609448  0.84173683  0.17221958  1
  H+  H46  1  0.62235198  0.80675352  0.23568267  1
  H+  H47  1  0.95903106  0.85110058  0.18171169  1
  H+  H48  1  0.11523334  0.47212974  -0.01682797  1
  H+  H49  1  0.77809977  0.40596986  0.47039166  1
  H+  H50  1  0.39865354  0.53179462  0.18027067  1
  H+  H51  1  0.17155231  0.84081378  0.87525209  1
  H+  H52  1  0.22619374  0.86211716  0.17405620  1
  H+  H53  1  0.28715379  0.39415371  0.16123985  1
  H+  H54  1  0.04647779  0.38554816  0.68616451  1
  H+  H55  1  0.13038406  0.74795433  0.47173054  1
  H+  H56  1  0.30098036  0.42019645  0.34487726  1
  H+  H57  1  0.83182980  -0.01709126  0.32025039  1
  H+  H58  1  0.71379006  0.80461902  0.36677613  1
  H+  H59  1  0.76801198  0.14031146  0.81988993  1
  H+  H60  1  0.39328462  0.50587214  0.35048725  1
  H+  H61  1  0.86158669  0.63260267  0.66753661  1
  H+  H62  1  0.88292628  0.76698810  0.67451634  1
  H+  H63  1  0.05379154  0.92562143  0.48890752  1
  H+  H64  1  0.84676301  0.71223496  0.17156587  1
  H+  H65  1  0.39472589  0.03269011  0.50641051  1
  H+  H66  1  0.14806868  0.28450656  0.18019729  1
  H+  H67  1  0.41940111  0.25831250  0.22818329  1
  H+  H68  1  0.97653878  0.61334244  0.66174999  1
  H+  H69  1  0.10055419  0.42342578  0.29857768  1
  H+  H70  1  0.56389032  0.91241440  0.42489550  1
  H+  H71  1  0.11783736  0.21975509  0.49490895  1
  H+  H72  1  0.47538353  0.36434643  0.50827678  1
  H+  H73  1  0.62523174  0.39677861  0.67358554  1
  H+  H74  1  0.36271444  0.73060071  0.67564468  1
  H+  H75  1  0.23781160  0.61476301  0.99912228  1
  H+  H76  1  0.14630262  0.11745451  0.83572640  1
  H+  H77  1  0.86133467  0.50158340  0.83298693  1
  H+  H78  1  0.38917363  0.37293211  0.33231120  1
  H+  H79  1  0.52147475  0.89301177  0.67279766  1
  H+  H80  1  0.96833826  0.62250520  0.50507462  1
  H+  H81  1  0.98798697  0.10945031  0.98427865  1
  H+  H82  1  0.61664374  0.85387962  0.98640595  1
  H+  H83  1  0.62275244  0.51684375  0.17419378  1
  H+  H84  1  0.86344078  0.40104296  0.46759927  1
  H+  H85  1  0.23915939  0.64004243  0.50076080  1
  H+  H86  1  0.60844805  0.00713047  0.32532815  1
  H+  H87  1  0.15011168  0.77819019  0.69156445  1
  H+  H88  1  0.24570610  0.87692555  0.47222913  1
  H+  H89  1  0.61111170  0.01262046  0.98514584  1
  H+  H90  1  0.38787874  0.86602830  0.65214263  1
  H+  H91  1  0.79460608  0.57250287  0.49429997  1
  H+  H92  1  0.62011242  0.34562743  0.17736354  1
  H+  H93  1  0.86770875  0.84655934  0.18955020  1
  H+  H94  1  0.71035408  0.35302014  0.16281745  1
  H+  H95  1  0.11335356  0.88761862  0.81353524  1
  H+  H96  1  0.10470493  0.88327699  0.17182107  1
  H+  H97  1  0.72263692  0.60622167  0.17141754  1
  H+  H98  1  0.24950990  0.37370420  0.84085816  1
  H+  H99  1  0.07294062  0.66701503  -0.04006704  1
  H+  H100  1  0.27348355  0.89093407  0.66699519  1
  H+  H101  1  0.71066881  0.86393306  -0.01562871  1
  H+  H102  1  0.85145467  0.48613245  0.38401293  1
  H+  H103  1  0.15895791  0.88153708  0.46924395  1
  H+  H104  1  0.48546514  0.60434791  -0.01545780  1
  H+  H105  1  0.79319843  0.05921015  0.36069483  1
  H+  H106  1  0.92703163  0.33255140  0.16485218  1
  H+  H107  1  0.76215288  0.38589973  0.68075196  1
  H+  H108  1  0.62461970  0.24133183  0.66884461  1
  H+  H109  1  0.61543661  0.14376886  -0.00453796  1
  H+  H110  1  0.63101179  0.86633017  0.66818806  1
  H+  H111  1  0.38746611  0.36292749  0.66286602  1
  H+  H112  1  0.19127327  0.33412241  0.24072286  1
  H+  H113  1  0.63258978  0.86663404  0.83219488  1
  H+  H114  1  0.99521274  0.16731146  0.31977673  1
  H+  H115  1  0.74539461  0.10275747  0.33173691  1
  H+  H116  1  0.66319496  0.33508630  0.72098138  1
  H+  H117  1  0.40124222  1.03663961  0.33325164  1
  H+  H118  1  0.83600269  0.11621236  0.16590570  1
  H+  H119  1  0.50918812  0.64165873  0.81917140  1
  H+  H120  1  0.63382453  0.05716339  0.23381730  1
  H+  H121  1  0.62317018  0.14600689  0.81745054  1
  H+  H122  1  0.64557073  0.27383672  0.82566106  1
  H+  H123  1  0.10413528  0.72197262  1.01972344  1
  H+  H124  1  0.62400257  0.10573763  0.32449754  1
  H+  H125  1  0.39277759  0.11843877  -0.00116954  1
  H+  H126  1  0.61253302  0.22682357  0.16944382  1
  H+  H127  1  0.14955935  1.00418228  0.47608445  1
  H+  H128  1  0.88816412  0.52891466  0.50048030  1
  H+  H129  1  0.26769668  0.38687200  0.00283669  1
  H+  H130  1  0.64590896  0.63888946  0.32968430  1
  H+  H131  1  0.60479572  0.38490380  0.48597894  1
  H+  H132  1  0.13529429  0.77637208  0.17336799  1
  H+  H133  1  0.14704145  0.02015510  1.00254268  1
  H+  H134  1  0.60893540  0.72557937  0.00793634  1
  H+  H135  1  0.14586801  0.52487947  0.84673294  1
  H+  H136  1  0.37362720  0.14352572  0.66374384  1
  H+  H137  1  0.17225063  0.55612547  0.19021891  1
  H+  H138  1  0.17578377  0.07826589  0.94263669  1
  H+  H139  1  0.69288906  0.42015403  -0.00152930  1
  H+  H140  1  -0.03459168  0.33884298  -0.01720311  1
  H+  H141  1  0.39709312  1.03140623  -0.00227059  1
  H+  H142  1  0.85930631  0.65865967  1.00732913  1
  H+  H143  1  0.38308002  0.48641811  0.82866856  1
  H+  H144  1  0.21856004  0.35640360  0.49670035  1
  H+  H145  1  0.40980840  0.91023128  0.34486141  1
  H+  H146  1  0.52756009  0.89037390  0.82750540  1
  H+  H147  1  0.53357457  0.15197159  0.66268441  1
  H+  H148  1  0.01813028  0.07396334  0.36497065  1
  H+  H149  1  0.38997043  0.61780792  0.83729619  1
  H+  H150  1  0.91303547  0.42173340  0.30756656  1
  H+  H151  1  0.14673274  0.53233910  0.65186897  1
  H+  H152  1  0.32045943  0.91731912  0.60309574  1
  H+  H153  1  0.28185775  0.40224761  0.69731929  1
  H+  H154  1  0.82794340  0.65825508  0.76042348  1
  H+  H155  1  0.22793187  0.86116373  0.81683355  1
  H+  H156  1  0.44149398  0.80649955  0.34035968  1
  H+  H157  1  0.14150374  0.34689852  0.33431406  1
  H+  H158  1  0.03127308  0.89143663  0.01156705  1
  H+  H159  1  0.76000703  0.14306784  0.48579526  1
  H+  H160  1  0.50482162  0.39287968  0.03417808  1
  H+  H161  1  0.36023799  0.97067788  0.83084239  1
  H+  H162  1  0.18248795  1.08348488  0.10659469  1
  H+  H163  1  0.00545347  0.10541755  0.83774924  1
  H+  H164  1  0.45333166  0.84627330  0.94110488  1
  H+  H165  1  0.85025900  0.09895937  0.84783657  1
  H+  H166  1  0.81236974  0.82974606  0.35731486  1
  H+  H167  1  0.38420177  0.03643330  0.65049651  1
  H+  H168  1  0.76760579  0.36474369  0.99051269  1
  H+  H169  1  0.83482738  0.37630040  0.15285849  1
  H+  H170  1  0.60271674  0.88457199  0.48112598  1
  H+  H171  1  -0.02006085  0.12040391  0.65762253  1
  H+  H172  1  0.83065195  0.53892168  1.00123106  1
  H+  H173  1  0.76528676  0.87718395  0.82537828  1
  H+  H174  1  0.27718768  0.15304406  0.80764723  1
  H+  H175  1  0.63951444  0.27105848  0.98109426  1
  H+  H176  1  0.10952813  0.21614369  0.99468319  1
  H+  H177  1  0.87704423  0.99631614  0.32971242  1
  H+  H178  1  0.39110611  0.53252563  0.66451237  1
  H+  H179  1  0.15388617  0.36007652  0.83973802  1
  H+  H180  1  -0.04376914  0.59917301  0.17599893  1
  H+  H181  1  0.89626425  0.75958448  0.33634141  1
  H+  H182  1  0.13369149  0.35157521  0.98052052  1
  H+  H183  1  0.64517334  0.28146845  0.49764351  1
  H+  H184  1  0.11882683  0.87455919  0.33382602  1
  H+  H185  1  0.03437023  0.88819355  0.66986776  1
  H+  H186  1  0.39547837  0.86364965  0.84926403  1
  H+  H187  1  0.77272423  0.63933250  0.34034224  1
  H+  H188  1  0.87797942  0.02234314  0.19637340  1
  H+  H189  1  0.61112917  0.47286998  0.47740470  1
  H+  H190  1  0.02177084  0.61957504  0.33462350  1
  H+  H191  1  0.61442115  0.63908842  0.00800785  1
  H+  H192  1  0.61563081  0.72350072  0.16258961  1
  H+  H193  1  0.19631652  1.14125786  0.50260268  1
  H+  H194  1  0.15525398  0.03592931  0.31514337  1
  H+  H195  1  0.86540654  0.36337705  0.65370947  1
  H+  H196  1  0.36747231  0.14496417  0.34856052  1
  H+  H197  1  0.08013537  0.41197276  -0.07299997  1
  H+  H198  1  0.69254948  0.08212768  0.17424541  1
  H+  H199  1  0.60494397  0.12253895  0.17142707  1
  H+  H200  1  0.28426402  0.14039113  0.01569429  1
  H+  H201  1  0.61267608  0.64640379  0.67242763  1
  H+  H202  1  0.02738586  0.38382707  0.82913980  1
  H+  H203  1  0.52850507  0.15049259  0.48960836  1
  H+  H204  1  0.22470220  0.84406204  1.04082023  1
  H+  H205  1  0.36211742  0.64145610  0.67636156  1
  H+  H206  1  0.53127523  0.15021280  -0.00193175  1
  H+  H207  1  0.61054223  -0.01685358  0.67085480  1
  H+  H208  1  0.90451222  0.16158412  0.31496071  1
  H+  H209  1  0.89434117  0.02621663  0.50324029  1
  H+  H210  1  0.35887964  0.38491470  0.49931275  1
  H+  H211  1  0.87507298  0.33409052  0.98965522  1
  H+  H212  1  0.38155917  0.39349802  0.82710165  1
  H+  H213  1  0.53398495  0.39438472  0.66650446  1
  H+  H214  1  0.95112428  0.37213457  0.62684488  1
  H+  H215  1  0.39544341  0.66164485  0.34689092  1
  H+  H216  1  0.27980919  0.64171067  0.83222402  1
  H+  H217  1  0.17335775  0.60972551  0.56234703  1
  H+  H218  1  0.86288176  0.44558324  -0.00962941  1
  H+  H219  1  0.72009740  0.86722779  0.66877139  1
  H+  H220  1  0.50915546  0.37130090  0.17355946  1
  H+  H221  1  0.95705100  0.89168303  0.57424141  1
  H+  H222  1  0.13412831  0.39308112  0.66944152  1
  H+  H223  1  0.71731564  0.60191666  0.83455463  1
  H+  H224  1  0.17563070  0.24414968  0.81337755  1
  H+  H225  1  0.37221891  0.10017356  0.83876643  1
  H+  H226  1  0.84598798  0.62195443  0.16772088  1
  H+  H227  1  0.38406919  0.88629844  0.00319420  1
  H+  H228  1  0.11290500  0.63858373  0.67405452  1
  H+  H229  1  0.12397070  0.35050095  0.49466091  1
  H+  H230  1  0.38948884  0.77452919  0.50820052  1
  H+  H231  1  0.89023734  0.01686974  0.99098452  1
  H+  H232  1  0.11355209  0.71970497  0.82047787  1
  H+  H233  1  0.83161327  0.68470429  0.06847345  1
  H+  H234  1  0.92302199  0.83942828  0.72287458  1
  H+  H235  1  0.37105998  0.52138183  0.50911631  1
  H+  H236  1  0.23225053  0.62238927  0.65681932  1
  H+  H237  1  0.63785852  0.53135302  0.65541024  1
  H+  H238  1  0.14237295  0.64800234  0.49823683  1
  H+  H239  1  0.30888968  0.66585009  0.34252363  1
  H+  H240  1  0.01643200  0.86952540  0.33615763  1
  H+  H241  1  0.48906577  0.61609998  0.17837791  1
  H+  H242  1  0.88316372  0.85925223  0.83289270  1
  H+  H243  1  0.14263619  0.85431555  1.04607052  1
  H+  H244  1  0.38045647  0.89465421  0.49839376  1
  H+  H245  1  0.73029498  0.63922818  0.98834276  1
  H+  H246  1  -0.10905083  0.36656519  0.83742934  1
  H+  H247  1  0.97396524  0.86001865  0.82888263  1
  H+  H248  1  0.86793117  0.27599059  0.48527574  1
  H+  H249  1  0.83907539  0.19513485  0.00833075  1
  H+  H250  1  0.58484801  0.83750451  0.32706896  1
  H+  H251  1  0.07181361  0.42383440  0.20340174  1
  H+  H252  1  0.11744985  0.63406361  0.82925427  1
  H+  H253  1  0.74617393  0.87204568  0.18771752  1
  H+  H254  1  0.38991690  0.64758632  0.16126053  1
  H+  H255  1  0.34057140  0.42307941  0.43932796  1
  H+  H256  1  0.60473890  0.73853107  0.81818224  1
  H+  H257  1  0.10349823  0.63578102  0.15697880  1
  H+  H258  1  0.53195746  0.15468742  0.33716974  1
  H+  H259  1  0.22146662  0.11908257  0.65246910  1
  H+  H260  1  0.01692725  0.38259848  0.33618879  1
  H+  H261  1  0.07269942  0.05127519  0.87791694  1
  H+  H262  1  0.81982807  0.74121149  0.47252924  1
  H+  H263  1  0.86438205  0.88561405  -0.01540599  1
  H+  H264  1  0.86281652  0.60414633  0.83394976  1
  H+  H265  1  0.63311219  0.77392664  0.49095932  1
  H+  H266  1  0.36653348  0.26710911  0.98065267  1
  H+  H267  1  0.89539874  0.78982142  0.98793614  1
  H+  H268  1  0.14545827  0.61039620  1.00158933  1
  H+  H269  1  0.61233779  0.14129633  0.48978372  1
  H+  H270  1  0.85912980  0.72011524  0.81962321  1
  H+  H271  1  0.15114746  0.86744074  0.68658102  1
  H+  H272  1  0.51597462  0.13121822  0.17150501  1
  H+  H273  1  0.35328648  0.18792212  0.06954422  1
  H+  H274  1  0.61299243  0.73815428  0.67306884  1
  H+  H275  1  0.99901036  0.11160400  0.50992318  1
  H+  H276  1  0.84788383  0.00729788  0.85030628  1
  H+  H277  1  0.81067138  0.72805150  0.50549231  1
  H+  H278  1  0.39581101  0.77550989  0.84859553  1
  H+  H279  1  0.31828216  0.90089055  -0.03346710  1
  H+  H280  1  0.11750241  0.63878536  0.33851722  1
  H+  H281  1  0.11466720  0.12038856  0.34364008  1
  H+  H282  1  1.02166260  0.13400521  0.17259537  1
  H+  H283  1  0.82151603  0.19672694  0.16719205  1
  H+  H284  1  0.14678156  0.11889688  0.15721509  1
  H+  H285  1  0.15803158  0.33028766  0.58081538  1
  H+  H286  1  0.90765593  0.53625393  0.26773863  1
  H+  H287  1  0.39675824  0.51462293  -0.02148580  1
  H+  H288  1  0.31283422  0.89193474  0.34285257  1
  H+  H289  1  0.08858964  0.15008476  0.44171439  1
  H+  H290  1  0.08472118  0.66773588  0.42820143  1
  H+  H291  1  0.91800984  0.82086816  0.52495666  1
  H+  H292  1  0.91697291  0.81961615  0.27703447  1
  H+  H293  1  0.82948385  0.92013780  0.76946174  1
  H+  H294  1  0.91051040  0.32344911  0.89475967  1
  H+  H295  1  0.07282701  0.91593409  0.07836092  1
  H+  H296  1  0.65829191  0.07915698  0.55817061  1
  H+  H297  1  0.07911322  0.65555362  0.73741034  1
  H+  H298  1  0.85998828  0.89379689  0.67743242  1
  H+  H299  1  0.41777678  0.09036813  0.27279011  1
  H+  H300  1  0.59339253  0.18168623  0.39412682  1
  H+  H301  1  0.81600721  0.90688353  0.43936383  1
  H+  H302  1  0.84554570  0.61459533  0.34997689  1
  H+  H303  1  0.81092024  0.91941248  0.13601986  1
  H+  H304  1  0.35663067  0.91836279  0.77106714  1
  H+  H305  1  0.41478289  0.33378049  0.60026688  1
  H+  H306  1  0.09158572  0.92162405  0.39231897  1
  H+  H307  1  0.33343675  0.42391400  0.05898036  1
  H+  H308  1  0.66082083  0.59504108  0.27343548  1
  H+  H309  1  0.16565851  0.83348729  0.26832611  1
  H+  H310  1  0.83317335  0.16872663  0.72454538  1
  H+  H311  1  0.41747273  0.10084648  0.59471773  1
  H+  H312  1  0.68073481  0.34820053  0.55237211  1
  H+  H313  1  0.71302037  0.86466231  0.50152040  1
  H+  H314  1  0.79998017  0.14079956  0.06883136  1
  H+  H315  1  0.44564378  0.60786172  0.28036844  1
  H+  H316  1  0.06151272  0.66210647  0.10534900  1
  H+  H317  1  0.88715531  0.32904594  0.22999738  1
  H+  H318  1  0.40636195  0.32213275  0.88699739  1
  H+  H319  1  0.83751374  0.42456530  0.76291728  1
  H+  H320  1  0.11176178  0.13848137  0.66382687  1
  H+  H321  1  0.70667116  0.09414302  -0.00662894  1
  H+  H322  1  0.21467078  0.65327023  0.21214359  1
  H+  H323  1  0.66344243  0.08433544  0.89446211  1
  H+  H324  1  0.63435122  0.30378465  0.33178791  1
  H+  H325  1  0.65274789  0.82761629  0.89183449  1
  H+  H326  1  0.16920919  0.27654613  0.33723704  1
  H+  H327  1  0.59126536  0.66627022  0.09899578  1
  H+  H328  1  0.17612755  0.32284623  0.92989688  1
  H+  H329  1  0.35239951  0.66665432  0.06033262  1
  H+  H330  1  0.33642321  0.67366531  0.77154126  1
  H+  H331  1  0.36185885  0.31851448  0.27293817  1
  H+  H332  1  0.92400630  0.11313854  0.23265282  1
  H+  H333  1  0.09904097  0.41902185  0.77715707  1
  H+  H334  1  0.01083595  0.37420008  0.48570343  1
  H+  H335  1  0.88074398  0.56771270  0.89916641  1
  H+  H336  1  0.64059078  0.36245821  0.82874412  1
  H+  H337  1  0.89008622  0.33504301  0.54350817  1
  H+  H338  1  0.48006496  0.86378321  0.50455545  1
  H+  H339  1  0.81757703  0.40623580  0.08921361  1
  H+  H340  1  0.39162046  0.11569617  0.17570685  1
  H+  H341  1  0.35490786  0.42767614  0.74336157  1
  H+  H342  1  0.70633962  0.46542135  0.06261264  1
  H+  H343  1  0.67326155  0.33210321  0.91926325  1
  H+  H344  1  0.91729159  0.58283632  0.60132430  1
  H+  H345  1  0.58215344  0.92204863  0.76480461  1
  H+  H346  1  0.53370148  0.89000793  0.05379883  1
  H+  H347  1  0.17741407  0.88558794  0.94715866  1
  H+  H348  1  0.51105651  0.65631775  0.33505716  1
  H+  H349  1  0.38408104  0.27512718  0.51126936  1
  H+  H350  1  0.17814314  0.56707538  0.28918912  1
  H+  H351  1  0.92613249  0.83855306  0.92370571  1
  H+  H352  1  0.47668393  0.62280852  0.65922178  1
  H+  H353  1  0.92751950  0.08553964  0.57010446  1
  H+  H354  1  0.09162779  0.92849516  0.72710720  1
  H+  H355  1  0.03639802  0.39745637  0.10306220  1
  H+  H356  1  0.37082357  0.23290369  0.81576285  1
  H+  H357  1  0.57489926  0.67600422  0.75314739  1
  H+  H358  1  0.37505892  0.39674313  0.15080861  1
  H+  H359  1  0.77039530  0.60009437  0.43457933  1
  H+  H360  1  0.14088559  0.83948191  0.94692371  1
  H+  H361  1  0.16899812  0.79434940  0.57851433  1
  H+  H362  1  0.20549282  0.78564799  0.57517524  1
  H+  H363  1  0.17683498  0.58647979  0.90505072  1
  H+  H364  1  0.40447984  0.58485511  0.56572116  1
  H+  H365  1  0.66029204  0.57656386  0.89394466  1
  H+  H366  1  0.81479605  0.16260104  0.42573040  1
  H+  H367  1  0.89744325  0.07465898  0.92977573  1
  H+  H368  1  0.07872290  0.40906869  0.43267888  1
  H+  H369  1  0.13733732  0.18414973  0.75507772  1
  H+  H370  1  0.34250682  0.92102131  0.10221642  1
  H+  H371  1  0.43123160  0.58552331  0.89234103  1
  H+  H372  1  0.34124457  0.67708092  0.43685476  1
  H+  H373  1  0.34239390  0.17480454  0.72947253  1
  H+  H374  1  0.36817768  0.93394207  0.43664141  1
  H+  H375  1  0.59785205  0.17584106  0.75602161  1
  H+  H376  1  0.82791321  0.89722889  0.04547774  1
  H+  H377  1  0.40017213  0.07429780  0.90112461  1
  H+  H378  1  0.37923028  0.11328800  0.50494537  1
  H+  H379  1  0.08209675  0.43434505  0.10383764  1
  H+  H380  1  0.13092900  0.77132774  0.32650439  1
  H+  H381  1  0.42195903  0.83107309  0.59994128  1
  H+  H382  1  0.72518395  0.11298264  0.65161815  1
  H+  H383  1  0.55138815  0.40487813  0.11088520  1
  O2-  O384  1  0.08517934  0.16385674  0.17989525  1
  O2-  O385  1  0.09292551  0.15624348  0.48683435  1
  O2-  O386  1  0.17432291  0.19495567  0.79141857  1
  O2-  O387  1  0.12946661  0.45134049  0.22089576  1
  O2-  O388  1  0.07322521  0.39894675  0.47644927  1
  O2-  O389  1  0.09110027  0.41429170  0.82183686  1
  O2-  O390  1  0.06578410  0.66048552  0.14957383  1
  O2-  O391  1  0.09466561  0.68193848  0.47234781  1
  O2-  O392  1  0.08244299  0.65734486  0.81184949  1
  O2-  O393  1  0.06957508  0.90967095  0.15934693  1
  O2-  O394  1  0.10573586  0.94488687  0.46341774  1
  O2-  O395  1  0.07909285  0.91613561  0.80309156  1
  O2-  O396  1  0.36094967  0.19351676  0.15557567  1
  O2-  O397  1  0.31330263  0.16215686  0.48474764  1
  O2-  O398  1  0.33705627  0.17172329  0.79796832  1
  O2-  O399  1  0.34551306  0.42881057  0.14289188  1
  O2-  O400  1  0.32543445  0.41133744  0.48330335  1
  O2-  O401  1  0.35115780  0.42527804  0.81410773  1
  O2-  O402  1  0.36855820  0.68257256  0.13964798  1
  O2-  O403  1  0.32900318  0.67033209  0.48162089  1
  O2-  O404  1  0.34036018  0.67323378  0.81693965  1
  O2-  O405  1  0.34407073  0.91888589  0.14667365  1
  O2-  O406  1  0.35709806  0.93103199  0.48130985  1
  O2-  O407  1  0.33983524  0.91004448  0.81374384  1
  O2-  O408  1  0.57870586  0.16018674  0.15833911  1
  O2-  O409  1  0.58837529  0.17785843  0.47452644  1
  O2-  O410  1  0.60012495  0.18196504  0.80097368  1
  O2-  O411  1  0.56471311  0.41268430  0.15442582  1
  O2-  O412  1  0.56897033  0.41119094  0.47750227  1
  O2-  O413  1  0.58271812  0.40876567  0.80686579  1
  O2-  O414  1  0.59491174  0.66325253  0.14547415  1
  O2-  O415  1  0.62971771  0.65609775  0.48377815  1
  O2-  O416  1  0.57198326  0.67756464  0.80085282  1
  O2-  O417  1  0.54033467  0.89145859  0.13846423  1
  O2-  O418  1  0.57165761  0.91658393  0.47067341  1
  O2-  O419  1  0.58695538  0.92093147  0.81049737  1
  O2-  O420  1  0.79659689  0.13710469  0.15233002  1
  O2-  O421  1  0.81939599  0.17741895  0.46924005  1
  O2-  O422  1  0.82851387  0.16626724  0.80385696  1
  O2-  O423  1  0.81227504  0.41152167  0.13399324  1
  O2-  O424  1  0.83858926  0.43783999  0.45551722  1
  O2-  O425  1  0.83560354  0.42486521  0.80975839  1
  O2-  O426  1  0.81602763  0.65330539  0.15279911  1
  O2-  O427  1  0.74495305  0.56313913  0.47020600  1
  O2-  O428  1  0.82842465  0.65878665  0.80622192  1
  O2-  O429  1  0.80970324  0.90303191  0.17831013  1
  O2-  O430  1  0.83562093  0.93295696  0.48144383  1
  O2-  O431  1  0.82757719  0.91059638  0.81440799  1
  O2-  O432  1  0.18348856  0.09229460  0.15045890  1
  O2-  O433  1  0.22390968  0.10535040  0.50405526  1
  O2-  O434  1  0.13033955  0.06644304  0.86456086  1
  O2-  O435  1  0.18715652  0.34303627  0.19623440  1
  O2-  O436  1  0.15684357  0.32173070  0.51017830  1
  O2-  O437  1  0.18826697  0.33397302  0.85326727  1
  O2-  O438  1  0.19212437  0.61610104  0.17658729  1
  O2-  O439  1  0.17631145  0.61725244  0.51669610  1
  O2-  O440  1  0.17630975  0.58599366  0.85964848  1
  O2-  O441  1  0.16711063  0.83511267  0.19075047  1
  O2-  O442  1  0.18470273  0.84602932  0.45884502  1
  O2-  O443  1  0.16694446  0.83521291  0.83091272  1
  O2-  O444  1  0.41869736  0.08337193  0.19191284  1
  O2-  O445  1  0.41805294  0.09349718  0.52077923  1
  O2-  O446  1  0.38532184  0.05853702  0.85773807  1
  O2-  O447  1  0.40121739  0.27553960  0.19092064  1
  O2-  O448  1  0.41511302  0.33461902  0.52680499  1
  O2-  O449  1  0.41741226  0.32645285  0.84135242  1
  O2-  O450  1  0.43065392  0.59174191  0.19571920  1
  O2-  O451  1  0.39595398  0.58233772  0.52116240  1
  O2-  O452  1  0.42593197  0.59053050  0.84557233  1
  O2-  O453  1  0.45376598  0.85329575  0.16678640  1
  O2-  O454  1  0.42089894  0.83458737  0.52427616  1
  O2-  O455  1  0.42798039  0.83583527  0.86448710  1
  O2-  O456  1  0.63131059  0.05716356  0.18779486  1
  O2-  O457  1  0.65582786  0.08191892  0.51289222  1
  O2-  O458  1  0.66847441  0.08821802  0.84908376  1
  O2-  O459  1  0.65343698  0.31631486  0.18245935  1
  O2-  O460  1  0.67690339  0.34435799  0.50816275  1
  O2-  O461  1  0.67583064  0.33616154  0.84224229  1
  O2-  O462  1  0.65834633  0.58017555  0.18425556  1
  O2-  O463  1  0.60654782  0.59555112  0.52064132  1
  O2-  O464  1  0.65803446  0.56680375  0.84970530  1
  O2-  O465  1  0.63835397  0.81558590  0.19002681  1
  O2-  O466  1  0.65018752  0.83189160  0.50501835  1
  O2-  O467  1  0.65778277  0.83016249  0.84665905  1
  O2-  O468  1  0.91001506  0.08536265  0.19108057  1
  O2-  O469  1  0.93526317  0.08492580  0.52324773  1
  O2-  O470  1  0.85057232  0.05474290  0.87520113  1
  O2-  O471  1  0.87279166  0.31301507  0.18616255  1
  O2-  O472  1  0.90167383  0.33856854  0.49943238  1
  O2-  O473  1  0.92002285  0.33443408  0.84984732  1
  O2-  O474  1  0.89599431  0.56683082  0.19097282  1
  O2-  O475  1  0.91164886  0.58454717  0.52307181  1
  O2-  O476  1  0.88499043  0.56675535  0.85399772  1
  O2-  O477  1  0.89961662  0.81559208  0.19796437  1
  O2-  O478  1  0.95251569  0.88321421  0.53025816  1
  O2-  O479  1  0.91358819  0.82711121  0.84453794  1
  O2-  O480  1  0.17875525  0.09803485  0.31176690  1
  O2-  O481  1  0.16107904  0.08967559  0.64008326  1
  O2-  O482  1  0.17967060  0.08091483  0.98764377  1
  O2-  O483  1  0.18458089  0.33215227  0.31934608  1
  O2-  O484  1  0.17105960  0.33659919  0.62671476  1
  O2-  O485  1  0.16669909  0.32107153  0.97498751  1
  O2-  O486  1  0.18227669  0.59009492  0.33001767  1
  O2-  O487  1  0.17323547  0.59243986  0.63781480  1
  O2-  O488  1  0.17571856  0.58230319  0.98454661  1
  O2-  O489  1  0.16223569  0.83294441  0.31385603  1
  O2-  O490  1  0.18696029  0.84150596  0.69689603  1
  O2-  O491  1  0.16467628  0.81476351  1.05483690  1
  O2-  O492  1  0.42073758  0.09572067  0.31777440  1
  O2-  O493  1  0.41484529  0.09957380  0.64087462  1
  O2-  O494  1  0.42127550  0.08884871  0.97941635  1
  O2-  O495  1  0.39359842  0.32660468  0.31052785  1
  O2-  O496  1  0.41401041  0.32992621  0.64654926  1
  O2-  O497  1  0.36629536  0.30951636  0.95233825  1
  O2-  O498  1  0.44882005  0.61187427  0.32523393  1
  O2-  O499  1  0.41440091  0.59116004  0.64788984  1
  O2-  O500  1  0.43894458  0.56722009  0.95641645  1
  O2-  O501  1  0.47020857  0.86708006  0.32581406  1
  O2-  O502  1  0.41788845  0.83290138  0.64563199  1
  O2-  O503  1  0.44976437  0.84466445  0.98721390  1
  O2-  O504  1  0.64508975  0.06769955  0.30811936  1
  O2-  O505  1  0.66472876  0.08323928  0.63704043  1
  O2-  O506  1  0.64919719  0.07217368  0.97192275  1
  O2-  O507  1  0.67024439  0.36690036  0.32647167  1
  O2-  O508  1  0.67249971  0.34290135  0.67717697  1
  O2-  O509  1  0.67733071  0.33335242  0.96480242  1
  O2-  O510  1  0.66866275  0.60156278  0.31749810  1
  O2-  O511  1  0.66729607  0.59377802  0.64333652  1
  O2-  O512  1  0.67073942  0.59552386  0.97697195  1
  O2-  O513  1  0.59332616  0.79391866  0.30153130  1
  O2-  O514  1  0.65910804  0.83257115  0.65713625  1
  O2-  O515  1  0.65000389  0.82701952  0.97210948  1
  O2-  O516  1  0.95854595  0.17806383  0.29227104  1
  O2-  O517  1  0.92043357  0.08914526  0.63946783  1
  O2-  O518  1  0.92109057  0.07718231  0.97498378  1
  O2-  O519  1  0.91319142  0.36592826  0.30472330  1
  O2-  O520  1  0.89025906  0.33070128  0.63084802  1
  O2-  O521  1  0.90390021  0.30394719  0.97190446  1
  O2-  O522  1  0.92296511  0.52181199  0.30845170  1
  O2-  O523  1  0.91569473  0.58276676  0.64684974  1
  O2-  O524  1  0.88295561  0.57987127  0.97780561  1
  O2-  O525  1  0.92838675  0.82148335  0.32160930  1
  O2-  O526  1  0.91629264  0.83218843  0.67878863  1
  O2-  O527  1  0.92815915  0.84778355  0.96875175  1
  O2-  O528  1  0.07518918  0.15365608  0.00563649  1
  O2-  O529  1  0.06891532  0.13119414  0.36343610  1
  O2-  O530  1  0.08402698  0.17104466  0.68148126  1
  O2-  O531  1  0.08081137  0.41001532  -0.02864713  1
  O2-  O532  1  0.07952589  0.40468782  0.34067670  1
  O2-  O533  1  0.10802574  0.42261803  0.69226868  1
  O2-  O534  1  0.06684114  0.66111539  0.00410202  1
  O2-  O535  1  0.08006083  0.66297817  0.34860054  1
  O2-  O536  1  0.08056748  0.66461423  0.69177904  1
  O2-  O537  1  0.08648873  0.91864718  0.03417661  1
  O2-  O538  1  0.08445317  0.90795728  0.34691390  1
  O2-  O539  1  0.09508382  0.92520082  0.68171084  1
  O2-  O540  1  0.34665231  0.17516373  0.02562437  1
  O2-  O541  1  0.33394708  0.17190375  0.36393249  1
  O2-  O542  1  0.34289087  0.17689773  0.68203332  1
  O2-  O543  1  0.32985918  0.41980359  0.01422647  1
  O2-  O544  1  0.35882380  0.44375363  0.36233359  1
  O2-  O545  1  0.34350117  0.42355783  0.69733232  1
  O2-  O546  1  0.33873986  0.66502606  0.01652932  1
  O2-  O547  1  0.36616468  0.69408265  0.36109565  1
  O2-  O548  1  0.33027243  0.67036118  0.69161879  1
  O2-  O549  1  0.34271101  0.90825617  0.00726138  1
  O2-  O550  1  0.37046021  0.93258886  0.35771859  1
  O2-  O551  1  0.33340708  0.92668029  0.64644944  1
  O2-  O552  1  0.59325290  0.18214513  0.00846122  1
  O2-  O553  1  0.59365126  0.18269618  0.34874656  1
  O2-  O554  1  0.59391437  0.17583242  0.67502078  1
  O2-  O555  1  0.71789754  0.47825465  0.01946211  1
  O2-  O556  1  0.60667060  0.39110107  0.30815408  1
  O2-  O557  1  0.59289003  0.42981049  0.68211417  1
  O2-  O558  1  0.58471822  0.66780417  0.02717724  1
  O2-  O559  1  0.61153889  0.74014682  0.34195183  1
  O2-  O560  1  0.57993113  0.67434563  0.68688713  1
  O2-  O561  1  0.54017229  0.89294623  0.00833409  1
  O2-  O562  1  0.55938008  0.90603490  0.34947542  1
  O2-  O563  1  0.58100949  0.92454316  0.68967870  1
  O2-  O564  1  0.79968489  0.13701583  0.02403666  1
  O2-  O565  1  0.80274897  0.11581875  0.34935264  1
  O2-  O566  1  0.83487870  0.16752863  0.67898437  1
  O2-  O567  1  0.82706887  0.39133211  0.01146237  1
  O2-  O568  1  0.85213725  0.51725522  0.34555944  1
  O2-  O569  1  0.83114733  0.41605376  0.69048980  1
  O2-  O570  1  0.83507974  0.69343211  0.02384339  1
  O2-  O571  1  0.83149877  0.66046688  0.35747698  1
  O2-  O572  1  0.83133713  0.66309553  0.68360743  1
  O2-  O573  1  0.82894310  0.91015457  0.00243514  1
  O2-  O574  1  0.77496732  0.84393640  0.38054314  1
  O2-  O575  1  0.83252522  0.92675791  0.69109030  1
