# generated using pymatgen
data_H2O
_symmetry_space_group_name_H-M   'P 1'
_cell_length_a   17.98905238
_cell_length_b   17.99312652
_cell_length_c   21.99433771
_cell_angle_alpha   90.01928837
_cell_angle_beta   89.98227888
_cell_angle_gamma   120.00491239
_symmetry_Int_Tables_number   1
_chemical_formula_structural   H2O
_chemical_formula_sum   'H384 O192'
_cell_volume   6165.02597264
_cell_formula_units_Z   192
loop_
 _symmetry_equiv_pos_site_id
 _symmetry_equiv_pos_as_xyz
  1  'x, y, z'
loop_
 _atom_type_symbol
 _atom_type_oxidation_number
  H+  1.0
  O2-  -2.0
loop_
 _atom_site_type_symbol
 _atom_site_label
 _atom_site_symmetry_multiplicity
 _atom_site_fract_x
 _atom_site_fract_y
 _atom_site_fract_z
 _atom_site_occupancy
  H+  H0  1  -0.04061261  0.61924968  0.66610803  1
  H+  H1  1  0.66633885  0.58653090  0.24726904  1
  H+  H2  1  0.09568498  0.37704425  0.49117209  1
  H+  H3  1  0.62220258  0.47576259  1.01755165  1
  H+  H4  1  0.88041384  1.02513929  0.17025729  1
  H+  H5  1  0.22213379  0.86800317  0.84553957  1
  H+  H6  1  0.53033156  0.87354424  0.66079811  1
  H+  H7  1  0.89812196  0.65645184  0.34523367  1
  H+  H8  1  0.33518355  0.68940461  0.06609662  1
  H+  H9  1  0.39920829  0.78045862  0.99189300  1
  H+  H10  1  0.84987125  -0.02253624  0.49009509  1
  H+  H11  1  0.23520191  0.35073297  0.83567609  1
  H+  H12  1  0.60339609  0.71419208  0.34732525  1
  H+  H13  1  0.37564255  0.63048564  0.49427815  1
  H+  H14  1  0.63154525  0.02193166  0.17683397  1
  H+  H15  1  0.62401377  0.97657996  0.01416963  1
  H+  H16  1  0.37969181  0.62636865  0.18985049  1
  H+  H17  1  0.75991073  0.13399730  0.68028179  1
  H+  H18  1  0.85943796  0.14034528  0.16344795  1
  H+  H19  1  0.94947717  0.73521105  0.38839595  1
  H+  H20  1  0.14253295  0.62929842  0.99676609  1
  H+  H21  1  0.61531125  0.22351743  1.00162397  1
  H+  H22  1  0.63387268  0.27261245  0.50194981  1
  H+  H23  1  0.37482650  -0.01212181  0.49020355  1
  H+  H24  1  0.86431293  0.47837123  1.01256286  1
  H+  H25  1  0.37004467  0.37722578  0.82170185  1
  H+  H26  1  0.35837117  0.74662833  0.50681288  1
  H+  H27  1  0.87258298  0.98654868  0.33685260  1
  H+  H28  1  0.09495495  0.73794758  0.67908851  1
  H+  H29  1  0.88699664  0.52740855  0.33225037  1
  H+  H30  1  0.59739922  0.73359024  0.84751773  1
  H+  H31  1  0.62803554  1.00095216  0.83382625  1
  H+  H32  1  0.97960683  0.61548077  0.99673488  1
  H+  H33  1  -0.02416860  0.36644998  0.32615055  1
  H+  H34  1  0.71151857  0.60929447  0.49868927  1
  H+  H35  1  0.64062090  0.86616803  0.16374226  1
  H+  H36  1  0.59955473  0.63430868  0.50130572  1
  H+  H37  1  -0.00673273  0.84004613  0.02016920  1
  H+  H38  1  0.39948681  0.28798408  0.18014026  1
  H+  H39  1  0.12745823  0.10942281  0.66302211  1
  H+  H40  1  0.02423146  0.89531429  0.67167065  1
  H+  H41  1  0.12506321  0.38236746  0.82887910  1
  H+  H42  1  0.39301818  0.78054042  0.31269102  1
  H+  H43  1  0.85374602  0.22066133  0.49298461  1
  H+  H44  1  0.52866132  0.89628079  0.34512556  1
  H+  H45  1  0.89252794  0.78988591  0.65877463  1
  H+  H46  1  0.61409725  0.61379079  0.85076088  1
  H+  H47  1  0.90041401  0.37501737  0.84116089  1
  H+  H48  1  0.13139776  0.64649320  0.15671972  1
  H+  H49  1  0.46085339  0.11516357  0.84606184  1
  H+  H50  1  0.84373628  0.86862140  0.98866752  1
  H+  H51  1  0.84478509  0.72808661  0.49493972  1
  H+  H52  1  0.59616034  0.15286682  0.82330980  1
  H+  H53  1  0.00997436  0.13309502  0.67632049  1
  H+  H54  1  0.67626325  0.34485911  0.24085356  1
  H+  H55  1  0.25112259  0.38297492  1.00271731  1
  H+  H56  1  0.86268560  -0.01850831  0.67606625  1
  H+  H57  1  0.45882214  0.10776305  0.16807087  1
  H+  H58  1  0.11369893  0.22007801  0.83119501  1
  H+  H59  1  0.02579455  0.63746259  0.33810609  1
  H+  H60  1  0.73944023  0.37480982  0.17512408  1
  H+  H61  1  0.14159364  0.61672255  0.33036570  1
  H+  H62  1  1.02079914  0.89947436  0.32661615  1
  H+  H63  1  0.88580827  0.86648188  0.83774715  1
  H+  H64  1  0.65194884  0.51644137  0.84280555  1
  H+  H65  1  0.10003622  0.39209293  1.01966606  1
  H+  H66  1  0.61635043  0.15133326  0.33395507  1
  H+  H67  1  0.96430748  0.35711615  0.50644276  1
  H+  H68  1  0.62720894  0.85694109  0.34052619  1
  H+  H69  1  0.63673855  0.27743538  0.32275819  1
  H+  H70  1  0.37955091  0.88518457  0.10416382  1
  H+  H71  1  0.25002594  0.36481292  0.65729829  1
  H+  H72  1  0.40871862  0.78448164  0.84715265  1
  H+  H73  1  0.47314107  0.36062437  0.65853619  1
  H+  H74  1  0.64654340  0.85543890  0.65761169  1
  H+  H75  1  0.59301151  0.41819965  0.10988252  1
  H+  H76  1  0.39703594  0.73537716  0.67932715  1
  H+  H77  1  0.39445312  0.29380185  0.99115837  1
  H+  H78  1  0.86949037  0.14821041  0.01281878  1
  H+  H79  1  0.87699807  0.52359687  0.18153570  1
  H+  H80  1  0.77348054  0.66511362  0.67898073  1
  H+  H81  1  0.41701843  0.29360345  0.89444575  1
  H+  H82  1  0.88934809  0.61272779  1.00505523  1
  H+  H83  1  0.11431141  0.13929786  0.32848551  1
  H+  H84  1  0.85814371  0.47936949  0.67260276  1
  H+  H85  1  0.61496537  0.71419372  0.01638989  1
  H+  H86  1  -0.03357557  0.86317522  0.17248547  1
  H+  H87  1  0.87925949  0.86743330  0.16635647  1
  H+  H88  1  0.16057761  0.59250042  0.90145988  1
  H+  H89  1  0.15227853  0.92115233  0.02523778  1
  H+  H90  1  0.86071171  0.64585845  0.82641613  1
  H+  H91  1  0.53103405  0.39068179  0.02032480  1
  H+  H92  1  0.86843950  0.88771363  0.33749893  1
  H+  H93  1  0.51218425  0.64035899  0.50245173  1
  H+  H94  1  0.51986199  0.59991274  0.84915290  1
  H+  H95  1  0.09137165  0.18326533  0.06824886  1
  H+  H96  1  0.97452933  0.36712805  0.17627691  1
  H+  H97  1  0.37725285  0.35670531  0.50523045  1
  H+  H98  1  0.23391899  0.12094542  0.50694684  1
  H+  H99  1  0.26930552  0.14036020  0.67106366  1
  H+  H100  1  0.22024379  0.67533328  0.63285519  1
  H+  H101  1  0.72977328  0.13208265  0.32554898  1
  H+  H102  1  0.53282356  0.39095993  0.16986715  1
  H+  H103  1  0.10344024  0.21709033  0.68019850  1
  H+  H104  1  0.38259356  0.93320883  0.75210917  1
  H+  H105  1  0.13078348  0.27285944  0.32490143  1
  H+  H106  1  0.88503665  0.27662771  0.17472470  1
  H+  H107  1  0.59479012  0.12485574  0.15846360  1
  H+  H108  1  0.49172629  0.73838992  0.83703067  1
  H+  H109  1  0.38658875  0.37117138  0.32922890  1
  H+  H110  1  0.32618609  0.64835854  0.71032673  1
  H+  H111  1  0.12787969  0.25423282  1.01255448  1
  H+  H112  1  0.73661105  0.11489174  1.00231343  1
  H+  H113  1  0.11158064  0.25930483  0.50496262  1
  H+  H114  1  0.15426835  1.01108972  0.02509918  1
  H+  H115  1  0.35703497  -0.02373601  0.83736620  1
  H+  H116  1  0.13054441  0.36254339  0.32463901  1
  H+  H117  1  0.91144346  0.04451395  1.00294437  1
  H+  H118  1  0.84925626  0.22345971  0.68223440  1
  H+  H119  1  0.48181267  0.12219466  0.49665401  1
  H+  H120  1  0.22185164  0.86690022  0.66996936  1
  H+  H121  1  0.64180398  0.60810162  1.00730108  1
  H+  H122  1  -0.00478389  0.13811535  -0.00103440  1
  H+  H123  1  0.37724693  0.84450254  0.50557985  1
  H+  H124  1  0.40861035  0.16003968  0.64788546  1
  H+  H125  1  0.35804931  0.48503459  1.02721682  1
  H+  H126  1  0.29170094  0.89456791  0.49264253  1
  H+  H127  1  0.63070588  0.63331866  0.65281873  1
  H+  H128  1  0.09190925  0.65005748  0.67565664  1
  H+  H129  1  0.11216727  0.47757268  0.33912818  1
  H+  H130  1  0.39077832  0.11922897  0.49783251  1
  H+  H131  1  0.65271108  0.08991073  0.86300872  1
  H+  H132  1  0.11207335  0.89314860  0.67018086  1
  H+  H133  1  0.10642020  0.34336729  0.66914251  1
  H+  H134  1  0.62324513  0.51584088  0.49876695  1
  H+  H135  1  0.41614910  0.61618033  0.65717151  1
  H+  H136  1  0.40555261  0.60727716  0.85180943  1
  H+  H137  1  0.54238192  0.63225044  0.65304616  1
  H+  H138  1  0.61501473  0.96445661  0.66656494  1
  H+  H139  1  0.63008615  0.85270264  0.00093305  1
  H+  H140  1  0.40229268  0.81740774  0.59930306  1
  H+  H141  1  0.10323867  0.64858766  0.83554845  1
  H+  H142  1  0.89788516  0.51508670  0.51035527  1
  H+  H143  1  0.17242835  0.58619738  0.66390586  1
  H+  H144  1  0.77887265  0.88799290  0.67456150  1
  H+  H145  1  0.22818974  0.88435960  0.17784163  1
  H+  H146  1  0.61060038  0.46510843  0.66578122  1
  H+  H147  1  0.97539304  0.86499637  0.84083817  1
  H+  H148  1  0.62041238  0.38935867  0.82322232  1
  H+  H149  1  0.13091887  0.78047556  0.84908229  1
  H+  H150  1  0.36243888  0.22780814  0.49114827  1
  H+  H151  1  0.60383399  0.38183700  0.49365701  1
  H+  H152  1  0.76484012  0.63795420  0.17009655  1
  H+  H153  1  0.84749472  0.74749045  0.98924245  1
  H+  H154  1  0.71152658  0.85347891  0.32712362  1
  H+  H155  1  0.36948639  0.61148228  1.00201701  1
  H+  H156  1  0.11593330  0.11201057  0.15939775  1
  H+  H157  1  0.64323599  0.37645266  0.17743199  1
  H+  H158  1  0.35743164  0.99465179  0.03405166  1
  H+  H159  1  0.96487295  0.34745150  0.66235278  1
  H+  H160  1  0.61031106  0.13603165  0.47367867  1
  H+  H161  1  0.41340708  0.87287193  1.00377705  1
  H+  H162  1  0.13755289  0.03149180  0.31447308  1
  H+  H163  1  0.63814529  0.36128593  0.99764125  1
  H+  H164  1  0.13893277  0.60604191  0.49170300  1
  H+  H165  1  0.09520268  1.00312522  0.48250975  1
  H+  H166  1  0.07679485  0.41392730  0.39673375  1
  H+  H167  1  0.86584624  0.13999780  0.33640016  1
  H+  H168  1  0.37569780  0.16213040  0.98582806  1
  H+  H169  1  0.52904305  0.38289791  0.82438397  1
  H+  H170  1  0.10256254  0.46903696  0.48929101  1
  H+  H171  1  0.22742973  0.60918480  0.32949202  1
  H+  H172  1  0.97850387  0.11776811  0.84588266  1
  H+  H173  1  0.19291822  0.08869150  0.14425575  1
  H+  H174  1  0.57676798  0.65878167  0.40703520  1
  H+  H175  1  0.47445942  0.11357661  0.99957287  1
  H+  H176  1  0.37823445  0.50649177  0.84809484  1
  H+  H177  1  0.37306325  0.48527951  0.66593203  1
  H+  H178  1  0.42615377  0.84598520  0.90434328  1
  H+  H179  1  0.38494368  0.25665300  0.83101659  1
  H+  H180  1  0.73237958  0.56335307  0.62967149  1
  H+  H181  1  0.38534662  0.11757791  0.32797230  1
  H+  H182  1  0.10989138  0.38944015  0.16692265  1
  H+  H183  1  0.37515407  0.76339525  0.15798724  1
  H+  H184  1  0.35750076  0.88702526  0.83808810  1
  H+  H185  1  0.13277169  0.27105761  0.17139969  1
  H+  H186  1  0.87650811  0.11510270  0.66353029  1
  H+  H187  1  0.38741521  0.02914828  0.32653883  1
  H+  H188  1  0.85366673  0.72667817  0.16543216  1
  H+  H189  1  0.57387462  0.40880169  0.43303472  1
  H+  H190  1  0.52327092  0.14699833  0.33345805  1
  H+  H191  1  0.59226098  -0.04872211  0.49536877  1
  H+  H192  1  0.87320699  0.61039144  0.18322298  1
  H+  H193  1  0.47369273  0.94299542  0.74670293  1
  H+  H194  1  0.42052055  0.34318747  0.27086821  1
  H+  H195  1  0.37179059  0.39540781  0.67006222  1
  H+  H196  1  0.91432785  0.33562307  0.26757464  1
  H+  H197  1  0.38669202  0.86531985  0.31655095  1
  H+  H198  1  0.23497821  0.61221160  0.17281783  1
  H+  H199  1  0.50566173  0.13288645  0.66736617  1
  H+  H200  1  0.11258433  0.88929827  0.83178190  1
  H+  H201  1  0.77129345  0.62280792  0.01767639  1
  H+  H202  1  0.72831477  0.36707826  0.32694475  1
  H+  H203  1  0.11306367  0.73332812  1.00752702  1
  H+  H204  1  0.40019718  0.37864621  0.18300596  1
  H+  H205  1  0.89335188  0.87870518  0.66042447  1
  H+  H206  1  0.64248225  0.04279730  0.42433586  1
  H+  H207  1  0.97086074  0.11155336  0.17298245  1
  H+  H208  1  0.27815266  0.39250425  0.17820156  1
  H+  H209  1  0.61273501  0.09575979  0.66435887  1
  H+  H210  1  0.26313791  0.13046373  0.82545925  1
  H+  H211  1  0.77386230  0.38974440  0.01018493  1
  H+  H212  1  0.86024238  0.38566235  0.16391386  1
  H+  H213  1  0.23141893  0.86924664  1.00376725  1
  H+  H214  1  0.65264657  0.76897374  0.65255967  1
  H+  H215  1  0.11076084  0.13133466  0.49208045  1
  H+  H216  1  0.35535402  0.23254567  0.67419152  1
  H+  H217  1  0.79596932  0.54409488  0.88371292  1
  H+  H218  1  0.64220076  0.77791042  0.16524374  1
  H+  H219  1  -0.00028220  0.92083685  0.48044908  1
  H+  H220  1  0.86106758  0.38791107  0.33951818  1
  H+  H221  1  0.27505477  0.65714707  0.00661500  1
  H+  H222  1  -0.02412538  0.10778623  0.32203969  1
  H+  H223  1  0.87807575  0.11262839  0.50615094  1
  H+  H224  1  0.86064236  0.23315308  1.00716378  1
  H+  H225  1  0.60009865  0.86852799  0.50188722  1
  H+  H226  1  0.09768207  0.97205320  0.17310646  1
  H+  H227  1  0.63216404  0.27127335  0.65615932  1
  H+  H228  1  0.38449023  0.54064705  0.20070288  1
  H+  H229  1  0.89535772  0.78585114  0.32449172  1
  H+  H230  1  0.03585880  0.06392047  0.45710471  1
  H+  H231  1  0.27450682  0.89142321  0.33852735  1
  H+  H232  1  0.99135420  0.88027515  1.01505414  1
  H+  H233  1  0.11320160  0.72890283  0.33932640  1
  H+  H234  1  0.41135890  0.86587732  0.66473854  1
  H+  H235  1  0.36920713  0.10559866  0.84555638  1
  H+  H236  1  0.11458920  0.43215279  0.66248722  1
  H+  H237  1  0.63059141  0.35817309  0.66019456  1
  H+  H238  1  0.77353015  0.38723525  0.67296398  1
  H+  H239  1  0.91208080  0.58386723  0.27052176  1
  H+  H240  1  0.76326961  0.10062768  0.83010864  1
  H+  H241  1  0.36921003  0.40074232  0.03208956  1
  H+  H242  1  0.60980840  0.38429248  0.33962337  1
  H+  H243  1  0.88364044  0.36264345  0.66382087  1
  H+  H244  1  0.52115789  0.64360922  0.17908528  1
  H+  H245  1  0.60624510  0.63586038  0.17751013  1
  H+  H246  1  0.13093798  0.10761192  0.84249175  1
  H+  H247  1  0.71871661  0.11279396  0.17412046  1
  H+  H248  1  0.66152782  0.33039993  0.56273695  1
  H+  H249  1  0.15035503  0.54469243  0.00076246  1
  H+  H250  1  0.51805871  0.88411670  0.15824032  1
  H+  H251  1  0.82920154  0.94120823  -0.03967317  1
  H+  H252  1  0.36804994  0.15068102  0.16990451  1
  H+  H253  1  0.86714460  0.73898894  0.82467331  1
  H+  H254  1  0.46875569  0.35994755  0.50521825  1
  H+  H255  1  0.26045280  0.37257074  0.48956866  1
  H+  H256  1  0.27281274  0.14321850  0.33353604  1
  H+  H257  1  0.28133510  0.62350637  0.48076778  1
  H+  H258  1  0.96314086  0.10419243  0.50785505  1
  H+  H259  1  0.86648469  0.97701641  0.83265483  1
  H+  H260  1  0.58196744  0.17859469  0.42330443  1
  H+  H261  1  0.82967731  0.41569208  0.10393107  1
  H+  H262  1  0.13146704  0.53264493  0.84344694  1
  H+  H263  1  0.03394666  0.62949152  0.49560854  1
  H+  H264  1  0.50696196  0.89577981  0.81863988  1
  H+  H265  1  0.73604949  0.61221286  0.84183928  1
  H+  H266  1  0.86692917  0.12046553  0.83230169  1
  H+  H267  1  0.67875057  0.83302350  0.56366004  1
  H+  H268  1  0.26579245  0.38936016  0.33714649  1
  H+  H269  1  0.28867881  0.16542383  0.97919554  1
  H+  H270  1  0.12034996  0.89436772  0.52835480  1
  H+  H271  1  0.63915718  0.52876383  0.18590089  1
  H+  H272  1  0.14922597  0.13654916  0.99441972  1
  H+  H273  1  0.29139431  0.16880141  0.18388825  1
  H+  H274  1  0.12583679  0.87863248  0.49794096  1
  H+  H275  1  0.20847170  0.27387815  0.62680747  1
  H+  H276  1  0.87184847  0.61822542  0.66130814  1
  H+  H277  1  0.63653839  0.76838383  0.50664040  1
  H+  H278  1  0.16230142  0.75203906  0.51647040  1
  H+  H279  1  0.87438113  0.86714231  0.50510218  1
  H+  H280  1  0.32256626  0.40743345  0.43274410  1
  H+  H281  1  0.85055597  0.47569116  0.83155904  1
  H+  H282  1  0.85263430  0.37868669  0.49295596  1
  H+  H283  1  0.90670969  0.08670780  0.60291149  1
  H+  H284  1  0.39174908  0.53444180  0.50667757  1
  H+  H285  1  0.63524993  0.28320056  0.83524471  1
  H+  H286  1  0.77075180  0.89076247  0.14684068  1
  H+  H287  1  0.76764119  0.38591071  0.49219175  1
  H+  H288  1  0.13405635  0.87061637  0.17882416  1
  H+  H289  1  0.83920524  0.16940364  0.43013003  1
  H+  H290  1  0.02610608  0.08125143  0.11227954  1
  H+  H291  1  0.83620675  0.42391278  0.76833593  1
  H+  H292  1  0.13182667  0.73549971  0.15760091  1
  H+  H293  1  0.06957087  0.94117369  0.38776357  1
  H+  H294  1  0.92338227  0.57584306  0.56895333  1
  H+  H295  1  0.18473849  0.33050840  0.89839675  1
  H+  H296  1  0.91125220  0.33100119  0.93486709  1
  H+  H297  1  0.91541629  0.84611806  0.56296702  1
  H+  H298  1  0.71268582  0.84565730  -0.01065685  1
  H+  H299  1  0.07995620  0.15887981  0.39036708  1
  H+  H300  1  0.16660843  0.09207659  0.93669069  1
  H+  H301  1  0.61501607  0.13396571  0.00174628  1
  H+  H302  1  0.16876198  0.09205778  0.25560887  1
  H+  H303  1  0.39962512  0.83261904  0.20999176  1
  H+  H304  1  0.15572537  0.31977021  0.56173715  1
  H+  H305  1  0.56865052  0.91301444  0.75757726  1
  H+  H306  1  0.38874758  0.60713391  0.28709216  1
  H+  H307  1  0.90531530  0.32580921  0.56660573  1
  H+  H308  1  0.87104985  0.23238387  0.33772775  1
  H+  H309  1  0.39389969  0.56632479  0.94820289  1
  H+  H310  1  0.34250234  0.41392008  0.76401158  1
  H+  H311  1  0.09340076  0.92611214  0.11245980  1
  H+  H312  1  0.17448735  0.84724997  0.94227336  1
  H+  H313  1  0.13495747  0.02495869  0.66116976  1
  H+  H314  1  0.09039601  0.40154986  0.76862519  1
  H+  H315  1  0.76255180  0.88366749  0.48673853  1
  H+  H316  1  0.40761243  0.08669763  0.23003652  1
  H+  H317  1  0.11482111  0.48181283  0.16995620  1
  H+  H318  1  0.60728018  0.79630686  0.90060368  1
  H+  H319  1  0.55391568  0.15724481  0.76241426  1
  H+  H320  1  0.08406128  0.91869010  0.77055826  1
  H+  H321  1  0.66896440  0.33727760  0.93556646  1
  H+  H322  1  -0.01301983  0.37167051  0.84397874  1
  H+  H323  1  0.73086955  0.36583552  0.83709753  1
  H+  H324  1  0.34012962  0.92229626  0.39436263  1
  H+  H325  1  0.90392691  0.83842960  0.26111051  1
  H+  H326  1  0.34511190  0.48289247  0.34746453  1
  H+  H327  1  0.82748186  0.67155859  0.43667773  1
  H+  H328  1  0.83239067  0.17285672  0.10413447  1
  H+  H329  1  0.42278182  0.58324060  0.58812674  1
  H+  H330  1  0.53427021  0.88848767  0.00792088  1
  H+  H331  1  0.41267374  0.33331506  0.59909641  1
  H+  H332  1  0.17184855  0.58635767  0.23283851  1
  H+  H333  1  0.87524502  0.80192593  0.92584766  1
  H+  H334  1  0.63513525  0.61235366  0.33600207  1
  H+  H335  1  0.40661338  0.07649234  0.94598122  1
  H+  H336  1  0.58395360  0.91823324  0.10380373  1
  H+  H337  1  0.18334959  0.82612098  0.60541500  1
  H+  H338  1  0.44316527  0.13541144  0.58782154  1
  H+  H339  1  0.34706608  0.65456480  0.39650020  1
  H+  H340  1  0.56791040  0.15173672  0.09743673  1
  H+  H341  1  0.87998914  0.35900151  0.99484630  1
  H+  H342  1  0.82932607  0.41507472  0.39934997  1
  H+  H343  1  0.13352301  0.01996255  0.84372819  1
  H+  H344  1  0.65599781  0.08445816  0.60450343  1
  H+  H345  1  0.67293785  0.57576148  0.94749865  1
  H+  H346  1  0.43074234  0.38434115  0.95671988  1
  H+  H347  1  0.83724081  0.92125504  0.77224073  1
  H+  H348  1  0.33051950  0.16948335  0.43035521  1
  H+  H349  1  0.16695679  0.57985360  0.55174901  1
  H+  H350  1  0.09074716  0.67421706  0.06663389  1
  H+  H351  1  0.92207538  0.09471936  0.90772427  1
  H+  H352  1  0.33944831  0.43175905  0.12243918  1
  H+  H353  1  0.66584640  0.09642246  0.26886022  1
  H+  H354  1  0.31910587  0.60963635  0.11726470  1
  H+  H355  1  0.83598974  0.68320418  0.73524085  1
  H+  H356  1  0.58218203  0.41318566  0.72948589  1
  H+  H357  1  0.13481697  0.86899774  0.32975057  1
  H+  H358  1  0.66490352  0.56458394  0.58359368  1
  H+  H359  1  0.09558135  0.43729403  0.07961282  1
  H+  H360  1  0.25722103  0.78710309  0.54171035  1
  H+  H361  1  0.32213915  0.15763140  0.76414070  1
  H+  H362  1  0.07342016  0.15754581  0.77314531  1
  H+  H363  1  0.08796109  0.66710016  0.43241973  1
  H+  H364  1  0.16611380  0.84011915  0.27138541  1
  H+  H365  1  0.56281690  0.89429076  0.41154263  1
  H+  H366  1  0.71714418  0.10042825  0.47045576  1
  H+  H367  1  0.83140239  0.66247874  0.07590517  1
  H+  H368  1  0.58953072  0.65929588  0.07770860  1
  H+  H369  1  0.83707770  0.92703706  0.09084286  1
  H+  H370  1  0.42432273  0.70283299  0.78029073  1
  H+  H371  1  0.19734728  0.41681307  0.96904336  1
  H+  H372  1  0.07156065  0.68114158  0.77960416  1
  H+  H373  1  0.63777525  0.52554160  0.33317180  1
  H+  H374  1  0.17320884  0.09157253  0.56775410  1
  H+  H375  1  0.49164425  0.04951541  0.70454781  1
  H+  H376  1  0.82473115  0.14834794  0.76763480  1
  H+  H377  1  0.83571077  0.92219011  0.40301231  1
  H+  H378  1  0.91110607  0.07458187  0.26419306  1
  H+  H379  1  0.67962517  0.06500285  0.94447445  1
  H+  H380  1  0.88628031  0.57290983  0.91322098  1
  H+  H381  1  0.15739111  0.32538811  0.23289680  1
  H+  H382  1  0.52010977  0.38450750  0.34146015  1
  H+  H383  1  0.36097770  0.23262632  0.33823988  1
  O2-  O384  1  0.06064834  0.13556289  0.13375856  1
  O2-  O385  1  0.06001963  0.12582030  0.46854226  1
  O2-  O386  1  0.07573972  0.15851033  0.81848227  1
  O2-  O387  1  0.07939738  0.42038465  0.15472586  1
  O2-  O388  1  0.06614020  0.40748181  0.47597052  1
  O2-  O389  1  0.09613541  0.41294545  0.81256186  1
  O2-  O390  1  0.10601025  0.67902877  0.13782981  1
  O2-  O391  1  0.09360970  0.66325009  0.47745299  1
  O2-  O392  1  0.07757129  0.68482823  0.82413603  1
  O2-  O393  1  0.07325563  0.91272400  0.15645970  1
  O2-  O394  1  0.04427902  0.96997167  0.45573449  1
  O2-  O395  1  0.08161037  0.91911028  0.81572048  1
  O2-  O396  1  0.34380209  0.19058891  0.15993221  1
  O2-  O397  1  0.33234383  0.16699540  0.47589562  1
  O2-  O398  1  0.32363677  0.15735814  0.80974093  1
  O2-  O399  1  0.33990953  0.42870906  0.16797125  1
  O2-  O400  1  0.32149493  0.40192627  0.47801991  1
  O2-  O401  1  0.33746641  0.40558867  0.80915866  1
  O2-  O402  1  0.32459351  0.65198559  0.14722458  1
  O2-  O403  1  0.34278037  0.65975820  0.47046001  1
  O2-  O404  1  0.42802409  0.70639901  0.82518327  1
  O2-  O405  1  0.39223578  0.91702508  0.06479767  1
  O2-  O406  1  0.34805112  0.92853004  0.47265532  1
  O2-  O407  1  0.32954975  0.91742671  0.81892414  1
  O2-  O408  1  0.56017722  0.14915353  0.14193733  1
  O2-  O409  1  0.58362675  0.17284395  0.46907817  1
  O2-  O410  1  0.56329676  0.17743524  0.80653515  1
  O2-  O411  1  0.59436011  0.41884201  0.15561438  1
  O2-  O412  1  0.57139886  0.40999279  0.47890426  1
  O2-  O413  1  0.58785834  0.41742050  0.80732065  1
  O2-  O414  1  0.57755938  0.66561971  0.15878952  1
  O2-  O415  1  0.57556155  0.67067145  0.48800871  1
  O2-  O416  1  0.57813341  0.63372606  0.83131176  1
  O2-  O417  1  0.58051676  0.91784593  0.14930058  1
  O2-  O418  1  0.55892547  0.88835066  0.49166291  1
  O2-  O419  1  0.55368533  0.94004711  0.79149355  1
  O2-  O420  1  0.83061382  0.17247786  0.14971980  1
  O2-  O421  1  0.82975048  0.16171183  0.47542760  1
  O2-  O422  1  0.82411467  0.13924896  0.81377799  1
  O2-  O423  1  0.82763679  0.41449912  0.14984650  1
  O2-  O424  1  0.82797091  0.41353645  0.47679059  1
  O2-  O425  1  0.83238441  0.41818513  0.81344182  1
  O2-  O426  1  0.82468758  0.66540791  0.15269540  1
  O2-  O427  1  0.81161480  0.66839768  0.47988464  1
  O2-  O428  1  0.83558639  0.67824900  0.80705823  1
  O2-  O429  1  0.83544756  0.92534609  0.13545364  1
  O2-  O430  1  0.82443884  0.91965643  0.47037867  1
  O2-  O431  1  0.83807892  0.91768797  0.81736094  1
  O2-  O432  1  0.15568822  0.08588035  0.17761410  1
  O2-  O433  1  0.17334706  0.09493660  0.52248442  1
  O2-  O434  1  0.16474688  0.08137735  0.85797877  1
  O2-  O435  1  0.16147535  0.32968748  0.18728556  1
  O2-  O436  1  0.14499903  0.31938014  0.51748464  1
  O2-  O437  1  0.17598375  0.32228510  0.85364814  1
  O2-  O438  1  0.17097262  0.58299690  0.18788712  1
  O2-  O439  1  0.16626635  0.57217911  0.50747465  1
  O2-  O440  1  0.15231971  0.59193883  0.85670006  1
  O2-  O441  1  0.17068963  0.84629460  0.19357673  1
  O2-  O442  1  0.20901598  0.79967347  0.54103272  1
  O2-  O443  1  0.16361215  0.84301031  0.86340285  1
  O2-  O444  1  0.40013442  0.08741616  0.18549540  1
  O2-  O445  1  0.42310334  0.09241763  0.51556704  1
  O2-  O446  1  0.40253214  0.07972293  0.86328235  1
  O2-  O447  1  0.43282305  0.34965318  0.19582798  1
  O2-  O448  1  0.40874326  0.32803131  0.52199213  1
  O2-  O449  1  0.42075726  0.31369675  0.85253249  1
  O2-  O450  1  0.41121998  0.60127039  0.21415558  1
  O2-  O451  1  0.41708826  0.59250926  0.52353216  1
  O2-  O452  1  0.41032044  0.55999254  0.87200752  1
  O2-  O453  1  0.40056975  0.82644832  0.16525641  1
  O2-  O454  1  0.35612355  0.79320923  0.53172127  1
  O2-  O455  1  0.41906918  0.84307109  0.85873970  1
  O2-  O456  1  0.65944035  0.08304202  0.19075525  1
  O2-  O457  1  0.65336458  0.06753512  0.46553224  1
  O2-  O458  1  0.67362464  0.04952154  0.86051992  1
  O2-  O459  1  0.67746601  0.34781446  0.19342723  1
  O2-  O460  1  0.66187250  0.33306598  0.51760506  1
  O2-  O461  1  0.67030642  0.34103324  0.85321423  1
  O2-  O462  1  0.66598431  0.58880611  0.20033216  1
  O2-  O463  1  0.65211124  0.57480231  0.51702621  1
  O2-  O464  1  0.68861673  0.56861705  0.86773615  1
  O2-  O465  1  0.67884275  0.84141687  0.16774750  1
  O2-  O466  1  0.67324372  0.83169395  0.51830105  1
  O2-  O467  1  0.59050142  0.78434874  0.85738406  1
  O2-  O468  1  0.91034601  0.08314238  0.19024683  1
  O2-  O469  1  0.90413004  0.07931890  0.52458424  1
  O2-  O470  1  0.91769504  0.09003335  0.86210983  1
  O2-  O471  1  0.91323421  0.33702675  0.19058151  1
  O2-  O472  1  0.90352565  0.32459242  0.52143936  1
  O2-  O473  1  0.92656372  0.34234194  0.85775274  1
  O2-  O474  1  0.90228313  0.58063546  0.20089315  1
  O2-  O475  1  0.94326598  0.56943515  0.52854284  1
  O2-  O476  1  0.85525092  0.56104567  0.87281811  1
  O2-  O477  1  0.90532704  0.83595773  0.18678348  1
  O2-  O478  1  0.91123580  0.84299136  0.51754902  1
  O2-  O479  1  0.91331349  0.83196015  0.85194674  1
  O2-  O480  1  0.16920793  0.09293525  0.30102791  1
  O2-  O481  1  0.16313271  0.08616574  0.64638793  1
  O2-  O482  1  0.17828064  0.10459381  0.98104537  1
  O2-  O483  1  0.16158214  0.33290426  0.30916798  1
  O2-  O484  1  0.19252404  0.31640347  0.63890415  1
  O2-  O485  1  0.19830985  0.36349618  0.97527605  1
  O2-  O486  1  0.16690560  0.58152411  0.31571157  1
  O2-  O487  1  0.16581989  0.62116550  0.63294289  1
  O2-  O488  1  0.17717726  0.60285653  0.98189863  1
  O2-  O489  1  0.16447659  0.83753086  0.31691663  1
  O2-  O490  1  0.16810113  0.83834433  0.64739838  1
  O2-  O491  1  0.17238965  0.84391608  0.98776894  1
  O2-  O492  1  0.41808737  0.09021149  0.31265884  1
  O2-  O493  1  0.46093216  0.16611339  0.62779552  1
  O2-  O494  1  0.41137217  0.08584842  0.99068370  1
  O2-  O495  1  0.41521193  0.33859260  0.31660055  1
  O2-  O496  1  0.41211257  0.33517127  0.64487755  1
  O2-  O497  1  0.42685048  0.35966228  0.99684932  1
  O2-  O498  1  0.37487409  0.59653540  0.33234009  1
  O2-  O499  1  0.43062471  0.57673590  0.63594830  1
  O2-  O500  1  0.38587734  0.56761791  0.99287042  1
  O2-  O501  1  0.41892693  0.83960909  0.29744511  1
  O2-  O502  1  0.42316219  0.82456601  0.64270640  1
  O2-  O503  1  0.43502573  0.84214253  0.97784865  1
  O2-  O504  1  0.66918810  0.10798750  0.31349780  1
  O2-  O505  1  0.65620143  0.08018555  0.64871880  1
  O2-  O506  1  0.67512410  0.07894919  0.98702849  1
  O2-  O507  1  0.66915172  0.33962465  0.30846205  1
  O2-  O508  1  0.66496171  0.33155629  0.64444678  1
  O2-  O509  1  0.66902941  0.33250200  0.98059351  1
  O2-  O510  1  0.66761138  0.58509865  0.31784087  1
  O2-  O511  1  0.67664813  0.56025510  0.62952912  1
  O2-  O512  1  0.66976924  0.57340628  0.99247313  1
  O2-  O513  1  0.64934638  0.82015747  0.32367594  1
  O2-  O514  1  0.68322938  0.83249266  0.64223711  1
  O2-  O515  1  0.65050687  0.81560853  0.98160004  1
  O2-  O516  1  0.91345491  0.07357233  0.31047431  1
  O2-  O517  1  0.91020143  0.08867109  0.64845619  1
  O2-  O518  1  0.93345867  0.10220420  0.98532539  1
  O2-  O519  1  0.91412661  0.33446665  0.31331744  1
  O2-  O520  1  0.90455593  0.32317094  0.64945341  1
  O2-  O521  1  0.90351758  0.32296510  0.97994023  1
  O2-  O522  1  0.92032450  0.58757359  0.31701526  1
  O2-  O523  1  0.89985781  0.58468779  0.64938839  1
  O2-  O524  1  0.91709325  0.58221478  0.98535035  1
  O2-  O525  1  0.90943169  0.84324829  0.30721342  1
  O2-  O526  1  0.92395109  0.84958323  0.64252628  1
  O2-  O527  1  0.84171677  0.79028848  0.96402030  1
  O2-  O528  1  0.09684339  0.19250025  0.02214908  1
  O2-  O529  1  0.07985756  0.16483094  0.34542241  1
  O2-  O530  1  0.06941321  0.15723908  0.69409156  1
  O2-  O531  1  0.10919056  0.44659160  0.03505402  1
  O2-  O532  1  0.08032509  0.41541308  0.35137024  1
  O2-  O533  1  0.07903887  0.37651691  0.68174717  1
  O2-  O534  1  0.08386952  0.67209692  0.02045721  1
  O2-  O535  1  0.08624245  0.66845044  0.35413120  1
  O2-  O536  1  0.06139239  0.67746969  0.69351119  1
  O2-  O537  1  0.14949534  0.96441218  0.05160741  1
  O2-  O538  1  0.07936569  0.92947837  0.34476767  1
  O2-  O539  1  0.08462857  0.92405678  0.68807604  1
  O2-  O540  1  0.35229880  0.19949878  -0.02717771  1
  O2-  O541  1  0.33092304  0.17146099  0.35252983  1
  O2-  O542  1  0.32911457  0.17124474  0.68748040  1
  O2-  O543  1  0.33234817  0.42431907  0.04567078  1
  O2-  O544  1  0.32504367  0.42140423  0.35459161  1
  O2-  O545  1  0.33977369  0.42468139  0.68463641  1
  O2-  O546  1  0.33708990  0.68662140  0.02101473  1
  O2-  O547  1  0.34141743  0.65337075  0.34981811  1
  O2-  O548  1  0.38743283  0.68286455  0.70254521  1
  O2-  O549  1  0.32391914  0.93755052  0.05580132  1
  O2-  O550  1  0.33679721  0.92114936  0.34892062  1
  O2-  O551  1  0.42851627  0.94448146  0.72113350  1
  O2-  O552  1  0.58161019  0.16188495  0.01369886  1
  O2-  O553  1  0.58389490  0.18136374  0.34864205  1
  O2-  O554  1  0.53656484  0.11085739  0.69620414  1
  O2-  O555  1  0.59200754  0.41420626  0.03270728  1
  O2-  O556  1  0.57967346  0.41233794  0.35837107  1
  O2-  O557  1  0.57801627  0.40635887  0.68407943  1
  O2-  O558  1  0.59820859  0.65684270  0.03338986  1
  O2-  O559  1  0.57968777  0.65426634  0.36223704  1
  O2-  O560  1  0.60371660  0.66628200  0.66574450  1
  O2-  O561  1  0.59236155  0.91523168  0.02751184  1
  O2-  O562  1  0.58139597  0.91565654  0.36925299  1
  O2-  O563  1  0.58849922  0.90398447  0.68009252  1
  O2-  O564  1  0.83333683  0.17233731  0.02623726  1
  O2-  O565  1  0.83990060  0.17216053  0.35434112  1
  O2-  O566  1  0.81952621  0.16225491  0.69703543  1
  O2-  O567  1  0.83262719  0.41792753  0.02820761  1
  O2-  O568  1  0.82963368  0.41747579  0.35372091  1
  O2-  O569  1  0.83406800  0.41886653  0.68742721  1
  O2-  O570  1  0.83305912  0.65827201  0.03040298  1
  O2-  O571  1  0.89570062  0.70616493  0.36577777  1
  O2-  O572  1  0.83372468  0.68548412  0.68885946  1
  O2-  O573  1  0.83636882  0.92112415  -0.00014319  1
  O2-  O574  1  0.84210123  0.92381236  0.35533834  1
  O2-  O575  1  0.83904518  0.92198776  0.69152718  1
