# generated using pymatgen
data_H2O
_symmetry_space_group_name_H-M   'P 1'
_cell_length_a   17.99198343
_cell_length_b   17.99176689
_cell_length_c   22.01459171
_cell_angle_alpha   90.00425774
_cell_angle_beta   89.99628197
_cell_angle_gamma   120.00914737
_symmetry_Int_Tables_number   1
_chemical_formula_structural   H2O
_chemical_formula_sum   'H384 O192'
_cell_volume   6170.97923484
_cell_formula_units_Z   192
loop_
 _symmetry_equiv_pos_site_id
 _symmetry_equiv_pos_as_xyz
  1  'x, y, z'
loop_
 _atom_type_symbol
 _atom_type_oxidation_number
  H+  1.0
  O2-  -2.0
loop_
 _atom_site_type_symbol
 _atom_site_label
 _atom_site_symmetry_multiplicity
 _atom_site_fract_x
 _atom_site_fract_y
 _atom_site_fract_z
 _atom_site_occupancy
  H+  H0  1  0.76407590  0.63893001  0.48556623  1
  H+  H1  1  0.89090262  0.48862952  0.47246654  1
  H+  H2  1  0.89795215  0.87768316  0.48025147  1
  H+  H3  1  0.71493350  0.60988924  0.31916243  1
  H+  H4  1  1.04832248  0.63460227  0.42004412  1
  H+  H5  1  0.72030984  0.09948925  0.50768872  1
  H+  H6  1  0.62783694  0.22147440  0.49137833  1
  H+  H7  1  0.84121642  0.62572025  0.14316005  1
  H+  H8  1  0.88968024  0.85550500  0.30623480  1
  H+  H9  1  0.38294155  0.51827617  0.66732719  1
  H+  H10  1  0.11980540  0.96777127  0.33620526  1
  H+  H11  1  0.92921943  0.28038804  0.33379408  1
  H+  H12  1  0.46222358  0.84623574  0.33282137  1
  H+  H13  1  0.67817218  0.59369008  0.90921482  1
  H+  H14  1  0.49095690  0.12680382  0.67507764  1
  H+  H15  1  0.38605811  0.02248147  0.84543040  1
  H+  H16  1  0.61521113  0.63045366  0.82908116  1
  H+  H17  1  0.85984294  0.12704637  0.00102213  1
  H+  H18  1  0.62720678  0.84641778  0.32542008  1
  H+  H19  1  0.11202386  0.72788395  0.83093703  1
  H+  H20  1  0.69929765  0.82736082  0.51585266  1
  H+  H21  1  0.87133249  0.52982120  0.31684738  1
  H+  H22  1  0.46082602  0.60188561  0.32707505  1
  H+  H23  1  0.09786901  0.92984775  0.70591318  1
  H+  H24  1  0.14770347  0.26634107  1.00587973  1
  H+  H25  1  0.40236354  0.33777303  0.60464714  1
  H+  H26  1  0.61045186  0.48574686  0.66919768  1
  H+  H27  1  0.51280052  0.62865081  0.67222723  1
  H+  H28  1  0.88991575  0.27093173  0.49737681  1
  H+  H29  1  0.37264207  0.90723918  0.67781921  1
  H+  H30  1  0.36904466  0.64015948  0.49358076  1
  H+  H31  1  0.84106005  0.58604160  0.67532361  1
  H+  H32  1  0.37551574  0.47902322  0.83523904  1
  H+  H33  1  0.57903887  0.92477227  0.11347944  1
  H+  H34  1  0.20208186  0.59689592  0.33200550  1
  H+  H35  1  0.37475519  0.38771408  0.83508268  1
  H+  H36  1  0.36582696  0.72550317  0.83458656  1
  H+  H37  1  0.61320002  0.22054451  0.82524655  1
  H+  H38  1  0.58903424  0.70076114  0.49566243  1
  H+  H39  1  0.73253973  0.86022358  0.84160852  1
  H+  H40  1  0.60800924  0.39025642  0.81982638  1
  H+  H41  1  0.37185070  0.99409982  0.68488301  1
  H+  H42  1  0.62110789  0.84578536  0.51288208  1
  H+  H43  1  0.62588617  0.50249141  0.17194112  1
  H+  H44  1  0.94090032  0.10520370  0.54333513  1
  H+  H45  1  0.84834123  0.47760069  0.83655014  1
  H+  H46  1  0.60072373  0.88542972  0.02979535  1
  H+  H47  1  0.47077755  0.37059393  0.65979342  1
  H+  H48  1  0.89107423  0.02106093  0.99863355  1
  H+  H49  1  0.14182447  0.49789657  0.00680283  1
  H+  H50  1  0.17629934  0.26674884  0.49807636  1
  H+  H51  1  0.63826684  0.11412932  0.83212415  1
  H+  H52  1  0.85634650  0.72787681  0.32598770  1
  H+  H53  1  0.35851229  0.88586114  0.00704059  1
  H+  H54  1  0.61327234  0.27347713  0.64605543  1
  H+  H55  1  0.67045456  0.21492836  0.69474836  1
  H+  H56  1  0.62428882  0.59810615  0.50206899  1
  H+  H57  1  0.84458818  0.74517187  0.69987369  1
  H+  H58  1  0.38204662  0.15604995  0.50206297  1
  H+  H59  1  0.90784648  1.12125609  0.64234478  1
  H+  H60  1  0.87938967  0.41850846  0.31418517  1
  H+  H61  1  0.22347785  0.87427690  0.99561323  1
  H+  H62  1  0.79861170  0.26807895  0.18223392  1
  H+  H63  1  0.27851222  0.13799959  0.01743099  1
  H+  H64  1  0.88670917  0.99968880  0.47148522  1
  H+  H65  1  0.27582295  0.88287669  0.48745882  1
  H+  H66  1  1.03495802  0.48759062  0.28838535  1
  H+  H67  1  0.64820191  0.16297637  0.17079613  1
  H+  H68  1  0.52835640  0.37275964  0.01356609  1
  H+  H69  1  0.86210366  0.88555176  0.83056662  1
  H+  H70  1  0.47509943  0.61509611  0.17212710  1
  H+  H71  1  0.48077601  0.11612772  0.99955082  1
  H+  H72  1  0.38941961  0.76770095  0.49738066  1
  H+  H73  1  0.19182805  0.39763018  0.49928636  1
  H+  H74  1  1.01783795  0.88815709  1.02118627  1
  H+  H75  1  0.90184345  0.48249213  0.71829336  1
  H+  H76  1  0.64121944  0.65834333  0.00688866  1
  H+  H77  1  0.21957586  0.86485819  0.84292357  1
  H+  H78  1  0.40796849  0.53030111  0.00088037  1
  H+  H79  1  0.35390570  0.37150022  0.51189178  1
  H+  H80  1  0.47613669  0.10926448  0.84148437  1
  H+  H81  1  0.13294350  0.99070247  0.48726831  1
  H+  H82  1  0.85471391  0.72770277  0.48150312  1
  H+  H83  1  0.63253035  0.51568449  0.32437245  1
  H+  H84  1  0.83510732  0.38214628  0.83420046  1
  H+  H85  1  0.53567376  0.36359454  0.16953271  1
  H+  H86  1  0.11373688  0.13413510  0.01549719  1
  H+  H87  1  0.34398137  0.62169452  0.33629603  1
  H+  H88  1  0.47200534  0.86133273  0.84789726  1
  H+  H89  1  0.13972045  0.77369644  0.32597807  1
  H+  H90  1  0.77442283  0.89207059  0.01956690  1
  H+  H91  1  0.63968552  0.51755562  0.50240127  1
  H+  H92  1  0.36439537  0.13782512  0.83064472  1
  H+  H93  1  0.86646928  0.25803052  -0.01297761  1
  H+  H94  1  0.86449246  0.60344558  0.98438099  1
  H+  H95  1  0.87480417  0.20867231  0.14706924  1
  H+  H96  1  0.48757612  0.12354857  0.51611325  1
  H+  H97  1  0.63348714  0.77090043  0.16822291  1
  H+  H98  1  0.17760205  0.38000319  0.17151542  1
  H+  H99  1  0.73108388  0.09713760  0.34065449  1
  H+  H100  1  0.88981425  0.62000812  0.84061965  1
  H+  H101  1  0.40881397  0.57633631  0.60519574  1
  H+  H102  1  0.54792388  0.36667497  0.48325927  1
  H+  H103  1  0.60350941  0.39378806  0.66769863  1
  H+  H104  1  0.39109587  0.61212532  0.84556915  1
  H+  H105  1  0.36334228  0.87986714  0.33966540  1
  H+  H106  1  0.61240054  0.96318787  0.49449970  1
  H+  H107  1  0.13409283  1.02388631  0.18102518  1
  H+  H108  1  0.86065809  0.88495302  1.01945984  1
  H+  H109  1  0.13401025  0.61767034  0.17504897  1
  H+  H110  1  0.07033887  0.41056002  0.34127548  1
  H+  H111  1  0.33987655  0.66602966  0.77464111  1
  H+  H112  1  0.14553199  0.40893221  0.00470082  1
  H+  H113  1  0.63864149  0.77859566  1.00581349  1
  H+  H114  1  0.51236970  0.13216236  0.34486917  1
  H+  H115  1  0.22635628  0.34228746  0.33174386  1
  H+  H116  1  0.11826927  0.73321991  0.49877085  1
  H+  H117  1  0.60728110  0.21321587  0.33963053  1
  H+  H118  1  0.95652429  0.34839313  0.65517608  1
  H+  H119  1  0.91638925  0.36962041  0.49267395  1
  H+  H120  1  0.61608176  0.37324427  1.00878663  1
  H+  H121  1  0.85936238  0.12815254  0.82918971  1
  H+  H122  1  0.47951934  0.61048721  0.84115352  1
  H+  H123  1  0.45864262  0.59320033  0.50991627  1
  H+  H124  1  0.09795405  0.47101851  0.67041272  1
  H+  H125  1  0.13179676  0.13616599  0.67584075  1
  H+  H126  1  0.36292104  0.64700803  0.17204853  1
  H+  H127  1  0.79717325  0.39027251  0.16437297  1
  H+  H128  1  0.11459890  0.89302191  0.16943945  1
  H+  H129  1  0.35390239  0.46430595  0.34618490  1
  H+  H130  1  0.32006206  0.40913634  0.40752656  1
  H+  H131  1  0.10941710  0.72689893  0.16534334  1
  H+  H132  1  0.39742285  0.27418879  0.18541410  1
  H+  H133  1  0.38486855  0.77763228  0.18485752  1
  H+  H134  1  0.39260587  0.27466116  0.84304032  1
  H+  H135  1  0.74815425  0.36198007  0.50603756  1
  H+  H136  1  0.60779185  0.09097798  0.32722242  1
  H+  H137  1  0.23272985  0.12230863  0.85063497  1
  H+  H138  1  0.99067026  0.60629971  0.35780889  1
  H+  H139  1  0.61418335  0.88546901  0.83618227  1
  H+  H140  1  0.61251588  0.71701040  0.82009996  1
  H+  H141  1  0.49282187  0.88650562  0.65755788  1
  H+  H142  1  0.74473657  0.36284626  -0.00676944  1
  H+  H143  1  0.78264298  0.64104166  0.04708460  1
  H+  H144  1  0.36515169  0.64429281  0.00076422  1
  H+  H145  1  0.08164434  0.33282973  0.64904407  1
  H+  H146  1  0.36261865  0.51284227  0.51408924  1
  H+  H147  1  0.96762033  0.87321967  0.85624160  1
  H+  H148  1  0.97498646  0.85215504  0.31757065  1
  H+  H149  1  0.15337522  0.87689577  0.50112191  1
  H+  H150  1  0.88612862  0.34186565  0.15723838  1
  H+  H151  1  0.11708011  0.26865971  0.65663896  1
  H+  H152  1  0.73409458  0.11012675  0.82926768  1
  H+  H153  1  0.86959450  0.53501481  0.17139606  1
  H+  H154  1  0.27629209  0.65130925  0.17384169  1
  H+  H155  1  0.75749110  0.88445889  0.16349648  1
  H+  H156  1  0.10130648  0.89659392  0.84768947  1
  H+  H157  1  0.15694692  0.03502784  0.64222629  1
  H+  H158  1  0.11781844  0.35489150  0.34689687  1
  H+  H159  1  0.39357803  1.02483495  0.17528462  1
  H+  H160  1  0.43046635  0.33450454  0.27941541  1
  H+  H161  1  0.15204895  0.27970337  0.17392289  1
  H+  H162  1  -0.01258339  0.88029738  0.64548325  1
  H+  H163  1  0.06900768  0.18841963  0.39655043  1
  H+  H164  1  0.28578387  0.14335826  0.67158455  1
  H+  H165  1  0.22602184  0.86632955  0.17169083  1
  H+  H166  1  0.47311147  0.87031093  0.18606982  1
  H+  H167  1  0.63621852  1.01666839  0.83451160  1
  H+  H168  1  0.08999299  0.16454244  0.77516495  1
  H+  H169  1  1.03213005  0.67024321  0.57380638  1
  H+  H170  1  0.77624340  0.64208274  0.84534576  1
  H+  H171  1  0.16177336  0.83793308  0.90227413  1
  H+  H172  1  0.52105388  0.87654412  0.49144950  1
  H+  H173  1  0.82293318  0.18206923  0.34081834  1
  H+  H174  1  0.11231869  0.13616950  0.16649476  1
  H+  H175  1  0.74834159  0.33864281  0.68196428  1
  H+  H176  1  0.11494497  0.22978901  0.83084355  1
  H+  H177  1  0.76587616  0.87071048  0.32361910  1
  H+  H178  1  0.37002758  0.10585101  0.33086938  1
  H+  H179  1  0.04106162  0.90217358  0.48615985  1
  H+  H180  1  0.36148039  0.71315204  0.67579262  1
  H+  H181  1  0.37879844  0.76747111  0.99153056  1
  H+  H182  1  0.63134403  0.09813771  0.50763600  1
  H+  H183  1  0.72701280  0.09184987  0.65717380  1
  H+  H184  1  0.90644487  0.79431348  0.62387387  1
  H+  H185  1  0.36766362  0.13807322  0.01520224  1
  H+  H186  1  0.22585625  0.59971426  0.66394399  1
  H+  H187  1  0.59162368  0.17198990  0.07048180  1
  H+  H188  1  0.59838192  0.62134077  0.33882170  1
  H+  H189  1  0.14788853  0.61687081  0.66655720  1
  H+  H190  1  0.48101203  0.36604645  0.84110841  1
  H+  H191  1  0.60168909  0.71151016  0.33962392  1
  H+  H192  1  0.92103676  0.85591243  0.54416002  1
  H+  H193  1  0.86264656  0.97665327  0.82565220  1
  H+  H194  1  0.85174964  0.21453763  0.82481714  1
  H+  H195  1  0.62224223  0.22335548  0.00838108  1
  H+  H196  1  0.97951902  0.11074389  0.99643561  1
  H+  H197  1  0.60991785  0.63241977  0.15734662  1
  H+  H198  1  0.14196241  0.52659024  0.83497382  1
  H+  H199  1  0.29481769  0.38492199  0.16818603  1
  H+  H200  1  0.25178161  0.37640394  0.83922976  1
  H+  H201  1  0.80130573  0.54259468  0.67285833  1
  H+  H202  1  0.81282595  0.30379920  0.67422256  1
  H+  H203  1  0.24276131  0.88296301  0.65842387  1
  H+  H204  1  0.88006614  0.77950420  0.85086883  1
  H+  H205  1  0.40238567  0.12997742  0.67379636  1
  H+  H206  1  0.40613746  0.57458542  0.26608230  1
  H+  H207  1  -0.02378988  0.61420961  0.83784684  1
  H+  H208  1  0.96510811  0.12417400  0.46899920  1
  H+  H209  1  0.85738266  0.20629521  0.66572416  1
  H+  H210  1  0.61929840  0.96456326  0.67847150  1
  H+  H211  1  0.33489915  0.16927266  0.77188934  1
  H+  H212  1  0.87517108  0.35158279  -0.00857841  1
  H+  H213  1  0.38125637  0.02426560  0.33228703  1
  H+  H214  1  0.12526016  0.89249917  0.65147890  1
  H+  H215  1  0.25118216  0.12091707  0.49935509  1
  H+  H216  1  0.11478120  0.63967592  0.82818228  1
  H+  H217  1  0.39106083  0.52319030  0.17383885  1
  H+  H218  1  0.27436483  0.88320341  0.34109401  1
  H+  H219  1  0.05254356  0.38123320  0.84517502  1
  H+  H220  1  0.86169479  0.48112972  1.00648616  1
  H+  H221  1  0.26933309  0.63902538  -0.00266159  1
  H+  H222  1  0.17172315  0.08876209  0.23742386  1
  H+  H223  1  0.11183089  0.59361953  0.34275161  1
  H+  H224  1  0.10375477  0.68239486  0.73606925  1
  H+  H225  1  0.86734118  0.60559812  0.49163811  1
  H+  H226  1  0.77347422  0.13872936  0.16605186  1
  H+  H227  1  0.36035066  0.88498287  0.83568253  1
  H+  H228  1  0.72475625  0.34941783  0.31376286  1
  H+  H229  1  0.61842305  0.98366694  0.17256840  1
  H+  H230  1  0.89423921  0.29120510  0.33904323  1
  H+  H231  1  0.64081864  0.52833477  0.85009621  1
  H+  H232  1  0.71461853  0.09430996  -0.00513287  1
  H+  H233  1  0.09432593  0.19191394  0.52622412  1
  H+  H234  1  0.36573867  0.62669010  0.67685632  1
  H+  H235  1  0.54297322  0.64447349  0.00496121  1
  H+  H236  1  0.42127992  0.08804904  0.94018461  1
  H+  H237  1  0.10673338  -0.01265249  0.85508862  1
  H+  H238  1  0.43347569  0.10340941  0.57718551  1
  H+  H239  1  0.02362156  0.13578407  0.16373378  1
  H+  H240  1  0.93537153  0.35674611  0.83425538  1
  H+  H241  1  0.10667789  0.63665668  0.50719564  1
  H+  H242  1  0.98042265  0.12810177  0.36208063  1
  H+  H243  1  0.85568898  0.08598342  0.32019995  1
  H+  H244  1  0.62959769  0.75635304  0.66906762  1
  H+  H245  1  0.34315510  0.71007185  0.33724800  1
  H+  H246  1  0.97487579  0.11109641  0.84242657  1
  H+  H247  1  0.39239648  0.27087239  1.00025588  1
  H+  H248  1  0.61573767  0.37926543  0.33392269  1
  H+  H249  1  0.87272707  0.00783264  0.31169289  1
  H+  H250  1  -0.00220120  0.39561235  0.12679267  1
  H+  H251  1  0.35912785  0.39094188  0.67780643  1
  H+  H252  1  0.85619798  0.98082888  0.16600581  1
  H+  H253  1  0.15052879  0.44779556  0.09418829  1
  H+  H254  1  0.60214058  0.97420697  0.02020621  1
  H+  H255  1  0.61907291  0.11895145  0.67405139  1
  H+  H256  1  0.06184008  0.66801563  0.66876000  1
  H+  H257  1  0.38281275  0.39104460  0.01315615  1
  H+  H258  1  0.71238157  0.36498580  0.83738303  1
  H+  H259  1  0.39850146  0.36076681  0.33939681  1
  H+  H260  1  0.33863548  0.66657365  0.43158264  1
  H+  H261  1  0.62866726  0.61324631  0.65475255  1
  H+  H262  1  0.90653256  0.59749037  0.22849940  1
  H+  H263  1  1.00862246  0.37258830  0.15101696  1
  H+  H264  1  0.91327926  0.48560541  0.68522179  1
  H+  H265  1  0.87447729  0.62046686  0.32244413  1
  H+  H266  1  0.22996394  0.61479985  0.83915157  1
  H+  H267  1  0.75568541  0.86456120  0.68054147  1
  H+  H268  1  0.16810453  0.50029867  0.15682702  1
  H+  H269  1  0.36613035  0.87440143  0.48549235  1
  H+  H270  1  0.46607606  0.86126243  0.99975587  1
  H+  H271  1  0.17512950  0.58511593  0.93977264  1
  H+  H272  1  0.04080007  0.12935205  0.67628416  1
  H+  H273  1  0.10687278  0.88901423  1.01299775  1
  H+  H274  1  0.63086282  0.86071237  0.17417673  1
  H+  H275  1  0.19237840  0.10122339  0.58828290  1
  H+  H276  1  0.08104230  0.16441508  0.07303561  1
  H+  H277  1  0.47814429  0.94777890  0.61580626  1
  H+  H278  1  0.36930283  0.23491595  0.67758946  1
  H+  H279  1  0.87930375  0.10144637  0.16754818  1
  H+  H280  1  0.13520503  0.52728447  0.50647310  1
  H+  H281  1  0.85504131  0.13247609  0.48948661  1
  H+  H282  1  0.45034423  0.39282388  0.51493663  1
  H+  H283  1  0.85775419  0.88194434  0.67648278  1
  H+  H284  1  1.04225038  0.64516252  0.99558528  1
  H+  H285  1  0.36732282  0.23693978  0.49753466  1
  H+  H286  1  0.74760979  0.61514957  0.14725716  1
  H+  H287  1  0.35729136  0.88596727  0.16428804  1
  H+  H288  1  0.66313873  0.36734463  0.49456645  1
  H+  H289  1  0.08697936  0.92613132  0.11177791  1
  H+  H290  1  0.71284614  0.29853502  0.93869458  1
  H+  H291  1  0.95659873  0.84264702  0.14217981  1
  H+  H292  1  0.06946527  0.82089708  0.75652941  1
  H+  H293  1  0.17102482  0.83891087  0.23274345  1
  H+  H294  1  0.62988290  0.10040670  0.99963889  1
  H+  H295  1  0.16699164  0.12918248  0.50101659  1
  H+  H296  1  0.82097114  0.68325684  0.78440454  1
  H+  H297  1  0.33453279  0.90761863  0.41981158  1
  H+  H298  1  0.82470890  0.15060460  0.05998059  1
  H+  H299  1  0.67924780  0.79462734  0.89339419  1
  H+  H300  1  0.13643755  1.02463504  0.00625869  1
  H+  H301  1  0.58496608  0.90943482  0.77391010  1
  H+  H302  1  0.65063217  0.56535879  0.22887972  1
  H+  H303  1  0.05438563  0.38345233  0.50001557  1
  H+  H304  1  0.06423510  0.40890154  0.72784478  1
  H+  H305  1  0.66899928  0.58807837  0.59846051  1
  H+  H306  1  0.57550985  0.65273838  0.73121534  1
  H+  H307  1  0.90966581  0.58078272  0.93210990  1
  H+  H308  1  0.15685731  0.57906475  0.56869668  1
  H+  H309  1  0.90810486  0.07608593  0.23025440  1
  H+  H310  1  0.87216216  0.75751624  0.12480423  1
  H+  H311  1  1.00077039  0.19085836  0.62094927  1
  H+  H312  1  0.66277746  0.06089261  0.59962549  1
  H+  H313  1  0.13200942  0.38956239  0.81393385  1
  H+  H314  1  0.36540936  0.97823284  0.01021320  1
  H+  H315  1  0.82040351  0.66993913  0.38714249  1
  H+  H316  1  0.73189732  0.42283309  0.14814096  1
  H+  H317  1  0.91557272  0.07702742  0.90143829  1
  H+  H318  1  0.57756728  0.89857603  0.39958566  1
  H+  H319  1  0.34002871  0.42411210  0.73910049  1
  H+  H320  1  0.73118376  0.16757599  0.23550116  1
  H+  H321  1  0.42496544  0.33060152  0.94023659  1
  H+  H322  1  0.13295768  0.64591177  -0.00961575  1
  H+  H323  1  0.64545043  0.06874450  0.26765515  1
  H+  H324  1  0.82842076  0.91537844  0.10341966  1
  H+  H325  1  0.82599341  0.90593902  0.74461119  1
  H+  H326  1  0.52672926  0.38172794  0.34237272  1
  H+  H327  1  0.19237011  0.30725181  0.94439216  1
  H+  H328  1  0.41379276  0.36930041  0.18397577  1
  H+  H329  1  0.13963686  0.78197295  0.98729512  1
  H+  H330  1  0.33751093  0.17685000  0.11303308  1
  H+  H331  1  0.59048058  0.15834551  0.76746121  1
  H+  H332  1  0.66064396  0.81934314  0.61114962  1
  H+  H333  1  0.16056827  0.58865148  0.23586775  1
  H+  H334  1  0.65573390  0.29982821  0.26150157  1
  H+  H335  1  0.79582371  0.92241216  0.45930092  1
  H+  H336  1  0.59481078  0.95359625  0.33871040  1
  H+  H337  1  0.86496488  0.77190215  0.99907369  1
  H+  H338  1  0.41710658  0.83598023  0.55569176  1
  H+  H339  1  0.75149951  0.66572822  0.68934322  1
  H+  H340  1  0.09132232  0.91617569  0.39756572  1
  H+  H341  1  0.32939616  0.91358639  0.10233968  1
  H+  H342  1  0.95805332  0.61396713  0.50034617  1
  H+  H343  1  0.02254102  0.80630112  0.75354662  1
  H+  H344  1  0.17215425  0.08864191  0.94863879  1
  H+  H345  1  0.18553258  0.84831193  0.56069598  1
  H+  H346  1  0.16054493  0.78980651  0.65864382  1
  H+  H347  1  0.60056417  0.41107074  0.42282279  1
  H+  H348  1  0.17371799  0.32222363  0.27078372  1
  H+  H349  1  0.27267910  0.14824954  0.16861638  1
  H+  H350  1  0.13809076  0.86180094  0.33137278  1
  H+  H351  1  0.80909970  0.14768611  0.43373925  1
  H+  H352  1  0.58026926  0.42918140  0.76511702  1
  H+  H353  1  0.58439982  0.15817583  0.43513262  1
  H+  H354  1  0.84047759  0.91350412  0.37372869  1
  H+  H355  1  0.59091515  0.67115856  0.09816071  1
  H+  H356  1  0.65520257  0.81810928  0.26452292  1
  H+  H357  1  0.29422039  0.38959996  0.01569233  1
  H+  H358  1  0.84314681  0.42211259  0.37800924  1
  H+  H359  1  0.90623231  0.31557058  0.59241991  1
  H+  H360  1  0.33490772  0.91917606  0.77618742  1
  H+  H361  1  0.14517931  0.12548910  0.85313018  1
  H+  H362  1  0.83298936  0.14940494  0.72594297  1
  H+  H363  1  0.82124118  0.42704499  0.06754097  1
  H+  H364  1  0.94129065  0.61322572  0.59843230  1
  H+  H365  1  0.58802391  0.38719863  0.10590405  1
  H+  H366  1  0.40746917  0.82982966  0.27150798  1
  H+  H367  1  0.42179198  0.08728055  0.23022561  1
  H+  H368  1  0.65725519  0.85453821  0.95767718  1
  H+  H369  1  0.41266458  0.83229923  0.90774899  1
  H+  H370  1  0.88686836  0.31653626  0.89859492  1
  H+  H371  1  0.19065459  0.38415046  0.88868726  1
  H+  H372  1  0.43201913  0.58528752  0.93996035  1
  H+  H373  1  0.90014279  0.83495540  0.94259485  1
  H+  H374  1  0.56589206  0.64759356  0.43310166  1
  H+  H375  1  0.35473897  0.41826803  0.10912311  1
  H+  H376  1  0.61268158  0.29568072  0.16375800  1
  H+  H377  1  0.64126306  0.32933559  0.88954762  1
  H+  H378  1  0.01945693  0.64095390  0.16328754  1
  H+  H379  1  0.97175953  0.40781382  0.24901742  1
  H+  H380  1  0.10378076  0.40934612  0.43734712  1
  H+  H381  1  0.95514485  0.48910495  0.42587808  1
  H+  H382  1  0.66214930  0.33683306  0.59234868  1
  H+  H383  1  0.61031205  0.87153090  0.68210841  1
  O2-  O384  1  0.08364619  0.16717257  0.14891225  1
  O2-  O385  1  0.13535929  0.20336653  0.49378945  1
  O2-  O386  1  0.08422970  0.16830767  0.82035659  1
  O2-  O387  1  0.17350581  0.45393881  0.13698500  1
  O2-  O388  1  0.11191107  0.42177107  0.48300778  1
  O2-  O389  1  0.08865812  0.40870640  0.80981678  1
  O2-  O390  1  0.08099676  0.66541716  0.15385747  1
  O2-  O391  1  0.07602962  0.67073657  0.49645147  1
  O2-  O392  1  0.08395826  0.66915910  0.81227468  1
  O2-  O393  1  0.08495736  0.92527573  0.15699218  1
  O2-  O394  1  0.10198927  0.92819794  0.47373493  1
  O2-  O395  1  0.06896375  0.92721960  0.84118687  1
  O2-  O396  1  0.33404689  0.18246080  0.15743650  1
  O2-  O397  1  0.34776648  0.17884114  0.48178691  1
  O2-  O398  1  0.33490969  0.16966673  0.81738050  1
  O2-  O399  1  0.35632035  0.41917272  0.15442060  1
  O2-  O400  1  0.31072213  0.41718656  0.48635671  1
  O2-  O401  1  0.34441445  0.41836396  0.81951585  1
  O2-  O402  1  0.33908444  0.68519853  0.16507111  1
  O2-  O403  1  0.35443607  0.68175975  0.47506964  1
  O2-  O404  1  0.33896418  0.66470006  0.81982888  1
  O2-  O405  1  0.32489809  0.91301569  0.14765426  1
  O2-  O406  1  0.33573535  0.90609767  0.46892764  1
  O2-  O407  1  0.33265308  0.91833003  0.82135513  1
  O2-  O408  1  0.61289157  0.18755882  0.15017855  1
  O2-  O409  1  0.59195958  0.16014516  0.48040319  1
  O2-  O410  1  0.58853243  0.15869063  0.81318154  1
  O2-  O411  1  0.59452581  0.38438695  0.15139398  1
  O2-  O412  1  0.60503374  0.41038559  0.46995837  1
  O2-  O413  1  0.58161004  0.42637087  0.81044670  1
  O2-  O414  1  0.58648508  0.66940085  0.14361592  1
  O2-  O415  1  0.56442421  0.64222466  0.47878687  1
  O2-  O416  1  0.58245591  0.65576407  0.80868372  1
  O2-  O417  1  0.58554993  0.92374711  0.15945922  1
  O2-  O418  1  0.58332243  0.90188102  0.48007557  1
  O2-  O419  1  0.58741203  0.91729927  0.81931642  1
  O2-  O420  1  0.82987622  0.14975009  0.13929022  1
  O2-  O421  1  0.81895153  0.15876307  0.47815587  1
  O2-  O422  1  0.82603234  0.15348520  0.81032278  1
  O2-  O423  1  0.79103669  0.43515454  0.14234002  1
  O2-  O424  1  0.90177432  0.44801211  0.44756858  1
  O2-  O425  1  0.80751375  0.41650964  0.82559874  1
  O2-  O426  1  0.80106407  0.64060243  0.12237502  1
  O2-  O427  1  0.82290140  0.66742748  0.46724063  1
  O2-  O428  1  0.83513112  0.67657452  0.82717055  1
  O2-  O429  1  0.82079723  0.91790985  0.15010082  1
  O2-  O430  1  0.85573396  0.93935632  0.45292177  1
  O2-  O431  1  0.83162312  0.91544911  0.81036364  1
  O2-  O432  1  0.16326858  0.08678763  0.19322595  1
  O2-  O433  1  0.18821414  0.08942601  0.51345412  1
  O2-  O434  1  0.17518566  0.09658045  0.87058437  1
  O2-  O435  1  0.19079580  0.33674703  0.19183814  1
  O2-  O436  1  0.22561183  0.37091733  0.51511356  1
  O2-  O437  1  0.18831232  0.35082991  0.85289413  1
  O2-  O438  1  0.16860779  0.59177644  0.19128411  1
  O2-  O439  1  0.14794678  0.58305639  0.52463870  1
  O2-  O440  1  0.16762075  0.58611161  0.84937375  1
  O2-  O441  1  0.16536385  0.83793371  0.18817049  1
  O2-  O442  1  0.18310794  0.84514592  0.51520968  1
  O2-  O443  1  0.15878900  0.83385995  0.85660848  1
  O2-  O444  1  0.44043090  0.08043245  0.18988487  1
  O2-  O445  1  0.42945722  0.10366359  0.53249686  1
  O2-  O446  1  0.41724464  0.08460773  0.85789261  1
  O2-  O447  1  0.43892360  0.33493616  0.20021678  1
  O2-  O448  1  0.39370167  0.34759632  0.52735783  1
  O2-  O449  1  0.42217029  0.33456143  0.85961960  1
  O2-  O450  1  0.41599105  0.58389573  0.18874577  1
  O2-  O451  1  0.40178919  0.57429549  0.52887208  1
  O2-  O452  1  0.42098185  0.58066386  0.85942145  1
  O2-  O453  1  0.41275067  0.84054135  0.20005845  1
  O2-  O454  1  0.41655957  0.83293107  0.51090746  1
  O2-  O455  1  0.41149690  0.83043635  0.86095494  1
  O2-  O456  1  0.70475313  0.13064354  0.20035095  1
  O2-  O457  1  0.65924701  0.06510085  0.52261405  1
  O2-  O458  1  0.67011349  0.08121467  0.84361591  1
  O2-  O459  1  0.64870024  0.27163965  0.17929865  1
  O2-  O460  1  0.68716336  0.33416028  0.51562281  1
  O2-  O461  1  0.64718736  0.32586147  0.84543637  1
  O2-  O462  1  0.64939358  0.56342167  0.18339679  1
  O2-  O463  1  0.66319088  0.57715755  0.51752089  1
  O2-  O464  1  0.67039305  0.58947960  0.86310592  1
  O2-  O465  1  0.66347924  0.83099904  0.18569494  1
  O2-  O466  1  0.64257931  0.80865760  0.53265124  1
  O2-  O467  1  0.67289949  0.82525754  0.85892002  1
  O2-  O468  1  0.91033192  0.07228250  0.18447938  1
  O2-  O469  1  0.91909534  0.09140962  0.50054742  1
  O2-  O470  1  0.91346928  0.07806036  0.85567670  1
  O2-  O471  1  0.84302790  0.32810423  0.18890466  1
  O2-  O472  1  0.92763682  0.32859888  0.51540449  1
  O2-  O473  1  0.88092063  0.31342273  0.85138069  1
  O2-  O474  1  0.90578974  0.59618199  0.18316164  1
  O2-  O475  1  0.89609572  0.57421733  0.50727621  1
  O2-  O476  1  0.91588518  0.58485570  0.85348209  1
  O2-  O477  1  0.90561637  0.81944411  0.11622534  1
  O2-  O478  1  0.92313155  0.84562085  0.50046804  1
  O2-  O479  1  0.90314623  0.84087530  0.86404499  1
  O2-  O480  1  0.19919990  0.08286115  0.32046313  1
  O2-  O481  1  0.18929436  0.09757547  0.63434504  1
  O2-  O482  1  0.16998251  0.08678206  0.99398300  1
  O2-  O483  1  0.16685108  0.31240714  0.31549316  1
  O2-  O484  1  0.08650998  0.28632224  0.62846565  1
  O2-  O485  1  0.18809274  0.32322734  0.98601504  1
  O2-  O486  1  0.14334732  0.57514197  0.31516075  1
  O2-  O487  1  0.16566996  0.57616607  0.65004402  1
  O2-  O488  1  0.17799979  0.59013893  0.98415405  1
  O2-  O489  1  0.17280621  0.83462865  0.31643603  1
  O2-  O490  1  0.18455162  0.84803896  0.63931617  1
  O2-  O491  1  0.16354174  0.84608962  0.97976849  1
  O2-  O492  1  0.41045006  0.08577571  0.32125459  1
  O2-  O493  1  0.43104894  0.09650138  0.66082982  1
  O2-  O494  1  0.41989669  0.08667670  0.98532054  1
  O2-  O495  1  0.43429221  0.33676559  0.32474271  1
  O2-  O496  1  0.40845772  0.33506777  0.64966755  1
  O2-  O497  1  0.42612568  0.33196099  0.98545375  1
  O2-  O498  1  0.40088899  0.57194248  0.31163483  1
  O2-  O499  1  0.41390423  0.58034214  0.65081541  1
  O2-  O500  1  0.43940825  0.59019005  0.98479276  1
  O2-  O501  1  0.40241568  0.82322919  0.31779129  1
  O2-  O502  1  0.44767269  0.88974837  0.63260835  1
  O2-  O503  1  0.40957773  0.83333281  0.97907314  1
  O2-  O504  1  0.63471292  0.05667885  0.31197406  1
  O2-  O505  1  0.66453852  0.05968985  0.64532503  1
  O2-  O506  1  0.65220594  0.06278921  0.98569299  1
  O2-  O507  1  0.66185658  0.31376927  0.30534448  1
  O2-  O508  1  0.64628366  0.33458788  0.63593290  1
  O2-  O509  1  0.69017477  0.32020487  0.96998418  1
  O2-  O510  1  0.65291924  0.57424218  0.30724671  1
  O2-  O511  1  0.66759013  0.59041400  0.64368333  1
  O2-  O512  1  0.69824587  0.61661635  0.98131129  1
  O2-  O513  1  0.65788191  0.81666343  0.30985240  1
  O2-  O514  1  0.66583029  0.81975192  0.65642894  1
  O2-  O515  1  0.66638857  0.84392777  0.99966102  1
  O2-  O516  1  0.89819943  0.07113026  0.30382797  1
  O2-  O517  1  0.95845458  0.12690388  0.62025535  1
  O2-  O518  1  0.91984542  0.07900335  0.97906291  1
  O2-  O519  1  0.97960544  0.43331557  0.28919175  1
  O2-  O520  1  0.89911432  0.30763331  0.63755028  1
  O2-  O521  1  0.89072595  0.31531449  0.96707861  1
  O2-  O522  1  0.90822613  0.59243736  0.30869910  1
  O2-  O523  1  0.99685128  0.66170466  0.61050549  1
  O2-  O524  1  0.90160226  0.57854639  0.97711092  1
  O2-  O525  1  0.91740553  0.82058602  0.29911516  1
  O2-  O526  1  0.92458626  0.85379606  0.63422692  1
  O2-  O527  1  0.90174712  0.83299308  0.98778428  1
  O2-  O528  1  0.08178512  0.16469404  0.02722137  1
  O2-  O529  1  0.00726259  0.15166570  0.40189741  1
  O2-  O530  1  0.09575982  0.15457795  0.69868719  1
  O2-  O531  1  0.11601452  0.43582103  0.02398070  1
  O2-  O532  1  0.08490873  0.37849084  0.36979933  1
  O2-  O533  1  0.05985692  0.40975430  0.68328428  1
  O2-  O534  1  0.10343252  0.68249745  -0.01173112  1
  O2-  O535  1  0.03121452  0.59717742  0.38359024  1
  O2-  O536  1  0.11701263  0.68879610  0.69123629  1
  O2-  O537  1  0.07982165  0.92122775  0.03092215  1
  O2-  O538  1  0.08688413  0.90862765  0.35222462  1
  O2-  O539  1  0.09289130  0.92393311  0.66176943  1
  O2-  O540  1  0.34002443  0.17109360  0.02978412  1
  O2-  O541  1  0.27341552  0.12327150  0.34446028  1
  O2-  O542  1  0.34273523  0.17415507  0.69282500  1
  O2-  O543  1  0.35501628  0.42350592  0.02902354  1
  O2-  O544  1  0.33101850  0.40580867  0.36334177  1
  O2-  O545  1  0.33546752  0.42640052  0.69434483  1
  O2-  O546  1  0.33612791  0.67741348  0.00703605  1
  O2-  O547  1  0.31335644  0.65053818  0.35362405  1
  O2-  O548  1  0.33395771  0.65617056  0.69396247  1
  O2-  O549  1  0.33049780  0.91759516  0.02403286  1
  O2-  O550  1  0.33494442  0.91270360  0.35684232  1
  O2-  O551  1  0.33865044  0.93131146  0.69577435  1
  O2-  O552  1  0.58611349  0.16495691  0.02567570  1
  O2-  O553  1  0.57383659  0.15414992  0.35720665  1
  O2-  O554  1  0.60896856  0.16412196  0.69216548  1
  O2-  O555  1  0.58647853  0.39645728  0.03220389  1
  O2-  O556  1  0.59199659  0.41241981  0.35388463  1
  O2-  O557  1  0.57652040  0.42573553  0.68520979  1
  O2-  O558  1  0.60311248  0.68219864  0.02100331  1
  O2-  O559  1  0.56964305  0.65203079  0.35637911  1
  O2-  O560  1  0.57530087  0.65909708  0.68598806  1
  O2-  O561  1  0.56917346  0.91544339  0.04089658  1
  O2-  O562  1  0.57149788  0.89396965  0.35450467  1
  O2-  O563  1  0.58355896  0.90531446  0.69660837  1
  O2-  O564  1  0.82522028  0.15340128  0.01473443  1
  O2-  O565  1  0.79232859  0.12292242  0.35592148  1
  O2-  O566  1  0.83043292  0.14558067  0.68102284  1
  O2-  O567  1  0.83342287  0.42123920  0.02422676  1
  O2-  O568  1  0.83017547  0.42018571  0.33379973  1
  O2-  O569  1  0.76351909  0.29751853  0.69896742  1
  O2-  O570  1  0.78783870  0.65254470  0.00187499  1
  O2-  O571  1  0.81883452  0.66675150  0.34203329  1
  O2-  O572  1  0.78874394  0.71153930  0.71892095  1
  O2-  O573  1  0.83480642  0.92079009  0.03456029  1
  O2-  O574  1  0.82984299  0.90518255  0.32943822  1
  O2-  O575  1  0.81935943  0.90030371  0.69634273  1
