# generated using pymatgen
data_H2O
_symmetry_space_group_name_H-M   'P 1'
_cell_length_a   17.98638764
_cell_length_b   17.98757509
_cell_length_c   22.00378572
_cell_angle_alpha   89.97953146
_cell_angle_beta   90.00089235
_cell_angle_gamma   119.99721022
_symmetry_Int_Tables_number   1
_chemical_formula_structural   H2O
_chemical_formula_sum   'H384 O192'
_cell_volume   6165.33643138
_cell_formula_units_Z   192
loop_
 _symmetry_equiv_pos_site_id
 _symmetry_equiv_pos_as_xyz
  1  'x, y, z'
loop_
 _atom_type_symbol
 _atom_type_oxidation_number
  H+  1.0
  O2-  -2.0
loop_
 _atom_site_type_symbol
 _atom_site_label
 _atom_site_symmetry_multiplicity
 _atom_site_fract_x
 _atom_site_fract_y
 _atom_site_fract_z
 _atom_site_occupancy
  H+  H0  1  0.14076676  0.27449462  0.31785323  1
  H+  H1  1  0.39771738  0.32331611  0.91043077  1
  H+  H2  1  0.80922176  0.12871567  0.68886114  1
  H+  H3  1  0.35407622  0.38893240  0.83004857  1
  H+  H4  1  0.22491061  0.61312090  0.85716025  1
  H+  H5  1  0.52618021  0.89052918  0.66386267  1
  H+  H6  1  0.10775417  0.87781146  0.50440475  1
  H+  H7  1  0.12894822  0.75056635  0.33898630  1
  H+  H8  1  0.89231012  1.03111862  0.17129398  1
  H+  H9  1  0.39627556  0.28385112  -0.00044807  1
  H+  H10  1  0.61436278  0.13857053  0.82045784  1
  H+  H11  1  0.05385159  0.14803858  0.63980735  1
  H+  H12  1  0.22923672  0.36921076  0.83950920  1
  H+  H13  1  0.20494117  0.59965608  0.32892545  1
  H+  H14  1  0.48715787  0.10033517  0.32852974  1
  H+  H15  1  0.12555650  0.99974622  0.32654137  1
  H+  H16  1  0.86788048  0.23398826  0.83914215  1
  H+  H17  1  0.37195576  0.93077910  0.34764000  1
  H+  H18  1  0.91358541  0.61756836  1.00097078  1
  H+  H19  1  0.10704634  0.14028105  0.48794165  1
  H+  H20  1  0.63157424  0.02806622  0.49080652  1
  H+  H21  1  0.72755475  0.85821468  0.50273379  1
  H+  H22  1  0.33621996  0.14818323  0.34473895  1
  H+  H23  1  0.10836147  0.61647788  0.34268965  1
  H+  H24  1  0.13822512  0.61975535  0.49683136  1
  H+  H25  1  0.48112103  0.61171855  0.84817901  1
  H+  H26  1  0.33394402  0.67509798  0.42663854  1
  H+  H27  1  0.60522633  0.88942916  0.49015511  1
  H+  H28  1  0.53659619  0.38251573  0.51653556  1
  H+  H29  1  0.87732927  0.47937501  0.00863411  1
  H+  H30  1  0.69954746  0.11721154  0.64021096  1
  H+  H31  1  0.97476743  0.86722712  0.84001303  1
  H+  H32  1  0.84408711  0.72519324  0.67371495  1
  H+  H33  1  0.72997528  0.62341576  0.83703940  1
  H+  H34  1  0.24936326  0.66135285  0.65581722  1
  H+  H35  1  0.88698820  0.86331306  -0.00284750  1
  H+  H36  1  0.58998549  0.21082784  0.45603061  1
  H+  H37  1  0.62500046  0.90457483  0.67030326  1
  H+  H38  1  0.62199293  0.49015146  0.82462037  1
  H+  H39  1  0.79495446  0.89558630  0.32496488  1
  H+  H40  1  0.08485682  0.41982489  0.06231044  1
  H+  H41  1  0.37916143  0.78074675  0.50001008  1
  H+  H42  1  0.13154230  0.10508121  0.83100735  1
  H+  H43  1  0.62367211  0.39110801  0.67022728  1
  H+  H44  1  0.90618971  0.02679452  0.32548716  1
  H+  H45  1  0.14582803  0.29385925  0.65421314  1
  H+  H46  1  0.46853966  0.86912189  0.50013632  1
  H+  H47  1  0.10488319  -0.03472777  0.50212376  1
  H+  H48  1  0.52409701  0.89027448  0.81974462  1
  H+  H49  1  0.66181964  0.39462217  0.50479377  1
  H+  H50  1  0.98351951  0.36553145  0.99653056  1
  H+  H51  1  0.58075333  0.17489824  0.73361589  1
  H+  H52  1  0.26473481  0.65290898  0.00260914  1
  H+  H53  1  0.22113297  0.85861379  0.18542502  1
  H+  H54  1  0.35776717  0.89989381  0.15826717  1
  H+  H55  1  0.90114749  0.14087439  0.69390444  1
  H+  H56  1  0.22182086  0.10364198  0.82950545  1
  H+  H57  1  0.14784229  0.86660384  0.80841317  1
  H+  H58  1  0.87645185  0.73233935  0.00457606  1
  H+  H59  1  0.88461633  0.60190712  0.84664397  1
  H+  H60  1  0.11280877  0.38617053  0.15784338  1
  H+  H61  1  0.85456352  0.96469328  0.48445298  1
  H+  H62  1  0.98096263  0.36104222  0.32667682  1
  H+  H63  1  0.10875511  0.47315026  0.16359332  1
  H+  H64  1  0.59715876  0.70489406  0.31784448  1
  H+  H65  1  0.88567745  0.14008402  0.34541359  1
  H+  H66  1  0.79758205  0.40962892  0.50802158  1
  H+  H67  1  0.86433640  0.43377690  0.45422104  1
  H+  H68  1  0.64810402  0.76848023  0.17011948  1
  H+  H69  1  0.38077370  0.49071770  0.00889199  1
  H+  H70  1  0.63851838  0.02834333  0.82665675  1
  H+  H71  1  0.75702151  0.08277780  0.33096071  1
  H+  H72  1  0.37191710  0.88986166  0.67390027  1
  H+  H73  1  0.10895520  0.87639383  0.17109193  1
  H+  H74  1  0.11476721  0.48364148  0.84269817  1
  H+  H75  1  0.09599101  0.22210128  0.48319443  1
  H+  H76  1  0.77417914  0.38426396  0.83059971  1
  H+  H77  1  0.45089772  0.33796665  0.58485422  1
  H+  H78  1  0.88412443  0.60935823  0.17941879  1
  H+  H79  1  0.04005466  0.63466067  0.50918122  1
  H+  H80  1  0.10859105  0.48661315  0.33494205  1
  H+  H81  1  0.23399831  0.61516554  0.49402547  1
  H+  H82  1  0.15817203  0.15263464  0.56960683  1
  H+  H83  1  0.11945139  0.75754014  0.04673576  1
  H+  H84  1  0.23913179  0.97768375  0.04654079  1
  H+  H85  1  0.62126118  0.02114533  0.64891428  1
  H+  H86  1  0.33755447  0.62235852  1.00542825  1
  H+  H87  1  0.38649528  0.01866342  0.66793522  1
  H+  H88  1  0.63305530  0.29483237  0.37135712  1
  H+  H89  1  0.11291957  0.39054228  0.68318411  1
  H+  H90  1  0.62524823  0.73475952  0.68224372  1
  H+  H91  1  0.14545586  0.02571178  0.97971353  1
  H+  H92  1  0.78063104  0.14376770  0.49224671  1
  H+  H93  1  0.78921806  0.64337448  1.00492034  1
  H+  H94  1  0.62884760  0.28107503  0.66101025  1
  H+  H95  1  0.15106363  0.06500153  0.22632119  1
  H+  H96  1  0.73975642  0.86031637  0.99504358  1
  H+  H97  1  0.86412455  0.47384159  0.83269025  1
  H+  H98  1  0.42986730  0.28815129  0.17824728  1
  H+  H99  1  0.88658975  0.78197556  0.83502126  1
  H+  H100  1  0.57154465  0.87306059  0.33614222  1
  H+  H101  1  0.88820582  0.23670157  1.00813427  1
  H+  H102  1  0.07717516  0.42056566  0.42380003  1
  H+  H103  1  0.21396374  0.84603510  0.33909101  1
  H+  H104  1  0.11086357  0.39334350  0.33529637  1
  H+  H105  1  0.66278613  0.16024172  0.33418951  1
  H+  H106  1  0.48153999  0.10752609  0.83868904  1
  H+  H107  1  0.30638931  0.27565783  0.88231158  1
  H+  H108  1  -0.00521155  0.11626689  0.32245807  1
  H+  H109  1  0.88429294  0.13778485  0.00998936  1
  H+  H110  1  0.47205287  0.01883411  0.55175552  1
  H+  H111  1  0.46245680  0.59576730  0.31946122  1
  H+  H112  1  0.67784801  0.85912074  0.36140121  1
  H+  H113  1  0.33872823  0.42269650  0.48713610  1
  H+  H114  1  0.14876514  0.36352882  0.93658140  1
  H+  H115  1  0.92757237  0.54090091  0.53781522  1
  H+  H116  1  0.87399730  0.89902632  0.80579747  1
  H+  H117  1  0.37546172  0.38415841  0.32784101  1
  H+  H118  1  0.53393339  0.40110069  0.82178830  1
  H+  H119  1  0.27489123  0.88661156  0.82884726  1
  H+  H120  1  0.87496756  0.14575794  0.15992764  1
  H+  H121  1  0.89318157  0.02150659  0.99910728  1
  H+  H122  1  0.43075073  0.34695423  0.23385294  1
  H+  H123  1  0.09618074  0.48531225  0.01143193  1
  H+  H124  1  0.36720494  0.62776418  0.84263657  1
  H+  H125  1  0.88531904  0.76359972  0.32977250  1
  H+  H126  1  0.02722102  0.14602937  0.16007289  1
  H+  H127  1  0.61105632  0.72872907  0.83433366  1
  H+  H128  1  0.87637913  0.88295504  0.33379929  1
  H+  H129  1  0.90829376  0.27472903  0.66746913  1
  H+  H130  1  0.10898180  0.72067477  0.82270847  1
  H+  H131  1  0.37804040  0.41000405  0.67628191  1
  H+  H132  1  0.28193266  0.88780064  0.67658558  1
  H+  H133  1  0.34653834  0.36540932  0.55482718  1
  H+  H134  1  0.64481138  0.53390545  0.99176949  1
  H+  H135  1  0.35609806  0.63938222  0.15724745  1
  H+  H136  1  0.38452023  0.39511186  0.00975258  1
  H+  H137  1  0.63496494  0.61892093  0.50292722  1
  H+  H138  1  0.11334474  0.35874639  0.49830807  1
  H+  H139  1  0.62602357  0.40084339  0.15408564  1
  H+  H140  1  0.35402921  0.71529252  0.32710011  1
  H+  H141  1  0.33967559  0.82230180  0.30174536  1
  H+  H142  1  -0.02147821  0.36985090  0.84858993  1
  H+  H143  1  0.88760748  0.51377779  0.33420361  1
  H+  H144  1  0.17348364  0.08379794  0.92088415  1
  H+  H145  1  0.13583292  0.14536824  0.65770500  1
  H+  H146  1  0.37293199  0.03597666  0.99351368  1
  H+  H147  1  0.10200024  0.71661788  0.16741495  1
  H+  H148  1  0.35330542  0.12658396  0.67553632  1
  H+  H149  1  0.22812932  0.14709994  0.52589198  1
  H+  H150  1  0.73589381  0.37656218  -0.00962131  1
  H+  H151  1  0.08627654  0.63348237  0.65665519  1
  H+  H152  1  0.35024222  0.85954478  1.04722952  1
  H+  H153  1  0.31936495  0.01703739  0.32529278  1
  H+  H154  1  0.53848322  0.40426545  0.15553281  1
  H+  H155  1  0.61420695  0.63966414  0.00485795  1
  H+  H156  1  0.64022991  0.62306082  0.83826193  1
  H+  H157  1  0.79093302  0.37799820  0.36126398  1
  H+  H158  1  0.20070250  0.36202861  0.50428796  1
  H+  H159  1  0.10414165  0.21513917  0.82705764  1
  H+  H160  1  0.38339919  0.78346765  0.16395928  1
  H+  H161  1  0.86524117  0.72775790  0.15954300  1
  H+  H162  1  0.38319950  0.50108607  0.68488974  1
  H+  H163  1  0.87294129  0.22227064  0.34121705  1
  H+  H164  1  0.97510532  0.60588824  0.84797296  1
  H+  H165  1  0.48206839  0.63056516  0.49738098  1
  H+  H166  1  0.35889143  -0.02557731  0.50131687  1
  H+  H167  1  0.12545171  0.13183509  0.33297000  1
  H+  H168  1  0.38580463  0.55348372  0.50292590  1
  H+  H169  1  0.22568795  0.09568202  0.67638929  1
  H+  H170  1  0.75524408  0.63383607  0.49776991  1
  H+  H171  1  0.13784581  0.76970328  0.51446090  1
  H+  H172  1  0.27461778  0.14747740  -0.00509137  1
  H+  H173  1  0.36112155  0.11727806  0.17217614  1
  H+  H174  1  0.64530964  0.77651763  0.99164817  1
  H+  H175  1  0.12314221  0.85749451  0.66966764  1
  H+  H176  1  0.47392852  0.87643237  0.16264505  1
  H+  H177  1  0.82824921  0.90238076  0.42656344  1
  H+  H178  1  0.65412712  0.01988441  0.32854332  1
  H+  H179  1  0.89816422  0.28067563  0.51488717  1
  H+  H180  1  0.91821014  0.33076727  0.93945635  1
  H+  H181  1  0.65180034  0.78757708  0.54628171  1
  H+  H182  1  0.47694925  0.61209130  0.00020281  1
  H+  H183  1  0.61530027  0.73164320  0.46850315  1
  H+  H184  1  1.00403094  0.87820791  0.67691960  1
  H+  H185  1  0.63270845  0.52812324  0.51098048  1
  H+  H186  1  0.23959492  0.12037207  0.15343804  1
  H+  H187  1  0.17211077  0.74234770  0.99671593  1
  H+  H188  1  0.50476489  0.38363234  0.32505170  1
  H+  H189  1  0.13987658  0.27266564  0.16636918  1
  H+  H190  1  0.10801765  0.63427390  0.83933013  1
  H+  H191  1  0.22649931  0.36362728  0.31671652  1
  H+  H192  1  0.86776970  0.38583273  0.00938544  1
  H+  H193  1  0.02357842  0.39634305  0.48898191  1
  H+  H194  1  0.64680762  0.53255103  0.16979126  1
  H+  H195  1  0.73261633  0.37094766  0.16516778  1
  H+  H196  1  0.39475080  0.75557846  0.98544335  1
  H+  H197  1  0.31390033  0.21777767  0.15028508  1
  H+  H198  1  0.86508722  0.47670577  0.16186931  1
  H+  H199  1  0.85411866  0.72757951  0.49510293  1
  H+  H200  1  0.54313243  0.88063666  0.99950839  1
  H+  H201  1  0.35278458  0.88503141  0.49232211  1
  H+  H202  1  0.40307583  0.64245419  0.65677096  1
  H+  H203  1  0.38387411  0.76962928  0.83418177  1
  H+  H204  1  0.64636274  0.13801618  0.36425568  1
  H+  H205  1  0.96332879  0.09401834  0.49034468  1
  H+  H206  1  0.20884594  0.69725309  0.61084140  1
  H+  H207  1  0.52982179  0.16128810  0.00140123  1
  H+  H208  1  0.88810320  0.36409585  0.17355761  1
  H+  H209  1  0.63290702  0.51894641  0.32324999  1
  H+  H210  1  0.05487376  0.59704380  -0.00104317  1
  H+  H211  1  0.74492235  0.43758643  0.30523136  1
  H+  H212  1  0.63244037  0.85837885  0.84031001  1
  H+  H213  1  0.21935300  0.05920754  0.30386954  1
  H+  H214  1  0.49047425  0.37286163  0.99514862  1
  H+  H215  1  0.58147617  0.66800247  0.77477628  1
  H+  H216  1  0.93075962  0.70607924  0.79278804  1
  H+  H217  1  0.52777046  0.13486108  0.51021728  1
  H+  H218  1  0.64517354  0.39654653  0.31539223  1
  H+  H219  1  0.65611889  0.02589270  0.98501761  1
  H+  H220  1  0.11179674  0.96769106  0.82618621  1
  H+  H221  1  0.12210343  1.00252204  0.16811801  1
  H+  H222  1  0.47097706  0.11541786  0.66853275  1
  H+  H223  1  0.89091612  0.86792663  0.17181815  1
  H+  H224  1  0.69846573  0.93567066  0.31562493  1
  H+  H225  1  0.62374730  0.61044747  0.66430997  1
  H+  H226  1  0.31324060  0.83189074  0.02648273  1
  H+  H227  1  0.95180550  0.05943895  0.72447169  1
  H+  H228  1  0.11612937  0.13900486  0.97879104  1
  H+  H229  1  0.01337844  0.38205933  0.68264788  1
  H+  H230  1  0.97681768  0.84951824  0.33019498  1
  H+  H231  1  0.43001851  0.27171379  0.52812090  1
  H+  H232  1  0.39747602  0.29395034  0.31788428  1
  H+  H233  1  0.36285743  0.38263801  0.15797847  1
  H+  H234  1  0.26957053  0.37862122  0.15568897  1
  H+  H235  1  0.35307116  0.62688971  0.33531658  1
  H+  H236  1  0.60613921  -0.02040583  0.15726991  1
  H+  H237  1  0.06556332  0.70635479  0.66077441  1
  H+  H238  1  0.86265825  0.85741769  0.65390043  1
  H+  H239  1  0.76909621  0.62808134  0.34418617  1
  H+  H240  1  0.22042754  0.86243713  0.51486551  1
  H+  H241  1  0.96681678  0.85249792  0.50617749  1
  H+  H242  1  0.41677048  0.57620083  0.94095164  1
  H+  H243  1  0.36417441  0.87783522  0.84788257  1
  H+  H244  1  0.52884875  0.65318410  0.67473768  1
  H+  H245  1  0.42664093  0.84839289  0.59998432  1
  H+  H246  1  0.43258059  0.06942338  0.58503650  1
  H+  H247  1  0.11080464  0.22040930  -0.04258721  1
  H+  H248  1  0.88128833  0.11210500  0.84570163  1
  H+  H249  1  0.37939400  0.51984642  0.16474277  1
  H+  H250  1  0.59943756  0.23851464  0.15945234  1
  H+  H251  1  0.38625181  0.12787001  0.98683027  1
  H+  H252  1  0.64354751  0.36628344  0.83860098  1
  H+  H253  1  0.58364254  0.66790746  0.06466886  1
  H+  H254  1  0.38986152  0.52209367  0.84630717  1
  H+  H255  1  0.10460821  0.86452958  0.34806914  1
  H+  H256  1  0.37259861  0.51009725  0.32244209  1
  H+  H257  1  0.48531279  0.87544938  0.33630598  1
  H+  H258  1  0.09829477  0.62712266  0.16467389  1
  H+  H259  1  0.13928304  0.52087281  0.49179240  1
  H+  H260  1  0.75758440  0.63442961  0.67805655  1
  H+  H261  1  0.86696289  0.98292533  0.81246783  1
  H+  H262  1  0.36987969  1.03336787  0.17917797  1
  H+  H263  1  0.87819497  0.37990339  0.34815250  1
  H+  H264  1  0.10944448  0.13597799  0.15862507  1
  H+  H265  1  0.62607568  0.40059413  -0.00017415  1
  H+  H266  1  0.61581509  0.48528969  0.66997966  1
  H+  H267  1  0.09784820  0.96409514  0.68160679  1
  H+  H268  1  0.37046712  0.65714265  0.48877668  1
  H+  H269  1  0.34438436  0.13252740  0.49865085  1
  H+  H270  1  0.72735571  0.11919959  0.83217391  1
  H+  H271  1  0.79870059  0.82770065  0.05093696  1
  H+  H272  1  0.87826824  0.85525485  0.50000165  1
  H+  H273  1  1.01613891  0.12748591  0.83172584  1
  H+  H274  1  0.50838523  0.11921232  0.29840088  1
  H+  H275  1  0.61197449  0.63401039  0.15994408  1
  H+  H276  1  0.83074336  0.41905161  0.74191606  1
  H+  H277  1  0.79094955  0.89503335  0.16106312  1
  H+  H278  1  0.63340842  0.88824760  1.00683084  1
  H+  H279  1  0.37174716  0.97939045  0.84928838  1
  H+  H280  1  0.88761261  0.36635885  0.84610946  1
  H+  H281  1  0.73377087  0.10997878  0.16945761  1
  H+  H282  1  0.64126290  0.29185546  0.99278640  1
  H+  H283  1  0.61120468  0.22631498  0.82718573  1
  H+  H284  1  0.35708754  0.21077609  0.83414883  1
  H+  H285  1  0.35919556  0.35492801  0.52364454  1
  H+  H286  1  0.60061540  0.14375410  0.67003310  1
  H+  H287  1  0.39526658  0.77143834  0.65562269  1
  H+  H288  1  0.56277785  0.36593135  0.37751308  1
  H+  H289  1  0.71175731  0.87560080  0.61435907  1
  H+  H290  1  0.30775068  0.35440990  0.38220882  1
  H+  H291  1  0.07744971  0.90152645  0.40534628  1
  H+  H292  1  0.02195480  0.62776287  0.34867497  1
  H+  H293  1  0.50686825  0.15517705  0.16229249  1
  H+  H294  1  0.16200495  0.83064717  0.61474755  1
  H+  H295  1  0.89891839  0.37062802  0.52112444  1
  H+  H296  1  0.41177286  0.84937469  0.98611788  1
  H+  H297  1  0.32014536  0.66760112  0.10169682  1
  H+  H298  1  0.93687656  0.33875846  0.60988936  1
  H+  H299  1  0.40307727  0.83219955  0.24722471  1
  H+  H300  1  0.82141995  0.65921337  0.43431980  1
  H+  H301  1  0.57489069  0.19295071  0.06536457  1
  H+  H302  1  0.16582565  0.60725828  0.91332994  1
  H+  H303  1  0.09498897  0.16567519  0.39082454  1
  H+  H304  1  0.67061478  0.58118943  0.26433081  1
  H+  H305  1  0.83959280  0.41996634  0.10020928  1
  H+  H306  1  0.11626699  0.39482921  0.83674167  1
  H+  H307  1  0.23536193  0.89246581  0.02778525  1
  H+  H308  1  0.58339385  0.92066047  0.76084871  1
  H+  H309  1  0.36003012  0.70075405  0.71556944  1
  H+  H310  1  0.27182290  0.17956443  0.35673402  1
  H+  H311  1  0.42367087  0.82330742  0.89436767  1
  H+  H312  1  0.56778684  0.43249405  0.44890557  1
  H+  H313  1  0.66690318  0.83207316  0.89927888  1
  H+  H314  1  0.85852008  0.17690526  0.07609511  1
  H+  H315  1  0.36433248  0.12518383  0.82939361  1
  H+  H316  1  0.21303258  0.60874837  0.18303356  1
  H+  H317  1  0.92218916  0.08968200  0.23162027  1
  H+  H318  1  0.69567162  0.06219891  0.23097963  1
  H+  H319  1  0.89433981  0.02210499  0.66788484  1
  H+  H320  1  0.32162770  0.17022248  0.05935467  1
  H+  H321  1  0.73415661  0.62234451  0.17256339  1
  H+  H322  1  0.90690799  0.57227073  0.27334902  1
  H+  H323  1  0.92864158  0.58055420  0.94009224  1
  H+  H324  1  0.32743123  0.15501532  0.73667713  1
  H+  H325  1  0.02765113  0.89029925  -0.00989556  1
  H+  H326  1  0.65446921  0.08200963  0.55227854  1
  H+  H327  1  0.90083614  0.82916807  0.59920855  1
  H+  H328  1  0.52177504  0.63342297  0.15805307  1
  H+  H329  1  0.08877056  0.65898504  0.43921080  1
  H+  H330  1  0.56497490  0.90998966  0.43106320  1
  H+  H331  1  0.31787313  0.45406643  0.42687267  1
  H+  H332  1  0.84585050  0.17336151  0.43699964  1
  H+  H333  1  0.07040625  0.90547697  0.76895993  1
  H+  H334  1  0.65446607  0.58409334  0.60286934  1
  H+  H335  1  0.57820732  0.92024952  0.09767855  1
  H+  H336  1  0.87245744  0.23505734  0.15842002  1
  H+  H337  1  0.91627134  0.32880532  0.26923183  1
  H+  H338  1  0.85218369  0.18007543  0.77823203  1
  H+  H339  1  0.54234919  0.21482396  0.36620388  1
  H+  H340  1  0.98610326  0.61097895  0.58979219  1
  H+  H341  1  0.34882610  0.07527780  0.26348438  1
  H+  H342  1  0.91344682  0.82931395  0.23076813  1
  H+  H343  1  0.97297032  0.60912150  0.18007453  1
  H+  H344  1  0.16482860  0.06309217  0.61762802  1
  H+  H345  1  0.67456776  0.59503694  0.93391136  1
  H+  H346  1  0.32225122  0.92761152  0.40824680  1
  H+  H347  1  0.67069039  0.07983871  0.92623641  1
  H+  H348  1  0.91315658  0.83808371  0.93239017  1
  H+  H349  1  0.67157168  0.33865835  0.89967229  1
  H+  H350  1  0.80480458  0.90999477  0.72068579  1
  H+  H351  1  0.42249105  0.08550409  0.90017002  1
  H+  H352  1  0.60759149  0.62256085  0.32599047  1
  H+  H353  1  0.34046736  0.43077829  0.76818636  1
  H+  H354  1  0.84720007  0.92321314  0.10032254  1
  H+  H355  1  0.15052015  0.57405929  0.24221754  1
  H+  H356  1  0.10724812  0.87625327  0.98742346  1
  H+  H357  1  0.18718187  0.83622736  0.75566760  1
  H+  H358  1  0.40371742  0.57575611  0.22461374  1
  H+  H359  1  0.02092023  0.87668519  0.16236008  1
  H+  H360  1  0.17041911  0.33601600  0.22415626  1
  H+  H361  1  0.15962847  0.81840690  0.24387329  1
  H+  H362  1  0.98153630  0.10958572  0.98296524  1
  H+  H363  1  0.68003656  0.35550693  0.56246375  1
  H+  H364  1  0.67678619  0.35275274  0.22527553  1
  H+  H365  1  0.58073612  0.66054621  0.41656674  1
  H+  H366  1  0.59565421  0.42907573  0.06028990  1
  H+  H367  1  0.31130612  0.62506220  0.78685558  1
  H+  H368  1  0.97776120  0.36446786  0.17341254  1
  H+  H369  1  0.90507152  0.06971876  0.90029327  1
  H+  H370  1  0.34314766  0.41935057  0.07137270  1
  H+  H371  1  0.31118615  0.93472537  0.11166854  1
  H+  H372  1  0.14650425  0.35032932  0.60123061  1
  H+  H373  1  0.87810818  0.09800777  0.49660421  1
  H+  H374  1  0.85609818  0.62344581  0.34844531  1
  H+  H375  1  0.43478349  0.60605258  0.60232888  1
  H+  H376  1  0.59503615  0.42699349  0.73403452  1
  H+  H377  1  0.66783929  0.83604999  0.22268217  1
  H+  H378  1  0.33277633  0.18453615  0.44529614  1
  H+  H379  1  0.84057063  0.66726965  0.10099128  1
  H+  H380  1  0.84291592  0.67155676  0.75942406  1
  H+  H381  1  0.71986446  0.36785924  0.66278026  1
  H+  H382  1  0.62225105  0.14360784  0.49209461  1
  H+  H383  1  0.08084292  0.42029175  0.74776230  1
  O2-  O384  1  0.08833901  0.17534759  0.14713096  1
  O2-  O385  1  0.07477610  0.16352732  0.46561582  1
  O2-  O386  1  0.07505553  0.15478632  0.81398862  1
  O2-  O387  1  0.07946567  0.41419412  0.14499684  1
  O2-  O388  1  0.08234614  0.42499147  0.47026702  1
  O2-  O389  1  0.08522246  0.42499945  0.82347218  1
  O2-  O390  1  0.06779877  0.65756061  0.15091987  1
  O2-  O391  1  0.10029692  0.66386699  0.48452564  1
  O2-  O392  1  0.07160970  0.65817473  0.82540868  1
  O2-  O393  1  0.08300295  0.90805407  0.15175043  1
  O2-  O394  1  0.07588042  0.90616552  0.48706855  1
  O2-  O395  1  0.08145722  0.90561961  0.81384843  1
  O2-  O396  1  0.30129389  0.16072646  0.13734041  1
  O2-  O397  1  0.33117188  0.17790377  0.49052535  1
  O2-  O398  1  0.33176080  0.15324684  0.81497733  1
  O2-  O399  1  0.33203524  0.41053574  0.14042763  1
  O2-  O400  1  0.31148076  0.45441624  0.47129175  1
  O2-  O401  1  0.32901863  0.42371374  0.81576981  1
  O2-  O402  1  0.32614560  0.67157687  0.14661437  1
  O2-  O403  1  0.33251277  0.67863448  0.47235110  1
  O2-  O404  1  0.33215790  0.65344771  0.82597614  1
  O2-  O405  1  0.32312621  0.92938159  0.15524501  1
  O2-  O406  1  0.32218404  0.91799663  0.48156648  1
  O2-  O407  1  0.33265102  0.91257833  0.85212933  1
  O2-  O408  1  0.56219834  0.18165918  0.14087719  1
  O2-  O409  1  0.58809630  0.17657167  0.49343446  1
  O2-  O410  1  0.57979055  0.16741793  0.80912937  1
  O2-  O411  1  0.59763914  0.43363509  0.13862364  1
  O2-  O412  1  0.58829170  0.43447552  0.49025503  1
  O2-  O413  1  0.59343728  0.42949545  0.80804425  1
  O2-  O414  1  0.58194205  0.66350223  0.14288992  1
  O2-  O415  1  0.58533867  0.66912166  0.46170892  1
  O2-  O416  1  0.58235635  0.66544875  0.81994595  1
  O2-  O417  1  0.56458311  0.92114819  0.14144776  1
  O2-  O418  1  0.57606552  0.92048708  0.47593035  1
  O2-  O419  1  0.58463999  0.92062014  0.80604341  1
  O2-  O420  1  0.84650854  0.17580673  0.14014656  1
  O2-  O421  1  0.84243491  0.17259825  0.48256996  1
  O2-  O422  1  0.83874819  0.17402491  0.82225164  1
  O2-  O423  1  0.83582434  0.41638806  0.14581258  1
  O2-  O424  1  0.86058691  0.43299656  0.49900109  1
  O2-  O425  1  0.83495911  0.41383078  0.81537021  1
  O2-  O426  1  0.83531167  0.66597610  0.14633413  1
  O2-  O427  1  0.81849376  0.66439410  0.48092032  1
  O2-  O428  1  0.86997402  0.68198875  0.80247939  1
  O2-  O429  1  0.85164970  0.93083562  0.14676884  1
  O2-  O430  1  0.82362367  0.90097613  0.47187808  1
  O2-  O431  1  0.85907424  0.93753586  0.78292457  1
  O2-  O432  1  0.15052268  0.06634721  0.18128593  1
  O2-  O433  1  0.16702664  0.11660838  0.53902174  1
  O2-  O434  1  0.16166851  0.07354873  0.84500868  1
  O2-  O435  1  0.17321336  0.33610575  0.17882682  1
  O2-  O436  1  0.14010734  0.32582139  0.51578161  1
  O2-  O437  1  0.16634684  0.33491638  0.85405861  1
  O2-  O438  1  0.15230424  0.57407720  0.19557990  1
  O2-  O439  1  0.17188353  0.58255664  0.50800465  1
  O2-  O440  1  0.16414819  0.58581759  0.86981331  1
  O2-  O441  1  0.16028908  0.82221317  0.19868692  1
  O2-  O442  1  0.16044973  0.82906319  0.53056364  1
  O2-  O443  1  0.18519126  0.84009921  0.80009084  1
  O2-  O444  1  0.39119024  0.09279362  0.19548263  1
  O2-  O445  1  0.44997955  0.05734332  0.54199008  1
  O2-  O446  1  0.42063331  0.07500562  0.85481180  1
  O2-  O447  1  0.43133282  0.34224741  0.18606921  1
  O2-  O448  1  0.47820499  0.31487314  0.55226436  1
  O2-  O449  1  0.36677595  0.30408110  0.87038395  1
  O2-  O450  1  0.40869122  0.58023201  0.17962080  1
  O2-  O451  1  0.42622198  0.61255314  0.51753874  1
  O2-  O452  1  0.42083343  0.58121843  0.86504164  1
  O2-  O453  1  0.41054567  0.84392474  0.17884325  1
  O2-  O454  1  0.40804149  0.84183062  0.51454229  1
  O2-  O455  1  0.41426297  0.82960445  0.84962835  1
  O2-  O456  1  0.67923919  0.07463092  0.19128537  1
  O2-  O457  1  0.66105198  0.08853036  0.50691346  1
  O2-  O458  1  0.66416833  0.08960326  0.83927797  1
  O2-  O459  1  0.67205786  0.34801451  0.18051662  1
  O2-  O460  1  0.69291083  0.36524013  0.51861001  1
  O2-  O461  1  0.66961527  0.33284397  0.85372832  1
  O2-  O462  1  0.67357307  0.59102382  0.18897838  1
  O2-  O463  1  0.66607358  0.59255154  0.52259966  1
  O2-  O464  1  0.67070908  0.59052838  0.85135441  1
  O2-  O465  1  0.69222200  0.82470328  0.18692942  1
  O2-  O466  1  0.66651318  0.83488770  0.51812519  1
  O2-  O467  1  0.65688430  0.82300912  0.85449824  1
  O2-  O468  1  0.91977945  0.09222318  0.18653357  1
  O2-  O469  1  0.90331970  0.06091451  0.50520061  1
  O2-  O470  1  0.90753163  0.07579201  0.85520355  1
  O2-  O471  1  0.91714669  0.33289632  0.18946693  1
  O2-  O472  1  0.93143980  0.33989649  0.53147470  1
  O2-  O473  1  0.91789230  0.33674699  0.86301377  1
  O2-  O474  1  0.91132874  0.57709460  0.19608358  1
  O2-  O475  1  0.96658259  0.60256520  0.54592956  1
  O2-  O476  1  0.91327390  0.57147854  0.86305780  1
  O2-  O477  1  0.91370989  0.82965956  0.18572722  1
  O2-  O478  1  0.90468635  0.82199728  0.51783925  1
  O2-  O479  1  0.91250643  0.84206804  0.84966446  1
  O2-  O480  1  0.16311928  0.05755642  0.30785990  1
  O2-  O481  1  0.16179108  0.06271371  0.66230003  1
  O2-  O482  1  0.17667984  0.08752940  0.96646965  1
  O2-  O483  1  0.16580661  0.33480647  0.30330025  1
  O2-  O484  1  0.15360780  0.35127729  0.64580669  1
  O2-  O485  1  0.17565025  0.33133986  0.92053640  1
  O2-  O486  1  0.14458314  0.57064613  0.31596299  1
  O2-  O487  1  0.19259005  0.65171905  0.64060911  1
  O2-  O488  1  0.17828872  0.65466661  0.97719961  1
  O2-  O489  1  0.15463424  0.81230348  0.32358808  1
  O2-  O490  1  0.15944923  0.83130829  0.65983889  1
  O2-  O491  1  0.15852954  0.78708754  1.01300716  1
  O2-  O492  1  0.31809960  0.06503455  0.30395379  1
  O2-  O493  1  0.41316851  0.07879338  0.64949412  1
  O2-  O494  1  0.41093176  0.09149797  0.97348539  1
  O2-  O495  1  0.42804047  0.35280953  0.30131529  1
  O2-  O496  1  0.41342714  0.37003939  0.62828348  1
  O2-  O497  1  0.42724344  0.34489444  0.98414230  1
  O2-  O498  1  0.40126313  0.56931521  0.30680507  1
  O2-  O499  1  0.43558481  0.61017955  0.64711368  1
  O2-  O500  1  0.41479591  0.57563867  0.98678593  1
  O2-  O501  1  0.39284773  0.82207126  0.29406644  1
  O2-  O502  1  0.43187114  0.84557863  0.64433020  1
  O2-  O503  1  0.43305604  0.81456481  0.96702702  1
  O2-  O504  1  0.70861967  0.03062406  0.31087215  1
  O2-  O505  1  0.63994134  0.07954333  0.62844325  1
  O2-  O506  1  0.69024246  0.08431448  0.96835421  1
  O2-  O507  1  0.69193935  0.38193784  0.30598601  1
  O2-  O508  1  0.66056939  0.34204696  0.64642236  1
  O2-  O509  1  0.67648633  0.35197072  0.97382084  1
  O2-  O510  1  0.66662997  0.57994651  0.31042725  1
  O2-  O511  1  0.65121823  0.57761292  0.64789877  1
  O2-  O512  1  0.67532866  0.59564724  0.97902059  1
  O2-  O513  1  0.67850214  0.87192809  0.31828428  1
  O2-  O514  1  0.70751706  0.86733780  0.65881388  1
  O2-  O515  1  0.67946223  0.83630131  0.97651788  1
  O2-  O516  1  0.93238265  0.08762172  0.31190547  1
  O2-  O517  1  0.94174943  0.07645420  0.68428449  1
  O2-  O518  1  0.91591153  0.07793609  0.97993325  1
  O2-  O519  1  0.91787513  0.32618150  0.31463623  1
  O2-  O520  1  0.93598172  0.33594992  0.65543568  1
  O2-  O521  1  0.92053198  0.32879865  0.98501132  1
  O2-  O522  1  0.90463055  0.57246304  0.31918201  1
  O2-  O523  1  0.82915390  0.49313519  0.67911517  1
  O2-  O524  1  0.93844299  0.58310058  0.98501355  1
  O2-  O525  1  0.91688930  0.82299422  0.31352484  1
  O2-  O526  1  0.89899505  0.83197383  0.64423924  1
  O2-  O527  1  0.92072787  0.83652145  0.97695632  1
  O2-  O528  1  0.08262629  0.16900309  -0.01678109  1
  O2-  O529  1  0.10105322  0.16821149  0.34522078  1
  O2-  O530  1  0.11661001  0.18090148  0.63501849  1
  O2-  O531  1  0.08377305  0.42546557  0.01730072  1
  O2-  O532  1  0.07792810  0.41945120  0.35152433  1
  O2-  O533  1  0.07875523  0.41798412  0.70185017  1
  O2-  O534  1  0.10370422  0.59088976  0.01344859  1
  O2-  O535  1  0.08158542  0.65344146  0.36351697  1
  O2-  O536  1  0.03710187  0.64382564  0.65584057  1
  O2-  O537  1  0.09171196  0.92011025  -0.00462582  1
  O2-  O538  1  0.07644393  0.89872963  0.36026895  1
  O2-  O539  1  0.06277165  0.90165296  0.69400889  1
  O2-  O540  1  0.33319409  0.17910248  0.01480738  1
  O2-  O541  1  0.33063535  0.19449630  0.36689748  1
  O2-  O542  1  0.31853364  0.15064224  0.69199348  1
  O2-  O543  1  0.35231426  0.42550676  0.02475622  1
  O2-  O544  1  0.33129295  0.39897406  0.35101102  1
  O2-  O545  1  0.35860749  0.44343295  0.70317386  1
  O2-  O546  1  0.32356404  0.66631249  0.01849482  1
  O2-  O547  1  0.32805084  0.66151348  0.35111056  1
  O2-  O548  1  0.35526946  0.69336363  0.67175141  1
  O2-  O549  1  0.27626768  0.95312101  0.04079319  1
  O2-  O550  1  0.31999995  0.92933756  0.36212468  1
  O2-  O551  1  0.34210315  0.92022914  0.69036051  1
  O2-  O552  1  0.58466201  0.20169050  0.02044471  1
  O2-  O553  1  0.58071737  0.25852801  0.39526279  1
  O2-  O554  1  0.57619561  0.17735962  0.68783962  1
  O2-  O555  1  0.59189672  0.42790451  0.01486456  1
  O2-  O556  1  0.57061876  0.40942482  0.34737414  1
  O2-  O557  1  0.59365995  0.42464411  0.68803140  1
  O2-  O558  1  0.57981190  0.66617715  0.01920251  1
  O2-  O559  1  0.57228966  0.64988273  0.33897490  1
  O2-  O560  1  0.58844960  0.67428351  0.69352483  1
  O2-  O561  1  0.59850945  0.91492939  0.02033796  1
  O2-  O562  1  0.54272355  0.90056445  0.35631231  1
  O2-  O563  1  0.58892283  0.93004402  0.67959848  1
  O2-  O564  1  0.86433861  0.17715975  0.02805036  1
  O2-  O565  1  0.84864992  0.16365662  0.35989397  1
  O2-  O566  1  0.86758400  0.17157766  0.69982655  1
  O2-  O567  1  0.83953593  0.41864673  0.02295599  1
  O2-  O568  1  0.85266129  0.41317284  0.36811814  1
  O2-  O569  1  0.82352319  0.41797105  0.69551129  1
  O2-  O570  1  0.84881787  0.67196490  0.02079240  1
  O2-  O571  1  0.82722089  0.65600213  0.36352394  1
  O2-  O572  1  0.81707886  0.66804819  0.69341266  1
  O2-  O573  1  0.82591693  0.88459360  0.03219827  1
  O2-  O574  1  0.84928006  0.91783147  0.34744915  1
  O2-  O575  1  0.80019479  0.90912701  0.67393602  1
