# generated using pymatgen
data_H2O
_symmetry_space_group_name_H-M   'P 1'
_cell_length_a   17.99929023
_cell_length_b   18.00184845
_cell_length_c   22.01636983
_cell_angle_alpha   89.99973761
_cell_angle_beta   89.97441339
_cell_angle_gamma   120.00040022
_symmetry_Int_Tables_number   1
_chemical_formula_structural   H2O
_chemical_formula_sum   'H384 O192'
_cell_volume   6177.98735204
_cell_formula_units_Z   192
loop_
 _symmetry_equiv_pos_site_id
 _symmetry_equiv_pos_as_xyz
  1  'x, y, z'
loop_
 _atom_type_symbol
 _atom_type_oxidation_number
  H+  1.0
  O2-  -2.0
loop_
 _atom_site_type_symbol
 _atom_site_label
 _atom_site_symmetry_multiplicity
 _atom_site_fract_x
 _atom_site_fract_y
 _atom_site_fract_z
 _atom_site_occupancy
  H+  H0  1  0.62751962  0.25348818  0.64785929  1
  H+  H1  1  0.09919200  0.86614718  0.36083909  1
  H+  H2  1  0.63350852  0.34265945  0.49210801  1
  H+  H3  1  0.37404413  0.92880293  0.51641833  1
  H+  H4  1  0.74939257  0.10990443  0.16286564  1
  H+  H5  1  0.14012419  0.11058272  0.66094819  1
  H+  H6  1  0.87668461  0.63251798  1.00462028  1
  H+  H7  1  0.39704531  0.65752861  0.02486398  1
  H+  H8  1  0.12920072  0.26817368  0.82502900  1
  H+  H9  1  0.33647168  0.92519762  -0.06134511  1
  H+  H10  1  0.76130804  0.37451829  0.64408349  1
  H+  H11  1  1.03537656  0.23822184  0.21060807  1
  H+  H12  1  0.10230448  0.87189915  0.12688249  1
  H+  H13  1  0.11147679  0.97126923  0.49773632  1
  H+  H14  1  0.16814131  0.82648500  0.29742800  1
  H+  H15  1  0.86222749  0.88775649  0.35376427  1
  H+  H16  1  0.07113269  0.41274657  0.39764758  1
  H+  H17  1  0.72066540  0.36151901  0.27226266  1
  H+  H18  1  0.86620639  0.24213700  0.14677903  1
  H+  H19  1  0.13581274  0.01828167  0.65925915  1
  H+  H20  1  0.13677639  0.61694394  0.33546789  1
  H+  H21  1  0.71261467  0.58666541  0.17933289  1
  H+  H22  1  0.11116957  0.89164774  0.82192903  1
  H+  H23  1  0.77206684  0.37824951  0.33438293  1
  H+  H24  1  0.11451057  0.84095280  0.65314096  1
  H+  H25  1  0.83087514  0.92913676  0.44979329  1
  H+  H26  1  0.61254530  0.12796672  0.81434442  1
  H+  H27  1  0.77082188  0.39584291  0.99855208  1
  H+  H28  1  0.26919609  0.37587795  0.83141957  1
  H+  H29  1  0.62853546  0.59477658  0.18269313  1
  H+  H30  1  0.86603288  0.20287582  -0.00475771  1
  H+  H31  1  0.39056824  0.02413798  0.60568751  1
  H+  H32  1  0.41419116  0.57568141  0.93208764  1
  H+  H33  1  0.12521125  0.08177921  0.99008724  1
  H+  H34  1  0.52959560  0.13672808  0.81820025  1
  H+  H35  1  0.40137486  0.36240477  0.00270102  1
  H+  H36  1  0.86781748  0.41852224  -0.00870915  1
  H+  H37  1  0.34896203  0.21542374  1.01095628  1
  H+  H38  1  0.79575078  0.88890449  0.15267107  1
  H+  H39  1  0.61258883  0.67876101  0.33179886  1
  H+  H40  1  0.76613675  0.88299810  0.67189303  1
  H+  H41  1  0.62524671  0.21571646  0.44467662  1
  H+  H42  1  0.15508494  0.04344960  0.22591747  1
  H+  H43  1  0.51754357  0.11740769  0.66360901  1
  H+  H44  1  0.21830539  0.36573282  0.66722579  1
  H+  H45  1  0.11885258  0.63747180  0.16266934  1
  H+  H46  1  0.01964927  0.65168787  0.00991186  1
  H+  H47  1  0.73146962  0.44904758  0.86715736  1
  H+  H48  1  1.02757331  0.14911165  0.35377644  1
  H+  H49  1  0.25141430  0.14609197  0.34338358  1
  H+  H50  1  0.62370899  0.22626517  -0.00701626  1
  H+  H51  1  0.32965714  0.91301323  0.72302244  1
  H+  H52  1  0.63750066  0.10900456  0.65785060  1
  H+  H53  1  0.94555862  0.91075334  0.59038106  1
  H+  H54  1  0.77016957  0.37937038  0.80781073  1
  H+  H55  1  0.88567339  0.02324088  0.34064627  1
  H+  H56  1  0.59683013  0.43530686  0.34236423  1
  H+  H57  1  0.91455467  0.55249733  0.85978709  1
  H+  H58  1  0.59979561  0.45340574  0.67290408  1
  H+  H59  1  0.62514962  0.34060022  0.64453875  1
  H+  H60  1  0.54876374  0.27609121  0.33465893  1
  H+  H61  1  0.34487340  0.47323285  0.17074093  1
  H+  H62  1  0.85048797  0.84241211  0.14710237  1
  H+  H63  1  0.37578410  0.36389355  0.33450016  1
  H+  H64  1  0.11350231  0.72493433  0.35825116  1
  H+  H65  1  0.35531602  0.98127739  0.34410880  1
  H+  H66  1  0.88744948  0.02251906  0.68055637  1
  H+  H67  1  0.27741414  0.64206077  0.17395607  1
  H+  H68  1  0.08957863  0.17865117  0.00062613  1
  H+  H69  1  0.40097045  0.48989050  0.01712878  1
  H+  H70  1  0.36154776  0.22087045  0.82234301  1
  H+  H71  1  0.36500337  0.63845695  0.17863708  1
  H+  H72  1  0.64310700  0.31245388  0.19675940  1
  H+  H73  1  0.06633720  0.28428477  0.97427191  1
  H+  H74  1  0.51448405  0.37353626  0.82645193  1
  H+  H75  1  0.33411076  0.16118831  0.72658677  1
  H+  H76  1  0.89019558  0.24281118  0.48863329  1
  H+  H77  1  0.61476013  0.97609319  0.67145221  1
  H+  H78  1  0.18093522  0.58264127  1.00555548  1
  H+  H79  1  0.75597582  0.60060908  0.48387069  1
  H+  H80  1  0.98621566  0.44156302  0.92694298  1
  H+  H81  1  0.48673033  0.60326728  0.33284271  1
  H+  H82  1  0.28081428  0.63191504  0.85145858  1
  H+  H83  1  0.89280551  0.77458560  0.83418196  1
  H+  H84  1  0.60159387  0.70982033  0.18114597  1
  H+  H85  1  0.85168362  0.51403109  0.65790243  1
  H+  H86  1  1.08430700  0.43625380  0.76892709  1
  H+  H87  1  0.36299534  0.48592864  0.68053522  1
  H+  H88  1  0.14476879  0.64461636  -0.00840590  1
  H+  H89  1  0.52159433  0.37542170  0.49788355  1
  H+  H90  1  0.61668918  0.57330411  0.33522934  1
  H+  H91  1  0.45760592  0.35928606  0.17592733  1
  H+  H92  1  0.57650535  0.63611033  0.02069587  1
  H+  H93  1  0.16367600  0.31905851  0.98807126  1
  H+  H94  1  0.63511157  0.00623447  0.82945871  1
  H+  H95  1  0.98216232  0.61709459  0.16861211  1
  H+  H96  1  0.11235094  0.39961393  0.82319140  1
  H+  H97  1  0.62714943  0.14416306  0.39947429  1
  H+  H98  1  0.35811141  0.47403417  0.50242927  1
  H+  H99  1  0.48674334  0.87437307  -0.00427423  1
  H+  H100  1  0.77403257  0.88901642  0.35381015  1
  H+  H101  1  0.52905408  0.62960828  0.82657448  1
  H+  H102  1  0.26963190  0.38613366  0.50275262  1
  H+  H103  1  0.87342249  0.23822845  0.65668355  1
  H+  H104  1  0.63627744  0.77130414  0.65907861  1
  H+  H105  1  0.57847503  0.40133967  0.05955905  1
  H+  H106  1  1.03051798  0.13566147  0.67757746  1
  H+  H107  1  0.15536275  0.33251223  0.24389116  1
  H+  H108  1  0.61072660  0.87819420  0.82038332  1
  H+  H109  1  0.13615222  0.27965412  0.33590431  1
  H+  H110  1  0.11381052  0.13309655  0.82634942  1
  H+  H111  1  0.32990190  0.55224300  0.96485629  1
  H+  H112  1  0.39990525  0.62963205  0.54615858  1
  H+  H113  1  0.35206497  0.12118462  0.15978120  1
  H+  H114  1  0.85136975  0.20105046  0.82273750  1
  H+  H115  1  0.38963145  0.07869762  0.23525039  1
  H+  H116  1  0.01288658  0.39407999  0.16841407  1
  H+  H117  1  0.61553663  0.91169932  0.34915797  1
  H+  H118  1  0.66773865  0.09728333  0.19874699  1
  H+  H119  1  1.00954557  0.86135955  0.14592495  1
  H+  H120  1  0.62983301  0.79585759  0.35189750  1
  H+  H121  1  0.60339837  0.84331500  0.18609461  1
  H+  H122  1  0.73717798  0.61071410  0.81444930  1
  H+  H123  1  0.35335719  0.00468392  0.50442447  1
  H+  H124  1  0.75511892  0.13247866  0.35896856  1
  H+  H125  1  0.62741857  0.85021028  0.50564688  1
  H+  H126  1  0.13293218  0.79068765  0.99667832  1
  H+  H127  1  0.19479347  0.46733494  0.04763480  1
  H+  H128  1  0.22809735  0.11098763  0.83412508  1
  H+  H129  1  0.27156519  0.12895853  0.66797957  1
  H+  H130  1  0.47453313  0.85832333  0.84088696  1
  H+  H131  1  0.09616810  0.16823280  0.73087293  1
  H+  H132  1  0.63540102  0.34983489  0.98933034  1
  H+  H133  1  0.39343225  0.51435112  0.84298010  1
  H+  H134  1  0.62364702  0.59929090  0.49611375  1
  H+  H135  1  0.97909012  0.86388594  0.83375515  1
  H+  H136  1  0.48291334  0.88105199  0.33424395  1
  H+  H137  1  0.22615137  0.86769576  0.51627819  1
  H+  H138  1  0.11068187  0.39180936  0.67273440  1
  H+  H139  1  0.75591948  0.10329039  0.82417385  1
  H+  H140  1  0.98328524  0.87022764  0.33148145  1
  H+  H141  1  0.12660547  0.35353855  0.51337735  1
  H+  H142  1  0.39288597  0.03428859  0.98385499  1
  H+  H143  1  0.14265772  0.79221041  0.84390401  1
  H+  H144  1  0.02947082  0.13252526  0.15991013  1
  H+  H145  1  0.64626470  0.38389980  0.83467910  1
  H+  H146  1  0.39252874  0.03049181  0.84742083  1
  H+  H147  1  0.06758156  0.65491144  0.40952934  1
  H+  H148  1  0.83252441  0.70202765  0.33832075  1
  H+  H149  1  0.49917653  0.36244177  0.34635493  1
  H+  H150  1  0.85667108  0.10787514  0.82491491  1
  H+  H151  1  0.72605117  0.85638647  0.83739319  1
  H+  H152  1  0.08647120  0.45827351  0.49102749  1
  H+  H153  1  0.60261047  0.38566809  0.15389504  1
  H+  H154  1  0.23669250  0.86851397  0.35114286  1
  H+  H155  1  0.85321445  0.25461978  0.31778742  1
  H+  H156  1  0.15238864  0.81813738  0.56364843  1
  H+  H157  1  0.40380336  0.78536858  0.00515293  1
  H+  H158  1  0.86737938  0.43879150  0.78921770  1
  H+  H159  1  0.36932372  0.73751836  0.33067986  1
  H+  H160  1  0.14417194  0.11446264  0.50796243  1
  H+  H161  1  0.16241750  0.56857995  0.54432430  1
  H+  H162  1  1.03811645  0.66288663  0.83894263  1
  H+  H163  1  0.47130938  0.34341844  0.65674374  1
  H+  H164  1  0.25148993  0.41757810  1.00995314  1
  H+  H165  1  0.12087420  0.75518908  0.65754969  1
  H+  H166  1  0.91373462  0.13680524  0.50388958  1
  H+  H167  1  0.13568337  0.53054606  0.18520445  1
  H+  H168  1  0.38169785  0.63993665  0.63718342  1
  H+  H169  1  0.60804749  0.55954718  0.95179215  1
  H+  H170  1  0.37007927  0.98810186  0.15115569  1
  H+  H171  1  0.89439790  0.37054948  0.63249544  1
  H+  H172  1  0.88755021  0.61201801  0.31992572  1
  H+  H173  1  0.91445096  0.04981774  0.51597647  1
  H+  H174  1  0.61068855  0.88500994  0.66884126  1
  H+  H175  1  0.37603507  0.24486687  0.65824608  1
  H+  H176  1  0.33240443  0.41096543  0.77589934  1
  H+  H177  1  0.12397154  0.99845922  0.16026657  1
  H+  H178  1  0.22562405  0.36918537  0.33383931  1
  H+  H179  1  0.39409940  0.60487979  0.84955318  1
  H+  H180  1  0.65102619  0.10669878  0.31694932  1
  H+  H181  1  0.75211967  0.60634387  0.33566900  1
  H+  H182  1  0.88170239  0.74953631  0.17332966  1
  H+  H183  1  0.47781131  0.86376909  0.65129075  1
  H+  H184  1  0.14436145  0.64688258  0.70827460  1
  H+  H185  1  0.64673600  0.61309723  0.82086823  1
  H+  H186  1  0.20689752  0.59804029  0.48006899  1
  H+  H187  1  0.03881409  0.90025344  0.05998379  1
  H+  H188  1  0.35936996  0.13261578  1.00810637  1
  H+  H189  1  0.85807258  0.02725816  0.15152501  1
  H+  H190  1  0.62489365  0.97258962  0.50125161  1
  H+  H191  1  0.01747106  0.88844733  0.66223111  1
  H+  H192  1  0.89431566  0.40824358  0.35305687  1
  H+  H193  1  0.62548688  0.63597812  0.67764332  1
  H+  H194  1  0.86239550  0.87781836  0.82601101  1
  H+  H195  1  0.38318870  0.35194075  0.84445239  1
  H+  H196  1  0.87104539  0.64121961  0.81697287  1
  H+  H197  1  0.47157519  0.33762457  0.99296504  1
  H+  H198  1  0.84861190  0.13312450  0.34887210  1
  H+  H199  1  0.98418606  0.37699429  0.64903575  1
  H+  H200  1  0.24657798  0.38121456  0.03040540  1
  H+  H201  1  0.88215989  1.00660212  0.83383798  1
  H+  H202  1  0.40647154  0.31500541  0.59531837  1
  H+  H203  1  0.64173864  0.10935113  0.98123891  1
  H+  H204  1  0.11253376  0.44300258  0.01066955  1
  H+  H205  1  0.73307449  0.38986124  0.17202364  1
  H+  H206  1  0.75896314  0.69579630  0.56069506  1
  H+  H207  1  0.38341958  0.72909404  0.62297779  1
  H+  H208  1  0.64116112  0.77933944  0.99757627  1
  H+  H209  1  0.35179064  0.84668963  0.69814759  1
  H+  H210  1  0.36589116  0.89810397  0.34545164  1
  H+  H211  1  0.42532018  0.83428047  0.90494666  1
  H+  H212  1  -0.01982405  0.63179997  0.53288868  1
  H+  H213  1  0.87975725  0.08608059  -0.00682860  1
  H+  H214  1  0.87872131  0.36727890  0.16403916  1
  H+  H215  1  0.27952625  0.64698270  0.32825220  1
  H+  H216  1  0.12006512  0.72634375  0.15181700  1
  H+  H217  1  0.37981651  0.26385752  0.51077138  1
  H+  H218  1  0.85905263  -0.03874905  1.00257993  1
  H+  H219  1  0.37746453  0.35336459  0.51147843  1
  H+  H220  1  0.22291763  0.87470725  0.98939976  1
  H+  H221  1  0.74406861  0.11209948  0.50995346  1
  H+  H222  1  0.13272172  0.23168442  0.49948404  1
  H+  H223  1  0.36370023  0.48013785  0.34762947  1
  H+  H224  1  0.59755970  0.71070941  0.48487549  1
  H+  H225  1  0.36119451  0.88781689  0.85161921  1
  H+  H226  1  0.38159032  0.08760107  0.65043315  1
  H+  H227  1  0.12419809  0.65675670  0.83516396  1
  H+  H228  1  0.90534769  0.60346335  0.60401544  1
  H+  H229  1  0.14023280  0.52978710  0.33262686  1
  H+  H230  1  0.17011405  0.60079493  0.90236882  1
  H+  H231  1  0.12233256  0.36477700  0.18781614  1
  H+  H232  1  0.48107697  0.12337488  -0.00985758  1
  H+  H233  1  0.12414355  0.98019364  0.32659301  1
  H+  H234  1  0.17729958  0.85625815  0.19792221  1
  H+  H235  1  0.72876575  0.10557865  0.98522383  1
  H+  H236  1  0.66963938  0.56586054  0.72747984  1
  H+  H237  1  0.95357398  0.22152162  0.24611216  1
  H+  H238  1  0.46831219  0.59954691  0.18123028  1
  H+  H239  1  0.46689375  0.61936690  0.49984995  1
  H+  H240  1  0.89409658  0.49600235  0.34689536  1
  H+  H241  1  0.85733252  0.62324327  0.15639330  1
  H+  H242  1  0.39120255  0.77994568  0.17895085  1
  H+  H243  1  0.56171167  0.21382243  0.25941220  1
  H+  H244  1  0.21242262  0.07956249  -0.00704580  1
  H+  H245  1  0.82605697  0.72846210  0.00640668  1
  H+  H246  1  0.59143429  0.46400399  0.14957974  1
  H+  H247  1  0.36405764  0.13404299  0.81975907  1
  H+  H248  1  0.11623368  0.39520764  0.34251985  1
  H+  H249  1  0.73058284  0.11594398  0.65865312  1
  H+  H250  1  0.52557543  0.88902752  0.15655368  1
  H+  H251  1  0.87767442  1.03529631  0.12032749  1
  H+  H252  1  0.39992798  0.61661425  0.32898164  1
  H+  H253  1  0.25148886  0.10820393  0.15554017  1
  H+  H254  1  0.44537462  0.12873803  0.31744041  1
  H+  H255  1  0.46540477  0.12888537  0.18923150  1
  H+  H256  1  0.96613440  0.07874422  0.99270695  1
  H+  H257  1  1.04210167  0.14706231  0.49741421  1
  H+  H258  1  0.13410544  0.27177880  0.66444525  1
  H+  H259  1  0.61663374  1.00374220  0.36099008  1
  H+  H260  1  0.27500004  0.89578209  0.85368540  1
  H+  H261  1  0.95864770  0.36648137  0.97259604  1
  H+  H262  1  0.74730464  0.63385300  0.99218989  1
  H+  H263  1  0.12056218  0.48392256  0.66382217  1
  H+  H264  1  0.11010403  0.88181395  0.49714517  1
  H+  H265  1  0.96357620  0.84556589  -0.05925312  1
  H+  H266  1  0.23587083  0.87379780  0.14164212  1
  H+  H267  1  0.89583790  0.11412408  0.66846444  1
  H+  H268  1  0.34191087  0.63406163  0.47393962  1
  H+  H269  1  0.62163721  -0.02124236  1.00417756  1
  H+  H270  1  0.02199342  0.12734509  0.82218222  1
  H+  H271  1  0.10201486  0.10679978  0.15682233  1
  H+  H272  1  0.49595494  0.60656794  0.65950978  1
  H+  H273  1  0.87359943  0.54225869  0.99879277  1
  H+  H274  1  0.09847617  0.62486450  0.49478028  1
  H+  H275  1  0.39371174  0.86945129  0.16939942  1
  H+  H276  1  0.85707696  0.31862494  0.81390984  1
  H+  H277  1  0.79164712  0.96964283  0.49275029  1
  H+  H278  1  0.78220058  0.39009879  0.50038476  1
  H+  H279  1  0.37268469  0.36481372  0.18141561  1
  H+  H280  1  0.38116777  0.79144804  0.49301569  1
  H+  H281  1  0.60990889  0.45142364  -0.00496865  1
  H+  H282  1  0.71238937  0.84288961  0.50986263  1
  H+  H283  1  0.28950655  0.47615331  0.72269458  1
  H+  H284  1  0.63919988  0.86851668  -0.00596687  1
  H+  H285  1  0.37142227  0.71754899  0.85357393  1
  H+  H286  1  0.07803280  0.95513562  -0.00689163  1
  H+  H287  1  0.88517327  0.61983223  0.52142117  1
  H+  H288  1  0.92041170  0.82234888  0.22667507  1
  H+  H289  1  0.67122127  0.56232867  0.90310818  1
  H+  H290  1  0.68114299  0.07897365  0.56708239  1
  H+  H291  1  0.43637003  0.56614141  0.60020574  1
  H+  H292  1  0.88270025  0.81233577  0.59666487  1
  H+  H293  1  0.84190526  0.64514584  0.74821491  1
  H+  H294  1  0.82221864  0.88451275  0.06099525  1
  H+  H295  1  0.41259820  0.32002562  0.90275978  1
  H+  H296  1  0.84060874  0.16212731  0.06123574  1
  H+  H297  1  0.57951783  0.90904509  0.76130572  1
  H+  H298  1  0.65566338  0.30017869  0.54539303  1
  H+  H299  1  0.42836739  0.85353368  0.27189265  1
  H+  H300  1  0.11031007  0.72006332  0.49726101  1
  H+  H301  1  0.54113776  0.76795469  0.22828936  1
  H+  H302  1  0.08774300  0.67232294  0.74279308  1
  H+  H303  1  0.60695575  0.18356665  0.21054851  1
  H+  H304  1  0.59999138  0.46433891  0.81230341  1
  H+  H305  1  0.34449037  0.22877212  0.33661101  1
  H+  H306  1  0.40383513  0.33515384  0.27270297  1
  H+  H307  1  0.67490916  0.33749759  0.92745602  1
  H+  H308  1  0.66857327  0.06960522  0.88892565  1
  H+  H309  1  0.90947335  0.06353051  0.89447845  1
  H+  H310  1  0.42757533  0.10532556  0.89398222  1
  H+  H311  1  0.75945749  0.87431847  -0.00009170  1
  H+  H312  1  0.56465909  0.38617833  0.72583826  1
  H+  H313  1  0.21981854  0.03361338  0.30467940  1
  H+  H314  1  0.95928397  0.92492736  0.28948756  1
  H+  H315  1  0.06622491  0.12428916  0.06333876  1
  H+  H316  1  0.92301937  0.58731249  0.22831307  1
  H+  H317  1  0.08162865  0.67098657  0.06671816  1
  H+  H318  1  0.37667390  0.43512719  0.07762040  1
  H+  H319  1  0.16493237  0.62636468  0.62639355  1
  H+  H320  1  0.06878307  0.90412501  0.41626315  1
  H+  H321  1  0.37165589  0.89371757  -0.00916207  1
  H+  H322  1  0.83444684  0.42888331  0.09386469  1
  H+  H323  1  0.84403761  0.17811997  0.43439150  1
  H+  H324  1  0.35534262  0.93781994  0.08832167  1
  H+  H325  1  0.16750547  0.07328421  0.89326469  1
  H+  H326  1  0.92277109  0.61560967  0.91170271  1
  H+  H327  1  0.56739073  0.20217855  0.36073177  1
  H+  H328  1  0.85901029  0.44005135  0.45767808  1
  H+  H329  1  0.86990929  0.48579982  0.15431414  1
  H+  H330  1  0.59200142  0.91814895  0.06498677  1
  H+  H331  1  0.25668725  0.38340135  0.16407879  1
  H+  H332  1  0.59428860  0.66683471  0.11703072  1
  H+  H333  1  0.67629818  0.68080417  0.03531724  1
  H+  H334  1  0.35225130  0.11058510  0.32264858  1
  H+  H335  1  0.64748190  0.54645211  0.27421863  1
  H+  H336  1  0.65809107  0.82525341  0.59794429  1
  H+  H337  1  0.56770044  0.64662520  0.42529062  1
  H+  H338  1  0.90284955  0.31574388  0.87479514  1
  H+  H339  1  0.57825577  0.15610471  0.72282727  1
  H+  H340  1  0.82865177  0.90450472  0.76601447  1
  H+  H341  1  0.96627896  0.36126629  0.54780919  1
  H+  H342  1  0.59042655  0.66716220  0.73227546  1
  H+  H343  1  0.89159312  0.32276134  0.22426703  1
  H+  H344  1  0.16787613  0.59435065  0.24156128  1
  H+  H345  1  0.08818326  0.43450327  0.11807796  1
  H+  H346  1  0.66536188  0.83054454  0.89596506  1
  H+  H347  1  0.15859089  0.85005270  0.90362875  1
  H+  H348  1  0.41781132  0.84803991  0.59297175  1
  H+  H349  1  0.16513413  0.07779102  0.56893326  1
  H+  H350  1  0.16311107  0.33397379  0.57374036  1
  H+  H351  1  0.98239322  0.62337282  0.32529446  1
  H+  H352  1  0.92340707  0.09154824  0.28568187  1
  H+  H353  1  0.65167116  0.83288455  0.28511507  1
  H+  H354  1  0.81205672  0.65201227  0.10438380  1
  H+  H355  1  0.84571420  0.18334782  0.71783355  1
  H+  H356  1  0.30168114  0.69868268  0.74011879  1
  H+  H357  1  0.36791498  0.68586784  0.08580941  1
  H+  H358  1  0.89098918  0.17156291  0.15546669  1
  H+  H359  1  0.72732117  0.57952535  0.67126161  1
  H+  H360  1  0.41582395  0.57634805  0.24396880  1
  H+  H361  1  0.85768834  0.88850892  0.66676398  1
  H+  H362  1  0.62634866  0.51243064  0.50245015  1
  H+  H363  1  0.13786967  0.53719942  0.84304735  1
  H+  H364  1  0.33074205  0.41988222  0.40742072  1
  H+  H365  1  0.32311498  0.67141269  0.41534350  1
  H+  H366  1  0.10843343  0.97799162  0.81695277  1
  H+  H367  1  0.80891399  0.30694743  0.29388821  1
  H+  H368  1  0.26582967  0.65297869  0.73775031  1
  H+  H369  1  0.61595910  0.72196798  0.82663344  1
  H+  H370  1  0.62398786  0.96762019  0.15691927  1
  H+  H371  1  0.82247658  0.63084788  0.42835218  1
  H+  H372  1  0.58607423  0.91930321  0.44019008  1
  H+  H373  1  0.14740750  0.31832579  0.88541601  1
  H+  H374  1  0.24994207  0.61908143  0.61934070  1
  H+  H375  1  0.83413761  0.71496556  0.51879643  1
  H+  H376  1  0.31781092  0.14747046  0.09257687  1
  H+  H377  1  0.07254436  0.91012430  0.72410132  1
  H+  H378  1  0.57094878  0.39640521  0.43510922  1
  H+  H379  1  0.09723637  0.17922015  0.40566305  1
  H+  H380  1  0.81565536  0.39351949  0.70382033  1
  H+  H381  1  0.26627588  0.11685280  0.51001011  1
  H+  H382  1  0.59623200  0.16771187  0.05187942  1
  H+  H383  1  0.47638945  0.87066603  0.49964422  1
  O2-  O384  1  0.07322821  0.13265747  0.13371940  1
  O2-  O385  1  0.10408968  0.17220626  0.48318359  1
  O2-  O386  1  0.08301406  0.16235062  0.80991467  1
  O2-  O387  1  0.07686714  0.42599413  0.16205086  1
  O2-  O388  1  0.05864122  0.39391093  0.48513818  1
  O2-  O389  1  0.08618883  0.43525057  0.81393055  1
  O2-  O390  1  0.08647104  0.66412416  0.14346863  1
  O2-  O391  1  0.06892626  0.65842745  0.48715582  1
  O2-  O392  1  0.09604732  0.69001110  0.82072398  1
  O2-  O393  1  0.06320972  0.89596451  0.12056464  1
  O2-  O394  1  0.07776929  0.91072700  0.48369487  1
  O2-  O395  1  0.07730393  0.91690853  0.80352400  1
  O2-  O396  1  0.31350298  0.14272701  0.14011911  1
  O2-  O397  1  0.33285517  0.14902004  0.50955832  1
  O2-  O398  1  0.33120360  0.16203912  0.80441356  1
  O2-  O399  1  0.31736553  0.41566819  0.15079213  1
  O2-  O400  1  0.33091087  0.41360829  0.48892603  1
  O2-  O401  1  0.33165211  0.40381956  0.82082513  1
  O2-  O402  1  0.33969554  0.67337020  0.16299160  1
  O2-  O403  1  0.31303915  0.66554225  0.46068352  1
  O2-  O404  1  0.34328661  0.65382303  0.85544592  1
  O2-  O405  1  0.34339172  0.92972975  0.13199200  1
  O2-  O406  1  0.34164252  0.95598139  0.53143408  1
  O2-  O407  1  0.33747919  0.92498781  0.86460329  1
  O2-  O408  1  0.56823043  0.20640387  0.21267918  1
  O2-  O409  1  0.59289321  0.17090270  0.41406957  1
  O2-  O410  1  0.58774397  0.16252615  0.79979400  1
  O2-  O411  1  0.56557979  0.40454478  0.13277383  1
  O2-  O412  1  0.57979958  0.40519372  0.48029716  1
  O2-  O413  1  0.57212812  0.40147549  0.80539900  1
  O2-  O414  1  0.58258887  0.65392852  0.16081631  1
  O2-  O415  1  0.56194149  0.65006725  0.47163721  1
  O2-  O416  1  0.58928243  0.66213868  0.81009912  1
  O2-  O417  1  0.58534141  0.90756376  0.14196777  1
  O2-  O418  1  0.58761842  0.91179984  0.48554302  1
  O2-  O419  1  0.58165795  0.91030152  0.80722131  1
  O2-  O420  1  0.84884066  0.18129929  0.13297269  1
  O2-  O421  1  0.85515717  0.18091196  0.47970373  1
  O2-  O422  1  0.82252516  0.13595467  0.80895175  1
  O2-  O423  1  0.83511199  0.42536155  0.13879815  1
  O2-  O424  1  0.84349608  0.43413786  0.50091980  1
  O2-  O425  1  0.81895393  0.38077370  0.78463106  1
  O2-  O426  1  0.82115961  0.65060963  0.14838883  1
  O2-  O427  1  0.81831901  0.62610139  0.47309584  1
  O2-  O428  1  0.83770337  0.66054354  0.79252107  1
  O2-  O429  1  0.80701795  0.85264093  0.12578973  1
  O2-  O430  1  0.82087941  0.93634574  0.49341661  1
  O2-  O431  1  0.83013434  0.90669246  0.81186204  1
  O2-  O432  1  0.15702016  0.05497172  0.18064081  1
  O2-  O433  1  0.16858418  0.07797078  0.52345864  1
  O2-  O434  1  0.16710765  0.08189185  0.84874656  1
  O2-  O435  1  0.14069255  0.32287969  0.19914598  1
  O2-  O436  1  0.16695301  0.33527566  0.52821536  1
  O2-  O437  1  0.15860188  0.32839291  0.84157527  1
  O2-  O438  1  0.16944504  0.59294824  0.19564772  1
  O2-  O439  1  0.14905407  0.56408940  0.49993017  1
  O2-  O440  1  0.16903817  0.59850648  0.85671063  1
  O2-  O441  1  0.17381795  0.84320921  0.15472736  1
  O2-  O442  1  0.16361108  0.82649527  0.51808558  1
  O2-  O443  1  0.16627036  0.85285532  0.85817880  1
  O2-  O444  1  0.40260556  0.08490602  0.18916644  1
  O2-  O445  1  0.35960063  0.10564383  0.47364319  1
  O2-  O446  1  0.42398511  0.09492481  0.84947615  1
  O2-  O447  1  0.40288119  0.33580092  0.19810451  1
  O2-  O448  1  0.40795652  0.32331544  0.52706942  1
  O2-  O449  1  0.41578093  0.32281158  0.85735610  1
  O2-  O450  1  0.40976333  0.57743285  0.19784224  1
  O2-  O451  1  0.40676274  0.59057079  0.51797646  1
  O2-  O452  1  0.42921373  0.57502186  0.85645387  1
  O2-  O453  1  0.42520606  0.84329356  0.18783806  1
  O2-  O454  1  0.41499645  0.84942383  0.51046643  1
  O2-  O455  1  0.41689836  0.82859981  0.85996539  1
  O2-  O456  1  0.69307122  0.06613957  0.18035832  1
  O2-  O457  1  0.68425411  0.07255433  0.52258434  1
  O2-  O458  1  0.67179216  0.06873846  0.84357836  1
  O2-  O459  1  0.68008314  0.37593200  0.19507576  1
  O2-  O460  1  0.66124404  0.30800946  0.50084488  1
  O2-  O461  1  0.69931258  0.38883832  0.85495701  1
  O2-  O462  1  0.65177672  0.55616478  0.19249231  1
  O2-  O463  1  0.65838082  0.57488244  0.51231348  1
  O2-  O464  1  0.67420579  0.57649937  0.82694727  1
  O2-  O465  1  0.60126786  0.79893178  0.21565940  1
  O2-  O466  1  0.65073425  0.81243277  0.52065093  1
  O2-  O467  1  0.66451553  0.82693841  0.85098786  1
  O2-  O468  1  0.97316719  0.19356430  0.21729852  1
  O2-  O469  1  0.94814710  0.11214595  0.52163200  1
  O2-  O470  1  0.91022609  0.06801463  0.84945430  1
  O2-  O471  1  0.90615499  0.33389944  0.17887374  1
  O2-  O472  1  0.96813327  0.35948969  0.50217692  1
  O2-  O473  1  0.88597023  0.29019964  0.83413320  1
  O2-  O474  1  0.92097413  0.58659108  0.18249526  1
  O2-  O475  1  0.93018616  0.63168910  0.55306105  1
  O2-  O476  1  0.93055790  0.61204276  0.86675103  1
  O2-  O477  1  0.91674295  0.81331942  0.18193521  1
  O2-  O478  1  0.81517063  0.74308868  0.54896318  1
  O2-  O479  1  0.92104259  0.83143338  0.85406600  1
  O2-  O480  1  0.16342436  0.02737543  0.29776338  1
  O2-  O481  1  0.17019489  0.07983917  0.64582137  1
  O2-  O482  1  0.15420084  0.04997933  0.97452346  1
  O2-  O483  1  0.16542336  0.33995864  0.31833832  1
  O2-  O484  1  0.15938015  0.33312495  0.65032665  1
  O2-  O485  1  0.11447021  0.27590374  0.96435161  1
  O2-  O486  1  0.16901908  0.59085323  0.31688196  1
  O2-  O487  1  0.18487385  0.58557050  0.61940158  1
  O2-  O488  1  0.18297673  0.62379454  0.97566963  1
  O2-  O489  1  0.17097486  0.83160311  0.34135002  1
  O2-  O490  1  0.13995857  0.80882430  0.63457538  1
  O2-  O491  1  0.16089030  0.85060805  0.98163768  1
  O2-  O492  1  0.38536181  0.08241437  0.30653525  1
  O2-  O493  1  0.41105160  0.05455423  0.64485457  1
  O2-  O494  1  0.42047114  0.09798349  0.97689330  1
  O2-  O495  1  0.40198878  0.33006231  0.31851395  1
  O2-  O496  1  0.40852839  0.31076824  0.64238967  1
  O2-  O497  1  0.41019224  0.31669207  0.98295445  1
  O2-  O498  1  0.42255075  0.57896192  0.31617708  1
  O2-  O499  1  0.43486113  0.57147984  0.64464374  1
  O2-  O500  1  0.38931256  0.56926841  0.97420382  1
  O2-  O501  1  0.42292908  0.84789905  0.31663591  1
  O2-  O502  1  0.41775138  0.83017036  0.63579528  1
  O2-  O503  1  0.42544750  0.84180566  0.98325799  1
  O2-  O504  1  0.66450146  0.09196946  0.35630351  1
  O2-  O505  1  0.66947798  0.07833670  0.64698733  1
  O2-  O506  1  0.66995634  0.07641691  0.96772084  1
  O2-  O507  1  0.73229944  0.33272878  0.30584413  1
  O2-  O508  1  0.65671343  0.31259359  0.62933633  1
  O2-  O509  1  0.67185834  0.32638903  0.97196367  1
  O2-  O510  1  0.65134237  0.54620239  0.31929665  1
  O2-  O511  1  0.66624934  0.56381260  0.68300966  1
  O2-  O512  1  0.66039807  0.55619266  0.94844115  1
  O2-  O513  1  0.66908243  0.84692828  0.32867581  1
  O2-  O514  1  0.66265481  0.83111886  0.64335049  1
  O2-  O515  1  0.66930976  0.83692415  0.97825872  1
  O2-  O516  1  0.91407967  0.08519600  0.32961259  1
  O2-  O517  1  0.92760749  0.08528124  0.68095519  1
  O2-  O518  1  0.90511614  0.05201641  0.97665777  1
  O2-  O519  1  0.86456892  0.30631525  0.29280877  1
  O2-  O520  1  0.93010210  0.34354311  0.62513664  1
  O2-  O521  1  0.93596729  0.39065687  0.94323446  1
  O2-  O522  1  0.92524188  0.59028049  0.30455267  1
  O2-  O523  1  0.88424799  0.57943648  0.65573161  1
  O2-  O524  1  0.90650926  0.60462551  0.98703966  1
  O2-  O525  1  0.93469736  0.86610691  0.30427533  1
  O2-  O526  1  0.92218015  0.86559140  0.62104551  1
  O2-  O527  1  0.97477145  0.82966283  0.98211591  1
  O2-  O528  1  0.06375382  0.11954223  0.01687795  1
  O2-  O529  1  0.09000745  0.18178636  0.36085017  1
  O2-  O530  1  0.09472709  0.16887934  0.68559862  1
  O2-  O531  1  0.14442890  0.47453058  0.04649790  1
  O2-  O532  1  0.08779858  0.42835247  0.35501269  1
  O2-  O533  1  0.08497232  0.42797052  0.68424854  1
  O2-  O534  1  0.08062933  0.68005976  0.02190902  1
  O2-  O535  1  0.07638183  0.66181905  0.36426509  1
  O2-  O536  1  0.09739093  0.65791992  0.70074058  1
  O2-  O537  1  0.02057903  0.91311057  0.01525964  1
  O2-  O538  1  0.06604299  0.89585919  0.36893097  1
  O2-  O539  1  0.07640219  0.91266957  0.67882124  1
  O2-  O540  1  0.32098288  0.15375896  0.02496690  1
  O2-  O541  1  0.31235697  0.16604733  0.34789773  1
  O2-  O542  1  0.33390659  0.16103431  0.68090879  1
  O2-  O543  1  0.41202417  0.44928082  0.04036929  1
  O2-  O544  1  0.32929439  0.41920072  0.36225431  1
  O2-  O545  1  0.31299209  0.44220374  0.70548583  1
  O2-  O546  1  0.39405270  0.70465755  0.04496084  1
  O2-  O547  1  0.34080097  0.67534746  0.34164000  1
  O2-  O548  1  0.35600045  0.66604072  0.61146499  1
  O2-  O549  1  0.34022825  0.92653699  -0.01504303  1
  O2-  O550  1  0.33136227  0.92294071  0.36166303  1
  O2-  O551  1  0.32269482  0.85697657  0.73229718  1
  O2-  O552  1  0.59170363  0.16458774  0.00771025  1
  O2-  O553  1  0.54054861  0.21869558  0.32424074  1
  O2-  O554  1  0.57857297  0.15436401  0.67716914  1
  O2-  O555  1  0.58178459  0.39403287  0.01378804  1
  O2-  O556  1  0.55847892  0.37741686  0.35991442  1
  O2-  O557  1  0.56531632  0.39008497  0.68056804  1
  O2-  O558  1  0.62470752  0.68703537  0.03863408  1
  O2-  O559  1  0.57195034  0.62952221  0.35538795  1
  O2-  O560  1  0.59335485  0.66646392  0.68677178  1
  O2-  O561  1  0.59328166  0.91836762  0.01939420  1
  O2-  O562  1  0.57958376  0.93350732  0.36597375  1
  O2-  O563  1  0.58047716  0.91459832  0.68523510  1
  O2-  O564  1  0.83350839  0.14788030  0.01590949  1
  O2-  O565  1  0.82418380  0.16901701  0.36163596  1
  O2-  O566  1  0.84084636  0.17869637  0.67365988  1
  O2-  O567  1  0.83109547  0.43637580  0.01266140  1
  O2-  O568  1  0.87144525  0.44250562  0.37134086  1
  O2-  O569  1  0.82131176  0.41074363  0.66069259  1
  O2-  O570  1  0.78206614  0.67480162  0.02511849  1
  O2-  O571  1  0.81557944  0.64255295  0.34680528  1
  O2-  O572  1  0.82654245  0.60989063  0.67764818  1
  O2-  O573  1  0.82245796  0.89713525  0.01480508  1
  O2-  O574  1  0.83367599  0.91833871  0.37017967  1
  O2-  O575  1  0.82468210  0.90980462  0.69047023  1
