# generated using pymatgen
data_H2O
_symmetry_space_group_name_H-M   'P 1'
_cell_length_a   17.99320009
_cell_length_b   17.99135245
_cell_length_c   21.99998490
_cell_angle_alpha   90.01282971
_cell_angle_beta   90.00559619
_cell_angle_gamma   120.00561722
_symmetry_Int_Tables_number   1
_chemical_formula_structural   H2O
_chemical_formula_sum   'H384 O192'
_cell_volume   6167.37884493
_cell_formula_units_Z   192
loop_
 _symmetry_equiv_pos_site_id
 _symmetry_equiv_pos_as_xyz
  1  'x, y, z'
loop_
 _atom_type_symbol
 _atom_type_oxidation_number
  H+  1.0
  O2-  -2.0
loop_
 _atom_site_type_symbol
 _atom_site_label
 _atom_site_symmetry_multiplicity
 _atom_site_fract_x
 _atom_site_fract_y
 _atom_site_fract_z
 _atom_site_occupancy
  H+  H0  1  0.49370649  0.49514361  0.78114878  1
  H+  H1  1  0.88305889  0.29793601  0.63433185  1
  H+  H2  1  0.15028046  0.31014261  0.45635754  1
  H+  H3  1  0.82076230  0.39904732  0.41721862  1
  H+  H4  1  0.85385018  0.38843214  0.81643760  1
  H+  H5  1  0.76800981  0.21455644  0.40016108  1
  H+  H6  1  0.98341392  0.62385078  0.16095220  1
  H+  H7  1  0.11750706  0.22745837  0.15851914  1
  H+  H8  1  0.68447369  0.09462972  0.56717254  1
  H+  H9  1  0.90859026  0.12556531  0.84250709  1
  H+  H10  1  0.48616437  0.11552347  0.66500914  1
  H+  H11  1  0.88284562  0.77332118  0.18098289  1
  H+  H12  1  0.53817835  0.88940813  0.50027511  1
  H+  H13  1  0.11559095  0.13569431  0.16080442  1
  H+  H14  1  0.36282318  0.63955879  0.49621749  1
  H+  H15  1  0.76835313  0.63883005  0.16340293  1
  H+  H16  1  0.22763825  0.85987756  -0.01734928  1
  H+  H17  1  0.87881938  0.52636310  0.66599475  1
  H+  H18  1  0.85522787  0.72628116  1.00534440  1
  H+  H19  1  0.61736820  0.89708597  1.01739775  1
  H+  H20  1  0.72541401  0.11961729  0.17245342  1
  H+  H21  1  0.86021589  0.64453605  0.15494473  1
  H+  H22  1  0.85389255  0.51162973  0.82160504  1
  H+  H23  1  0.40973138  0.48550513  0.98075490  1
  H+  H24  1  0.69404114  0.35714453  0.57356416  1
  H+  H25  1  0.64863379  0.06756534  0.66665377  1
  H+  H26  1  0.10254944  0.37852088  0.65390631  1
  H+  H27  1  0.65491275  0.02594045  0.51187177  1
  H+  H28  1  -0.02019404  0.85940125  -0.00729548  1
  H+  H29  1  0.38133486  0.24031601  -0.00869453  1
  H+  H30  1  0.64125208  0.61582774  0.99359690  1
  H+  H31  1  0.62915900  0.25473711  0.84267505  1
  H+  H32  1  0.39561812  0.28678188  0.32291126  1
  H+  H33  1  0.64446348  0.37336358  0.31896197  1
  H+  H34  1  0.13420334  0.89087920  0.33529308  1
  H+  H35  1  0.86745246  0.97178776  0.01416499  1
  H+  H36  1  0.09118660  0.15843523  0.38990988  1
  H+  H37  1  0.28366201  0.13037316  0.81742695  1
  H+  H38  1  0.89540929  0.78302063  0.66256850  1
  H+  H39  1  0.38810521  0.87412715  0.32910204  1
  H+  H40  1  0.62494416  0.37135631  0.65998265  1
  H+  H41  1  0.58099838  0.36617981  0.81486837  1
  H+  H42  1  0.84975457  0.12383703  1.01539308  1
  H+  H43  1  0.43310633  0.03737627  0.50782938  1
  H+  H44  1  0.98732179  0.36166698  0.49356908  1
  H+  H45  1  0.23092493  0.85701613  0.15983582  1
  H+  H46  1  0.89139251  0.37068051  0.33766957  1
  H+  H47  1  0.39735618  0.07190985  0.11822600  1
  H+  H48  1  0.88614532  0.22174404  0.49787500  1
  H+  H49  1  0.58071176  0.97718463  0.18943779  1
  H+  H50  1  0.39962243  0.77270026  0.51328374  1
  H+  H51  1  0.72958772  0.37577964  0.16599142  1
  H+  H52  1  0.08196309  0.92242928  0.76483258  1
  H+  H53  1  0.11886022  0.35002036  0.08000657  1
  H+  H54  1  0.52631501  0.13525387  0.83908264  1
  H+  H55  1  0.86545405  0.40150957  0.66945069  1
  H+  H56  1  0.10974258  0.50004149  0.18106783  1
  H+  H57  1  0.46815092  0.84902524  0.99414083  1
  H+  H58  1  0.88547811  0.89603918  0.17175917  1
  H+  H59  1  0.89413954  0.23039234  0.70369211  1
  H+  H60  1  0.27405952  0.38179108  0.33958464  1
  H+  H61  1  0.60995742  0.14520319  0.33770817  1
  H+  H62  1  0.14254466  0.02724656  0.83392556  1
  H+  H63  1  0.85893808  0.06363171  0.61493622  1
  H+  H64  1  0.24445783  0.87352074  0.32747489  1
  H+  H65  1  0.91663455  0.82811502  0.89883619  1
  H+  H66  1  0.89068226  0.34590860  0.99690442  1
  H+  H67  1  0.04382172  0.88591357  0.33277067  1
  H+  H68  1  0.81843925  0.02496785  0.94983843  1
  H+  H69  1  0.63202789  0.83273836  0.66936467  1
  H+  H70  1  0.37145872  0.34364306  0.64267711  1
  H+  H71  1  0.86435329  0.13927395  0.16966488  1
  H+  H72  1  0.08579299  0.91807082  0.43009093  1
  H+  H73  1  0.70589724  0.85787569  0.32365330  1
  H+  H74  1  0.26169278  0.39339397  0.65441437  1
  H+  H75  1  0.64416123  0.15088628  0.49271952  1
  H+  H76  1  0.86321566  0.00783427  0.67007806  1
  H+  H77  1  0.42810501  0.67144443  0.03466582  1
  H+  H78  1  0.37595340  0.35253263  0.49643841  1
  H+  H79  1  0.61522851  0.93653827  0.68051320  1
  H+  H80  1  0.85404283  0.63682479  0.51734560  1
  H+  H81  1  0.34409459  0.47958273  0.80370668  1
  H+  H82  1  0.98678121  0.11906566  0.17568300  1
  H+  H83  1  0.11181707  0.75951897  0.51493098  1
  H+  H84  1  0.85109208  0.37853137  0.00955782  1
  H+  H85  1  0.87550407  0.50994306  -0.02242965  1
  H+  H86  1  0.61628542  0.85473579  0.32684917  1
  H+  H87  1  0.58494513  0.72733829  0.79826474  1
  H+  H88  1  0.13316663  0.61093327  0.51442782  1
  H+  H89  1  0.03833919  0.63987735  0.65797331  1
  H+  H90  1  0.50319575  0.17700593  0.18418594  1
  H+  H91  1  0.62303264  0.16597521  0.68571392  1
  H+  H92  1  0.61255507  0.15224347  0.14670101  1
  H+  H93  1  0.64995630  0.49598942  0.66564616  1
  H+  H94  1  0.72283856  0.61712449  0.54535555  1
  H+  H95  1  0.96639371  0.59417434  0.96749083  1
  H+  H96  1  0.27704297  0.64768963  0.34490227  1
  H+  H97  1  0.27792293  0.38271011  0.80774709  1
  H+  H98  1  0.23618330  0.87350408  0.66084438  1
  H+  H99  1  0.61951065  0.23930087  0.33691916  1
  H+  H100  1  0.43640450  0.68383626  1.00174117  1
  H+  H101  1  0.62539463  0.49617434  1.00327363  1
  H+  H102  1  0.51930354  0.39148160  0.15170018  1
  H+  H103  1  0.19716469  0.84301252  0.49712228  1
  H+  H104  1  0.60827116  0.46275375  0.82497774  1
  H+  H105  1  0.01493028  0.68801611  0.02705794  1
  H+  H106  1  0.39417984  0.00973040  0.84868748  1
  H+  H107  1  0.12224411  0.26320490  0.64320085  1
  H+  H108  1  0.12791288  0.39848559  0.49169032  1
  H+  H109  1  0.71578534  0.36012818  -0.00750459  1
  H+  H110  1  0.86051889  0.96162529  0.48518425  1
  H+  H111  1  0.36584085  0.88011617  -0.01435692  1
  H+  H112  1  0.11798515  0.88305799  0.15787058  1
  H+  H113  1  0.97735598  0.86496028  0.49393258  1
  H+  H114  1  0.02908310  0.88240471  0.16152255  1
  H+  H115  1  0.50315289  0.35097861  0.47254280  1
  H+  H116  1  0.14298562  0.35632776  0.82214947  1
  H+  H117  1  0.34451757  0.71971378  0.16661576  1
  H+  H118  1  0.36570277  0.35457435  -0.00521971  1
  H+  H119  1  0.49248368  0.57249344  0.81326383  1
  H+  H120  1  0.13397797  0.19611278  0.48609430  1
  H+  H121  1  0.40391060  0.82737696  0.23306734  1
  H+  H122  1  0.34870052  0.64315474  0.72642230  1
  H+  H123  1  1.02839567  0.38804833  0.34284650  1
  H+  H124  1  0.98438701  0.33646494  1.00600532  1
  H+  H125  1  0.48695105  0.66810085  0.86539827  1
  H+  H126  1  0.84081039  0.87963148  0.33251228  1
  H+  H127  1  0.53156005  0.61869121  0.33205453  1
  H+  H128  1  0.58353953  0.41332337  0.38677560  1
  H+  H129  1  0.94336574  0.06525895  0.55252678  1
  H+  H130  1  0.32940581  0.10014428  0.03291006  1
  H+  H131  1  0.14122730  0.36209861  0.32091326  1
  H+  H132  1  0.62377988  0.85466950  0.17188947  1
  H+  H133  1  0.88564594  -0.01001227  0.82780673  1
  H+  H134  1  0.85336822  0.72462704  0.82601425  1
  H+  H135  1  0.61712526  0.57497675  0.83543067  1
  H+  H136  1  0.71339003  0.11447915  0.33212935  1
  H+  H137  1  0.88124734  0.27968921  0.33980464  1
  H+  H138  1  0.89310905  0.86262311  0.99695949  1
  H+  H139  1  0.88339893  0.61882018  0.66373895  1
  H+  H140  1  0.14178712  0.02281429  0.17270579  1
  H+  H141  1  0.00386454  0.62231595  0.51234055  1
  H+  H142  1  0.14320805  0.26351438  0.98144151  1
  H+  H143  1  0.37024570  0.22837810  0.66322567  1
  H+  H144  1  0.36475684  0.47745188  0.49722092  1
  H+  H145  1  0.51860107  0.86126373  0.68429057  1
  H+  H146  1  0.37633781  0.17614072  0.17393383  1
  H+  H147  1  0.15403961  0.03098281  0.32684260  1
  H+  H148  1  0.12424088  0.53187347  -0.01109522  1
  H+  H149  1  0.85343195  0.60938201  0.82643896  1
  H+  H150  1  0.36445931  0.38386646  0.34025819  1
  H+  H151  1  0.97884891  0.37642539  0.64762190  1
  H+  H152  1  0.14702956  0.61272595  0.65053017  1
  H+  H153  1  0.10574959  0.60779586  0.98013120  1
  H+  H154  1  0.02392896  0.88946503  0.67135532  1
  H+  H155  1  0.88986408  -0.00381068  0.16904707  1
  H+  H156  1  0.39285556  0.30351637  0.58511386  1
  H+  H157  1  0.76935284  0.87443803  0.68035015  1
  H+  H158  1  0.88418455  0.27566530  0.18188011  1
  H+  H159  1  0.88220099  0.76697301  0.50923745  1
  H+  H160  1  0.38608341  0.76483807  0.83349528  1
  H+  H161  1  0.15012801  0.87796280  0.83099071  1
  H+  H162  1  0.51397489  0.88589952  0.34303580  1
  H+  H163  1  0.36789358  1.05590726  0.14549129  1
  H+  H164  1  0.39516517  0.50814520  0.32606629  1
  H+  H165  1  0.13206216  0.10874076  0.99038188  1
  H+  H166  1  0.66500492  0.33095782  0.90150909  1
  H+  H167  1  0.11904028  0.72974580  0.15805997  1
  H+  H168  1  0.16665591  0.33187785  0.21860513  1
  H+  H169  1  0.14501728  0.11507687  0.32276915  1
  H+  H170  1  0.51709037  0.13420987  -0.01262043  1
  H+  H171  1  0.36788634  0.77229497  -0.00107403  1
  H+  H172  1  0.32547473  0.91533974  0.52642099  1
  H+  H173  1  0.37834827  0.84897559  0.16811153  1
  H+  H174  1  0.39097707  0.88584158  0.50579929  1
  H+  H175  1  0.61412173  0.39478031  1.00142789  1
  H+  H176  1  0.36841128  0.99098273  0.36780255  1
  H+  H177  1  0.65110956  0.82824671  0.23254563  1
  H+  H178  1  0.10707821  0.73723779  -0.00154448  1
  H+  H179  1  0.90341382  0.57995633  0.58457123  1
  H+  H180  1  0.48999176  0.51118987  0.94048257  1
  H+  H181  1  0.15693872  0.35713847  0.97825290  1
  H+  H182  1  0.38582286  0.09654557  0.93762742  1
  H+  H183  1  0.87497958  1.01810811  0.32731337  1
  H+  H184  1  0.58422856  0.93623834  0.06962847  1
  H+  H185  1  0.62031599  1.01671194  -0.00450855  1
  H+  H186  1  0.60368941  -0.02715275  0.34117912  1
  H+  H187  1  0.62718375  0.60684731  0.63863265  1
  H+  H188  1  0.36012763  0.95808144  0.13386998  1
  H+  H189  1  0.64523183  0.86407580  0.51066983  1
  H+  H190  1  0.12304219  0.00944663  0.66283196  1
  H+  H191  1  0.27456480  0.62746541  0.81694420  1
  H+  H192  1  0.28454393  0.15468711  0.34471905  1
  H+  H193  1  0.51593114  0.13192436  0.50750502  1
  H+  H194  1  0.88253565  0.76627202  0.35284688  1
  H+  H195  1  0.62180173  0.24466333  0.14325768  1
  H+  H196  1  0.99764659  0.12318998  0.83628548  1
  H+  H197  1  0.75973425  0.63585446  0.82466209  1
  H+  H198  1  0.60452483  0.71661792  0.51021888  1
  H+  H199  1  0.74144532  0.14673190  0.67022743  1
  H+  H200  1  0.11280743  0.97388359  0.00266946  1
  H+  H201  1  0.12954664  0.63968285  0.34893730  1
  H+  H202  1  0.15836043  0.78283452  0.32247668  1
  H+  H203  1  0.86174783  0.63631533  0.37533481  1
  H+  H204  1  0.45314659  0.67244434  0.21704370  1
  H+  H205  1  0.61564880  0.64124874  0.15592777  1
  H+  H206  1  0.73033591  0.36923592  0.32721022  1
  H+  H207  1  0.09156157  0.59540120  0.79971846  1
  H+  H208  1  0.65045156  0.89047847  0.85359059  1
  H+  H209  1  0.54037362  0.63364551  0.00089432  1
  H+  H210  1  0.63806557  0.74961220  0.66070195  1
  H+  H211  1  0.48373238  0.37592568  0.31795455  1
  H+  H212  1  0.87768895  0.85925764  0.49351307  1
  H+  H213  1  0.36491379  0.63253236  0.82743683  1
  H+  H214  1  0.12516731  0.72931705  0.65465593  1
  H+  H215  1  0.78030859  0.88635314  0.02422815  1
  H+  H216  1  0.88783562  0.27714433  0.83509074  1
  H+  H217  1  0.28106408  0.89440830  0.82737502  1
  H+  H218  1  0.36775676  0.12188833  0.82007272  1
  H+  H219  1  0.22158771  0.61102048  0.17605046  1
  H+  H220  1  0.59847490  0.41790629  0.48850730  1
  H+  H221  1  0.88942758  0.86214185  0.84080716  1
  H+  H222  1  0.51990521  0.88271465  0.83596924  1
  H+  H223  1  0.04067332  0.11620513  0.48101831  1
  H+  H224  1  0.09930992  0.88093976  0.49220463  1
  H+  H225  1  0.66447631  0.08904593  0.26795482  1
  H+  H226  1  0.67441599  0.83061531  0.56951874  1
  H+  H227  1  0.62396823  0.48522716  0.33415161  1
  H+  H228  1  0.32404207  0.16349277  0.07949314  1
  H+  H229  1  0.37084458  0.15906300  0.36967408  1
  H+  H230  1  0.59961322  0.62825675  0.52468668  1
  H+  H231  1  0.21931698  0.10839631  0.99496447  1
  H+  H232  1  0.03197863  0.38420294  0.80702137  1
  H+  H233  1  0.02466642  0.88894586  0.82521744  1
  H+  H234  1  0.12333378  0.48553766  0.49323599  1
  H+  H235  1  0.86872045  0.48333112  0.15327101  1
  H+  H236  1  0.88446648  0.11081989  0.32817306  1
  H+  H237  1  0.89582121  0.87106193  0.66696255  1
  H+  H238  1  0.76503962  0.12799641  0.02005691  1
  H+  H239  1  0.77713409  0.64775964  0.66234469  1
  H+  H240  1  0.77232698  0.63386145  0.36058852  1
  H+  H241  1  0.82335333  0.17348863  0.41683882  1
  H+  H242  1  0.27531961  0.14784130  0.16806342  1
  H+  H243  1  0.86321081  0.47645708  0.37257268  1
  H+  H244  1  0.93242391  0.86262753  0.37360302  1
  H+  H245  1  0.86043475  0.13284513  0.68858397  1
  H+  H246  1  0.13669072  0.52239448  0.33141233  1
  H+  H247  1  0.63498047  0.11233687  0.84594077  1
  H+  H248  1  0.72328413  0.35550654  0.83490262  1
  H+  H249  1  0.12303365  0.13555681  0.81522292  1
  H+  H250  1  0.14100479  0.86575624  0.98740243  1
  H+  H251  1  0.00905050  0.12661434  0.66837998  1
  H+  H252  1  0.64369643  0.78461758  1.00239706  1
  H+  H253  1  0.28493871  0.36762714  -0.01368362  1
  H+  H254  1  0.08752636  0.67193838  0.09762314  1
  H+  H255  1  0.08545204  0.16729432  0.06913148  1
  H+  H256  1  0.27807380  0.64690113  0.49689038  1
  H+  H257  1  0.13298173  0.61641887  0.17434000  1
  H+  H258  1  0.04568841  0.35292470  0.03756868  1
  H+  H259  1  0.63028211  0.52146435  0.16790966  1
  H+  H260  1  0.39227180  0.85393381  0.66883371  1
  H+  H261  1  0.24290145  0.12645943  0.51818779  1
  H+  H262  1  0.35984016  0.39588086  0.14993230  1
  H+  H263  1  0.39274311  0.25412191  0.88228627  1
  H+  H264  1  0.77337902  0.39149119  0.66186480  1
  H+  H265  1  0.77709976  0.13688998  0.84334326  1
  H+  H266  1  0.79185509  0.91000149  0.83586047  1
  H+  H267  1  0.42703233  0.10581109  0.43393298  1
  H+  H268  1  0.13941360  0.27241829  0.31907848  1
  H+  H269  1  0.60848265  0.71695691  0.33499041  1
  H+  H270  1  1.00832466  0.39511150  0.18216376  1
  H+  H271  1  -0.00593248  0.62789731  0.37005740  1
  H+  H272  1  0.12296169  0.22474274  0.81138395  1
  H+  H273  1  0.90482479  0.10387291  0.50336642  1
  H+  H274  1  0.64688702  0.63348088  0.32527461  1
  H+  H275  1  0.48585235  0.63612724  0.16618217  1
  H+  H276  1  0.60948422  0.38944422  0.15198522  1
  H+  H277  1  0.37779060  0.97567205  0.67310412  1
  H+  H278  1  0.46725715  0.60895902  0.51970645  1
  H+  H279  1  0.24296962  0.66066718  0.01335460  1
  H+  H280  1  1.02290716  0.13808036  1.01228032  1
  H+  H281  1  0.83300322  0.16598699  0.11061686  1
  H+  H282  1  0.61876622  0.11147038  0.99023905  1
  H+  H283  1  1.02649148  0.13311257  0.33378701  1
  H+  H284  1  0.22444943  0.35691752  0.15838734  1
  H+  H285  1  0.62423768  0.27384930  0.98736720  1
  H+  H286  1  0.11891003  0.89533003  0.67179924  1
  H+  H287  1  0.62639539  0.72641519  0.79513454  1
  H+  H288  1  0.85586875  0.92665484  0.10704002  1
  H+  H289  1  0.45274640  0.14622051  0.24563632  1
  H+  H290  1  0.38754961  0.29360731  0.16897559  1
  H+  H291  1  0.81579494  0.66168706  0.46060389  1
  H+  H292  1  0.76846518  0.87411844  0.49229132  1
  H+  H293  1  0.34138408  0.42285727  0.43359334  1
  H+  H294  1  0.82348768  0.66927940  0.72728975  1
  H+  H295  1  0.17113260  0.08170649  0.23308589  1
  H+  H296  1  0.32982529  0.89945921  0.07667318  1
  H+  H297  1  0.17349388  0.84619855  0.60276009  1
  H+  H298  1  0.16368891  0.58567456  0.27350841  1
  H+  H299  1  0.33803477  0.68260262  0.40274463  1
  H+  H300  1  0.81597526  0.90746688  0.39388237  1
  H+  H301  1  0.36633750  0.88413299  0.82898910  1
  H+  H302  1  0.61357055  0.18798541  0.43849843  1
  H+  H303  1  0.17327156  0.84085743  0.88842839  1
  H+  H304  1  0.07718175  0.15940313  0.72314020  1
  H+  H305  1  0.93161727  0.59105337  0.31644279  1
  H+  H306  1  0.42456926  0.35388679  0.22670727  1
  H+  H307  1  0.55706649  0.61644345  0.71979211  1
  H+  H308  1  0.86260660  0.39111028  0.16138811  1
  H+  H309  1  0.59067354  0.91933553  0.43835523  1
  H+  H310  1  1.06183348  0.65669027  0.77556626  1
  H+  H311  1  0.62997095  0.01925709  0.84583425  1
  H+  H312  1  0.58367365  0.17241759  0.77674721  1
  H+  H313  1  0.66251499  0.57484331  0.89961442  1
  H+  H314  1  0.87058069  0.46076869  0.53870182  1
  H+  H315  1  0.23150453  0.60160551  0.65806135  1
  H+  H316  1  0.50684641  0.63131509  0.66729842  1
  H+  H317  1  0.66430522  0.81149220  0.85261909  1
  H+  H318  1  0.43818659  0.58098164  0.90160502  1
  H+  H319  1  0.67061587  0.34222437  0.22490862  1
  H+  H320  1  0.33761764  0.91385467  0.41200345  1
  H+  H321  1  0.90667799  0.33306433  0.24286391  1
  H+  H322  1  0.65284576  0.07655541  0.92757441  1
  H+  H323  1  0.09188190  0.41238262  0.74938595  1
  H+  H324  1  0.92029549  0.83170275  0.24101449  1
  H+  H325  1  0.94105517  0.35793683  0.88017410  1
  H+  H326  1  0.11882095  0.10364873  0.65428958  1
  H+  H327  1  0.17647668  0.09053080  0.89061375  1
  H+  H328  1  0.82022370  0.67302136  0.06682487  1
  H+  H329  1  0.65731469  0.57808655  0.22921787  1
  H+  H330  1  0.16225205  0.71316767  0.39796192  1
  H+  H331  1  0.38184281  0.78156995  0.33042858  1
  H+  H332  1  0.48303201  0.13332461  0.37437706  1
  H+  H333  1  0.38317488  0.13844518  0.66792934  1
  H+  H334  1  0.79708948  0.13119238  0.50438157  1
  H+  H335  1  0.33168515  0.22265646  0.43747650  1
  H+  H336  1  0.58260320  0.90978003  0.77873229  1
  H+  H337  1  0.34458984  0.91949884  0.73360831  1
  H+  H338  1  0.18450607  0.83732395  0.22562156  1
  H+  H339  1  0.43843895  0.09160880  0.59996541  1
  H+  H340  1  0.36678580  0.96851757  -0.02366697  1
  H+  H341  1  0.83230087  0.91644256  0.73898981  1
  H+  H342  1  0.14473715  0.51358701  0.82688373  1
  H+  H343  1  0.43327486  0.83014396  0.57445402  1
  H+  H344  1  0.32292145  0.42196296  0.71287107  1
  H+  H345  1  0.39048143  0.76249833  0.66496134  1
  H+  H346  1  0.06239719  0.64840541  0.45287616  1
  H+  H347  1  0.91215324  0.07485204  0.92798120  1
  H+  H348  1  0.59280734  0.67217680  0.06312040  1
  H+  H349  1  0.32452809  0.40013774  0.08544495  1
  H+  H350  1  0.73629618  0.66117221  0.28600145  1
  H+  H351  1  0.73060706  0.61546418  0.99477522  1
  H+  H352  1  0.81427870  0.40947973  0.75764324  1
  H+  H353  1  0.17347732  0.58065333  0.56629250  1
  H+  H354  1  0.09392760  0.42079604  0.39859192  1
  H+  H355  1  0.42696001  0.55977633  0.26340575  1
  H+  H356  1  0.17404947  0.32442994  0.88036897  1
  H+  H357  1  0.92327750  0.34406760  0.54724568  1
  H+  H358  1  0.57009421  0.16657046  0.05252303  1
  H+  H359  1  0.89055240  0.56945572  0.88565940  1
  H+  H360  1  0.59309583  0.23532478  0.68476880  1
  H+  H361  1  0.16216872  0.57628793  0.88374269  1
  H+  H362  1  0.82426320  0.41517257  0.06731581  1
  H+  H363  1  0.94081761  0.33763876  0.93233532  1
  H+  H364  1  0.58564046  0.42490418  0.06647247  1
  H+  H365  1  0.41148776  0.81747960  0.89660372  1
  H+  H366  1  0.29771684  0.68349382  0.07519434  1
  H+  H367  1  0.68080959  0.85510193  0.94976940  1
  H+  H368  1  0.08378873  0.41711796  0.12947870  1
  H+  H369  1  0.61832855  0.44153501  0.72884361  1
  H+  H370  1  0.15044286  0.31708024  0.58163197  1
  H+  H371  1  0.34936342  0.63478207  0.15720901  1
  H+  H372  1  0.16405960  0.03045535  0.51190050  1
  H+  H373  1  0.92296946  0.08600761  0.23499052  1
  H+  H374  1  0.35190392  0.16866812  0.73171037  1
  H+  H375  1  0.83291157  0.16399868  0.78319353  1
  H+  H376  1  0.08707766  0.91468866  0.06256628  1
  H+  H377  1  0.11216744  0.47229198  0.66143828  1
  H+  H378  1  0.35559536  0.53828956  0.66474587  1
  H+  H379  1  0.39552196  0.58267144  0.57107304  1
  H+  H380  1  0.17331569  0.07704077  0.60091144  1
  H+  H381  1  0.23921187  0.36371575  0.49139573  1
  H+  H382  1  0.91798575  0.59515347  0.21562888  1
  H+  H383  1  0.62012411  0.73341686  0.15572349  1
  O2-  O384  1  0.08359415  0.16398046  0.14514032  1
  O2-  O385  1  0.09909065  0.14255791  0.46363342  1
  O2-  O386  1  0.08927172  0.16234519  0.79923621  1
  O2-  O387  1  0.07269011  0.43014237  0.17169170  1
  O2-  O388  1  0.09544933  0.42548103  0.47612023  1
  O2-  O389  1  0.09285409  0.41033651  0.79510798  1
  O2-  O390  1  0.08585291  0.66835444  0.14275944  1
  O2-  O391  1  0.06522195  0.65461216  0.49724721  1
  O2-  O392  1  0.04195234  0.59587450  0.78119417  1
  O2-  O393  1  0.08719500  0.91312337  0.14346720  1
  O2-  O394  1  0.07420744  0.91489992  0.47475075  1
  O2-  O395  1  0.08461246  0.92414662  0.81012112  1
  O2-  O396  1  0.33397404  0.18587645  0.15076432  1
  O2-  O397  1  0.31538732  0.22969284  0.48011996  1
  O2-  O398  1  0.34428133  0.15637831  0.80271247  1
  O2-  O399  1  0.31863200  0.40871454  0.12922021  1
  O2-  O400  1  0.33841348  0.41824776  0.47943086  1
  O2-  O401  1  0.33495085  0.42420099  0.78983649  1
  O2-  O402  1  0.31067677  0.65872258  0.14921027  1
  O2-  O403  1  0.33916202  0.67721795  0.48332433  1
  O2-  O404  1  0.33661284  0.65805169  0.80344751  1
  O2-  O405  1  0.32753417  0.89744090  0.12214528  1
  O2-  O406  1  0.36186783  0.91937736  0.49237633  1
  O2-  O407  1  0.34512580  0.92325594  0.81571548  1
  O2-  O408  1  0.58650614  0.18419595  0.12814757  1
  O2-  O409  1  0.61656718  0.18515365  0.48339774  1
  O2-  O410  1  0.58750248  0.16979018  0.82322922  1
  O2-  O411  1  0.58033878  0.41977376  0.13448139  1
  O2-  O412  1  0.56279015  0.37712593  0.45741160  1
  O2-  O413  1  0.57243152  0.41198547  0.79906739  1
  O2-  O414  1  0.58993669  0.67379314  0.13748673  1
  O2-  O415  1  0.56789205  0.65385724  0.50597882  1
  O2-  O416  1  0.52928799  0.55685075  0.78881996  1
  O2-  O417  1  0.61984122  1.00964590  0.15598973  1
  O2-  O418  1  0.59786545  0.92137096  0.48359485  1
  O2-  O419  1  0.58244081  0.91922591  0.82352392  1
  O2-  O420  1  0.83408991  0.16989330  0.15619023  1
  O2-  O421  1  0.85632791  0.15857098  0.48638292  1
  O2-  O422  1  0.83714829  0.16955453  0.82838365  1
  O2-  O423  1  0.83620556  0.42181283  0.14069002  1
  O2-  O424  1  0.84958731  0.49168911  0.51368013  1
  O2-  O425  1  0.81369055  0.40880395  0.80434422  1
  O2-  O426  1  0.82891707  0.67647452  0.14895871  1
  O2-  O427  1  0.82539037  0.67088018  0.50549671  1
  O2-  O428  1  0.81988948  0.66526426  0.80776787  1
  O2-  O429  1  0.86142891  0.93206123  0.15347891  1
  O2-  O430  1  0.82670454  0.90072956  0.47091982  1
  O2-  O431  1  0.84790377  0.92853295  0.81576809  1
  O2-  O432  1  0.16914286  0.08308789  0.18744855  1
  O2-  O433  1  0.20705161  0.07196677  0.54032548  1
  O2-  O434  1  0.17786420  0.08955791  0.84545678  1
  O2-  O435  1  0.16279055  0.32513277  0.17372025  1
  O2-  O436  1  0.17383058  0.32719992  0.49727236  1
  O2-  O437  1  0.17370096  0.32547075  0.83518416  1
  O2-  O438  1  0.15904662  0.58360260  0.19293002  1
  O2-  O439  1  0.17051364  0.58554636  0.52083716  1
  O2-  O440  1  0.17258992  0.57493026  0.83981333  1
  O2-  O441  1  0.17385082  0.83058829  0.18087373  1
  O2-  O442  1  0.14529794  0.82374307  0.52135365  1
  O2-  O443  1  0.18343616  0.85042784  0.84419636  1
  O2-  O444  1  0.46496765  0.18579051  0.21194167  1
  O2-  O445  1  0.45244052  0.09800611  0.51754386  1
  O2-  O446  1  0.42802075  0.07447758  0.86360512  1
  O2-  O447  1  0.42526810  0.35485136  0.18111009  1
  O2-  O448  1  0.39173695  0.30648592  0.50475151  1
  O2-  O449  1  0.35763869  0.26613318  0.91050504  1
  O2-  O450  1  0.43280655  0.62440240  0.18874045  1
  O2-  O451  1  0.40259460  0.57853946  0.52699587  1
  O2-  O452  1  0.43980561  0.60914734  0.86131191  1
  O2-  O453  1  0.40151118  0.81597591  0.18846068  1
  O2-  O454  1  0.43541558  0.83348607  0.52926456  1
  O2-  O455  1  0.41601629  0.82400084  0.85124100  1
  O2-  O456  1  0.66336782  0.09754461  0.18396789  1
  O2-  O457  1  0.69201517  0.08788409  0.52349039  1
  O2-  O458  1  0.66136045  0.07942965  0.86383858  1
  O2-  O459  1  0.66856193  0.34424864  0.17947532  1
  O2-  O460  1  0.69379433  0.33183186  0.61318881  1
  O2-  O461  1  0.66334329  0.32236339  0.85513519  1
  O2-  O462  1  0.66145623  0.58147638  0.18413792  1
  O2-  O463  1  0.66223676  0.58203173  0.55989952  1
  O2-  O464  1  0.66400407  0.56882539  0.85458590  1
  O2-  O465  1  0.65745435  0.82986226  0.18706996  1
  O2-  O466  1  0.67567054  0.83306904  0.52428065  1
  O2-  O467  1  0.68895059  0.86927503  0.87006513  1
  O2-  O468  1  0.92447585  0.08538402  0.18948408  1
  O2-  O469  1  0.93000322  0.06481316  0.50951187  1
  O2-  O470  1  0.93833729  0.09433264  0.85533933  1
  O2-  O471  1  0.91036834  0.33636627  0.19715154  1
  O2-  O472  1  0.92574628  0.32599506  0.50534264  1
  O2-  O473  1  0.92050888  0.34213488  0.83759658  1
  O2-  O474  1  0.91993311  0.59269048  0.17148315  1
  O2-  O475  1  0.90374127  0.58194543  0.53492731  1
  O2-  O476  1  0.88002971  0.57132059  0.83962825  1
  O2-  O477  1  0.91882581  0.83438985  0.19645193  1
  O2-  O478  1  0.91480081  0.83409348  0.50948481  1
  O2-  O479  1  0.91475948  0.82631337  0.85333332  1
  O2-  O480  1  0.18153996  0.09005942  0.31015290  1
  O2-  O481  1  0.15319828  0.07402073  0.64604750  1
  O2-  O482  1  0.16208502  0.07893900  0.97494653  1
  O2-  O483  1  0.17163577  0.33301958  0.30462068  1
  O2-  O484  1  0.14948589  0.32228563  0.62618436  1
  O2-  O485  1  0.17698834  0.32029292  0.96068731  1
  O2-  O486  1  0.16373141  0.58439888  0.31864063  1
  O2-  O487  1  0.17227607  0.57414821  0.64219818  1
  O2-  O488  1  0.14375828  0.58599167  0.96739974  1
  O2-  O489  1  0.18710797  0.84212287  0.30640774  1
  O2-  O490  1  0.17518251  0.84752441  0.64773964  1
  O2-  O491  1  0.16540570  0.83019262  0.97151529  1
  O2-  O492  1  0.42201983  0.10291423  0.38885313  1
  O2-  O493  1  0.42844273  0.08563772  0.64508240  1
  O2-  O494  1  0.42448264  0.07292449  0.93162048  1
  O2-  O495  1  0.42251993  0.34554079  0.30467513  1
  O2-  O496  1  0.39520333  0.30711766  0.63050468  1
  O2-  O497  1  0.41007041  0.29403613  0.96643213  1
  O2-  O498  1  0.43746923  0.56379714  0.30725278  1
  O2-  O499  1  0.39297572  0.60250313  0.65669765  1
  O2-  O500  1  0.45932847  0.53703764  0.95954984  1
  O2-  O501  1  0.41459895  0.84179970  0.31215857  1
  O2-  O502  1  0.42425291  0.82445750  0.65483626  1
  O2-  O503  1  0.41223465  0.82285279  0.97343573  1
  O2-  O504  1  0.65624817  0.08209860  0.31264731  1
  O2-  O505  1  0.68456517  0.12521319  0.65053176  1
  O2-  O506  1  0.64918358  0.07789687  0.97678853  1
  O2-  O507  1  0.67479089  0.34195015  0.30539194  1
  O2-  O508  1  0.60993588  0.31228381  0.63844601  1
  O2-  O509  1  0.65725491  0.33517929  0.97360963  1
  O2-  O510  1  0.69190782  0.61175257  0.30807288  1
  O2-  O511  1  0.67161251  0.59125736  0.62670373  1
  O2-  O512  1  0.66762796  0.58095443  0.97898165  1
  O2-  O513  1  0.64575872  0.82469147  0.30923375  1
  O2-  O514  1  0.66864483  0.81211402  0.65060099  1
  O2-  O515  1  0.67530626  0.84828532  0.99489103  1
  O2-  O516  1  0.91115610  0.07895154  0.31261089  1
  O2-  O517  1  0.88886327  0.06977062  0.65325332  1
  O2-  O518  1  0.87659651  0.05541748  0.96652817  1
  O2-  O519  1  0.91639781  0.33691697  0.32026641  1
  O2-  O520  1  0.91949106  0.35999459  0.63146494  1
  O2-  O521  1  0.92845647  0.31959752  0.97865837  1
  O2-  O522  1  0.93185490  0.59470263  0.36065516  1
  O2-  O523  1  0.91099245  0.58566225  0.64836229  1
  O2-  O524  1  0.90736914  0.56165558  0.95203946  1
  O2-  O525  1  0.91368789  0.82719076  0.33692317  1
  O2-  O526  1  0.92883542  0.84472058  0.65130837  1
  O2-  O527  1  0.91889491  0.83078955  0.97798338  1
  O2-  O528  1  0.08363133  0.16817008  0.02297839  1
  O2-  O529  1  0.08813052  0.16396754  0.34448273  1
  O2-  O530  1  0.07113036  0.15619132  0.67730374  1
  O2-  O531  1  0.10326406  0.38846570  0.05822016  1
  O2-  O532  1  0.09055172  0.41908969  0.35301656  1
  O2-  O533  1  0.07583553  0.40988193  0.67335576  1
  O2-  O534  1  0.06298952  0.67911223  0.01723390  1
  O2-  O535  1  0.11362246  0.68085006  0.37058423  1
  O2-  O536  1  0.09919454  0.66722591  0.64659232  1
  O2-  O537  1  0.08536423  0.91297294  0.01722822  1
  O2-  O538  1  0.10120193  0.91842276  0.35104781  1
  O2-  O539  1  0.08689964  0.92482449  0.68560499  1
  O2-  O540  1  0.31839719  0.14787580  0.03446908  1
  O2-  O541  1  0.34090436  0.19299029  0.36455456  1
  O2-  O542  1  0.35203615  0.16866659  0.68479763  1
  O2-  O543  1  0.34204032  0.39259714  0.00619998  1
  O2-  O544  1  0.33226193  0.41049544  0.35862955  1
  O2-  O545  1  0.32185011  0.43028761  0.66783879  1
  O2-  O546  1  0.28781947  0.70783633  0.03739557  1
  O2-  O547  1  0.33648520  0.68728987  0.35783138  1
  O2-  O548  1  0.34599771  0.64468443  0.68035020  1
  O2-  O549  1  0.33623007  0.91304802  -0.00211405  1
  O2-  O550  1  0.33724392  0.92684566  0.36822809  1
  O2-  O551  1  0.34564216  0.91548618  0.68833222  1
  O2-  O552  1  0.57483811  0.16419239  0.00657913  1
  O2-  O553  1  0.59101079  0.18237584  0.35788650  1
  O2-  O554  1  0.58120879  0.17936501  0.70499472  1
  O2-  O555  1  0.59106649  0.43091676  0.01902934  1
  O2-  O556  1  0.59087025  0.42315921  0.34141950  1
  O2-  O557  1  0.65217223  0.45138727  0.69067523  1
  O2-  O558  1  0.59790079  0.67497259  0.01713558  1
  O2-  O559  1  0.59278138  0.65766942  0.34692894  1
  O2-  O560  1  0.56472504  0.64206326  0.67856551  1
  O2-  O561  1  0.58383529  0.92734554  0.02551800  1
  O2-  O562  1  0.57500071  0.91386030  0.35830422  1
  O2-  O563  1  0.57837290  0.88335638  0.70216213  1
  O2-  O564  1  0.82443981  0.15572562  0.03449668  1
  O2-  O565  1  0.80012655  0.19027990  0.38082725  1
  O2-  O566  1  0.84240792  0.17391095  0.70533974  1
  O2-  O567  1  0.81862941  0.40807445  0.02104355  1
  O2-  O568  1  0.83123202  0.41300228  0.37396213  1
  O2-  O569  1  0.82747481  0.42206979  0.68680339  1
  O2-  O570  1  0.81966760  0.66719405  0.02200654  1
  O2-  O571  1  0.82814777  0.66544384  0.38338493  1
  O2-  O572  1  0.83390793  0.67340242  0.68262265  1
  O2-  O573  1  0.84258188  0.91572571  0.03580523  1
  O2-  O574  1  0.81594428  0.91365429  0.34848763  1
  O2-  O575  1  0.82971192  0.91603118  0.69343969  1
