# generated using pymatgen
data_H2O
_symmetry_space_group_name_H-M   'P 1'
_cell_length_a   17.99599980
_cell_length_b   17.99519222
_cell_length_c   21.99963769
_cell_angle_alpha   89.99459521
_cell_angle_beta   89.99996947
_cell_angle_gamma   120.00848719
_symmetry_Int_Tables_number   1
_chemical_formula_structural   H2O
_chemical_formula_sum   'H384 O192'
_cell_volume   6169.37940127
_cell_formula_units_Z   192
loop_
 _symmetry_equiv_pos_site_id
 _symmetry_equiv_pos_as_xyz
  1  'x, y, z'
loop_
 _atom_type_symbol
 _atom_type_oxidation_number
  H+  1.0
  O2-  -2.0
loop_
 _atom_site_type_symbol
 _atom_site_label
 _atom_site_symmetry_multiplicity
 _atom_site_fract_x
 _atom_site_fract_y
 _atom_site_fract_z
 _atom_site_occupancy
  H+  H0  1  0.57543870  0.91916732  0.09850082  1
  H+  H1  1  0.52457207  0.19033112  0.13187320  1
  H+  H2  1  0.77065959  0.38408611  0.50333654  1
  H+  H3  1  0.72387197  0.60800918  0.50548810  1
  H+  H4  1  0.14110065  0.50925042  1.00403110  1
  H+  H5  1  0.36936080  0.37842189  0.81975146  1
  H+  H6  1  0.60842573  0.88050258  0.48935673  1
  H+  H7  1  0.95601750  0.85627441  0.18494958  1
  H+  H8  1  0.35707863  0.20628021  0.83863691  1
  H+  H9  1  0.12034507  0.74521079  0.49826166  1
  H+  H10  1  0.14636679  0.37866497  0.99366984  1
  H+  H11  1  0.52614410  0.38340727  0.82983974  1
  H+  H12  1  -0.02541100  0.37171832  0.67597174  1
  H+  H13  1  0.86218906  0.22615086  0.83049755  1
  H+  H14  1  0.52363638  0.37784009  0.49230803  1
  H+  H15  1  0.00624497  0.08842519  0.17216102  1
  H+  H16  1  0.10803826  0.37224000  0.15088773  1
  H+  H17  1  0.49084681  0.61536138  0.65478542  1
  H+  H18  1  0.50000186  0.27505946  0.88177377  1
  H+  H19  1  0.52306858  0.15396069  0.50450368  1
  H+  H20  1  0.10432785  0.61774324  0.49702070  1
  H+  H21  1  0.39787237  0.60842966  0.65204321  1
  H+  H22  1  0.77330308  0.38929760  0.68062956  1
  H+  H23  1  0.87192188  0.98160177  0.83119815  1
  H+  H24  1  0.27228674  0.89436690  0.67811034  1
  H+  H25  1  0.67469846  0.60660740  0.99537318  1
  H+  H26  1  -0.02101602  0.61124181  -0.00425871  1
  H+  H27  1  0.11290863  0.62335669  0.16166666  1
  H+  H28  1  0.14133474  0.76374066  -0.00148550  1
  H+  H29  1  0.63709814  0.62033447  0.32409404  1
  H+  H30  1  0.38786443  0.24591844  0.16779869  1
  H+  H31  1  0.53023860  0.38039682  0.66673424  1
  H+  H32  1  0.39399095  0.36754443  0.32256549  1
  H+  H33  1  1.02704574  0.62767870  0.15741024  1
  H+  H34  1  0.20900584  0.67832764  0.95790992  1
  H+  H35  1  0.85306924  0.10425710  0.15797472  1
  H+  H36  1  0.39676862  0.16289748  0.52321216  1
  H+  H37  1  0.59901937  0.89550591  0.16275039  1
  H+  H38  1  0.47407816  0.62333592  0.99823908  1
  H+  H39  1  0.11586633  0.46517965  0.34193840  1
  H+  H40  1  0.72871309  0.11822298  0.66052800  1
  H+  H41  1  0.10648865  0.21535614  0.82130471  1
  H+  H42  1  0.89706602  0.30049205  0.52858962  1
  H+  H43  1  1.03247312  0.89240193  0.84324018  1
  H+  H44  1  0.21656976  0.11829596  0.66186516  1
  H+  H45  1  0.38742256  0.51332871  0.49976751  1
  H+  H46  1  0.39075227  0.36082266  -0.01158135  1
  H+  H47  1  0.86386443  0.72086456  0.49353963  1
  H+  H48  1  0.55706812  0.01111799  0.17525040  1
  H+  H49  1  0.72360585  0.37019262  0.32747104  1
  H+  H50  1  0.50786790  0.44626883  0.79283526  1
  H+  H51  1  0.35596982  0.21414544  0.43928364  1
  H+  H52  1  0.13215408  0.06132924  0.34415294  1
  H+  H53  1  0.36667595  0.35274436  0.79192882  1
  H+  H54  1  0.38574179  1.00851246  0.00147709  1
  H+  H55  1  0.24261135  0.13355610  0.50970042  1
  H+  H56  1  0.37271426  0.02208942  0.66972590  1
  H+  H57  1  0.84873180  0.19491715  0.46942236  1
  H+  H58  1  0.34674731  0.97192306  0.33799047  1
  H+  H59  1  0.84963495  0.11104012  0.19136088  1
  H+  H60  1  0.83307313  0.42222540  0.40415165  1
  H+  H61  1  0.62681112  0.34625648  -0.01062014  1
  H+  H62  1  0.02355933  0.87827020  0.68934014  1
  H+  H63  1  0.24550210  0.13173220  0.18651877  1
  H+  H64  1  0.36087154  0.22088570  0.68335548  1
  H+  H65  1  0.15729836  0.27484169  0.32037681  1
  H+  H66  1  1.01651910  0.98173902  0.38925438  1
  H+  H67  1  0.63530989  0.53232084  0.83599118  1
  H+  H68  1  0.62474235  0.23530334  0.67691671  1
  H+  H69  1  0.13212427  0.60621414  0.83863260  1
  H+  H70  1  0.70161159  0.10472957  0.50197648  1
  H+  H71  1  0.87648358  0.77179602  0.33586058  1
  H+  H72  1  0.64158508  0.52548022  0.66064112  1
  H+  H73  1  0.14331782  0.35597202  0.32542777  1
  H+  H74  1  0.61397075  0.89363015  0.65651687  1
  H+  H75  1  0.27624439  0.37847900  0.48700381  1
  H+  H76  1  0.38775851  0.76056341  0.98614352  1
  H+  H77  1  0.08855585  0.41431105  0.43437588  1
  H+  H78  1  0.10837529  0.38335857  0.83610124  1
  H+  H79  1  0.36363457  0.11686053  0.67904576  1
  H+  H80  1  0.13629116  0.53184712  0.66908919  1
  H+  H81  1  0.06768422  0.15992572  0.72630982  1
  H+  H82  1  0.37591920  0.25001258  0.34723906  1
  H+  H83  1  0.20053846  0.35585017  0.66007852  1
  H+  H84  1  0.51320612  0.12449022  0.82310738  1
  H+  H85  1  0.89270229  0.26738917  0.32398728  1
  H+  H86  1  0.09906097  0.97587081  0.18097713  1
  H+  H87  1  0.36505807  0.75469267  0.84162944  1
  H+  H88  1  0.25445494  0.12828460  0.83316792  1
  H+  H89  1  0.46046744  0.07665992  0.20261669  1
  H+  H90  1  0.14108051  0.86572527  0.84954027  1
  H+  H91  1  0.11122980  0.47518208  0.83606839  1
  H+  H92  1  0.62413874  0.73745470  0.82209478  1
  H+  H93  1  0.95312469  0.28427252  0.09659548  1
  H+  H94  1  0.64278890  0.61592091  0.65983337  1
  H+  H95  1  0.87778351  0.77256742  1.00392828  1
  H+  H96  1  0.89462731  0.08779370  0.49154602  1
  H+  H97  1  0.78731848  0.21561924  0.43251749  1
  H+  H98  1  0.86043714  0.13728231  0.66713144  1
  H+  H99  1  0.63290314  0.78401542  0.17203307  1
  H+  H100  1  0.37279405  0.33521659  0.49410817  1
  H+  H101  1  0.77940048  0.84987678  0.70465846  1
  H+  H102  1  0.38684597  0.11809535  0.35002895  1
  H+  H103  1  0.74058406  0.17381509  0.16080638  1
  H+  H104  1  0.76528240  0.88854659  0.16392552  1
  H+  H105  1  0.77785267  0.64060701  0.67675396  1
  H+  H106  1  0.13867730  0.36067494  0.50393874  1
  H+  H107  1  0.10960984  0.63182848  0.00259601  1
  H+  H108  1  0.62129593  0.97493561  0.81961317  1
  H+  H109  1  0.88947314  0.77283430  0.66168001  1
  H+  H110  1  0.60302338  0.86986305  0.34047480  1
  H+  H111  1  0.47770545  0.62866990  0.17781352  1
  H+  H112  1  0.12994180  0.12086043  0.65290891  1
  H+  H113  1  0.36190120  0.02514963  0.19692596  1
  H+  H114  1  0.72275712  0.85339682  0.48647031  1
  H+  H115  1  0.33803724  0.41147666  0.42787073  1
  H+  H116  1  0.13565958  -0.01872310  1.00659703  1
  H+  H117  1  0.63764864  0.35754250  0.66690756  1
  H+  H118  1  0.62745382  0.40725132  0.33925273  1
  H+  H119  1  0.88915868  0.11282987  0.83775926  1
  H+  H120  1  0.89108539  0.38419256  0.51661097  1
  H+  H121  1  0.37518484  0.13617543  0.01975402  1
  H+  H122  1  0.53335321  0.38793223  0.00782007  1
  H+  H123  1  0.85230782  0.87491752  0.36913391  1
  H+  H124  1  0.98390739  0.86367567  0.50682620  1
  H+  H125  1  0.38644778  0.61389510  0.32667664  1
  H+  H126  1  0.89202691  0.86579145  0.84711020  1
  H+  H127  1  0.62076041  0.73461163  0.66198969  1
  H+  H128  1  0.03183784  0.39568038  0.49552034  1
  H+  H129  1  0.87542378  0.01484096  0.65169141  1
  H+  H130  1  0.37116056  0.86960311  0.16252473  1
  H+  H131  1  0.16174255  0.75707681  0.29702858  1
  H+  H132  1  0.63364515  0.76572872  0.33023777  1
  H+  H133  1  0.21661980  0.34643537  0.85032804  1
  H+  H134  1  0.51765784  0.63542926  0.33736013  1
  H+  H135  1  0.83197908  0.71988496  0.16596159  1
  H+  H136  1  0.37805428  0.15188404  0.17556630  1
  H+  H137  1  0.39591872  0.35188765  0.65063897  1
  H+  H138  1  0.64427284  0.86627817  0.83410541  1
  H+  H139  1  0.22677279  0.61144223  0.51004469  1
  H+  H140  1  0.08878364  0.22066770  0.66799509  1
  H+  H141  1  0.89239243  0.85487395  0.49740188  1
  H+  H142  1  0.10216753  0.39318125  0.67861554  1
  H+  H143  1  0.35289515  0.63856745  0.84267197  1
  H+  H144  1  0.97679026  0.61115940  0.84172520  1
  H+  H145  1  0.22103978  0.60677080  0.32845988  1
  H+  H146  1  0.73196082  0.86419744  0.84178691  1
  H+  H147  1  0.08131786  0.90497807  0.75173691  1
  H+  H148  1  0.57133874  0.10570085  0.16209730  1
  H+  H149  1  0.76649740  0.40789075  0.15765877  1
  H+  H150  1  0.85548542  0.49563250  0.15494417  1
  H+  H151  1  0.35565057  0.72365756  0.33484395  1
  H+  H152  1  0.38134464  0.47717399  0.65141621  1
  H+  H153  1  0.34130709  0.94133524  0.47446892  1
  H+  H154  1  0.63067805  0.26647259  0.83231486  1
  H+  H155  1  0.26018014  0.63030272  0.83644146  1
  H+  H156  1  0.86553461  0.39182847  0.34740790  1
  H+  H157  1  0.11901830  0.88726442  0.49110514  1
  H+  H158  1  0.80479438  0.64694965  0.00395520  1
  H+  H159  1  0.13969482  0.27172251  0.50443424  1
  H+  H160  1  0.60139291  0.96737535  0.00038232  1
  H+  H161  1  0.72789054  0.87594603  0.63784994  1
  H+  H162  1  0.38140639  0.84731189  0.50282560  1
  H+  H163  1  0.64737099  0.62589072  0.83735007  1
  H+  H164  1  0.89637978  0.39555036  0.18487870  1
  H+  H165  1  0.85995322  0.85965209  -0.00258762  1
  H+  H166  1  0.60901721  0.47000194  0.50081928  1
  H+  H167  1  0.85931865  0.47194441  0.83567898  1
  H+  H168  1  0.63789553  0.02843060  0.65998058  1
  H+  H169  1  0.36498206  0.47303298  0.00057685  1
  H+  H170  1  0.09033261  0.88517599  0.16902573  1
  H+  H171  1  0.32916937  -0.08869350  0.77266199  1
  H+  H172  1  0.61922720  0.36985492  0.17805769  1
  H+  H173  1  0.31367003  0.39430416  0.61744106  1
  H+  H174  1  0.11207261  0.12820340  0.81548295  1
  H+  H175  1  0.89126986  0.77594330  0.84852272  1
  H+  H176  1  0.60486897  0.87948684  0.00440070  1
  H+  H177  1  0.97714819  0.61675286  0.66582573  1
  H+  H178  1  0.38983449  0.78594399  0.65902597  1
  H+  H179  1  0.86280167  0.95708787  0.46852000  1
  H+  H180  1  0.11775513  0.16428843  0.39406893  1
  H+  H181  1  0.45717684  0.87077217  0.14237717  1
  H+  H182  1  -0.02163520  0.11140915  0.83423919  1
  H+  H183  1  0.90150173  -0.00577329  0.17495219  1
  H+  H184  1  0.94919850  0.67188678  0.18078057  1
  H+  H185  1  0.37255767  0.48467179  0.33736377  1
  H+  H186  1  0.86683517  0.64101618  0.67839050  1
  H+  H187  1  0.35247055  0.17441377  0.07934533  1
  H+  H188  1  0.91220283  0.10615049  0.31420467  1
  H+  H189  1  0.33444112  0.40333342  0.05507085  1
  H+  H190  1  0.37693995  0.06850965  0.51857119  1
  H+  H191  1  0.72217407  0.11388682  0.83747730  1
  H+  H192  1  0.92359414  0.33072860  1.01673916  1
  H+  H193  1  0.60201404  0.96662634  0.49496489  1
  H+  H194  1  0.41575114  0.30718240  0.59650402  1
  H+  H195  1  0.36441754  0.71999255  0.49616644  1
  H+  H196  1  0.37224412  0.87294798  0.00157545  1
  H+  H197  1  0.11872181  0.98519026  0.83370133  1
  H+  H198  1  0.25552788  0.85299193  0.48402776  1
  H+  H199  1  0.59656991  0.68143713  0.72528357  1
  H+  H200  1  0.13203979  0.87094125  0.67689511  1
  H+  H201  1  0.47442225  0.85534952  0.50723834  1
  H+  H202  1  0.86643492  0.87708865  0.67066127  1
  H+  H203  1  0.60753742  0.22030577  -0.00716416  1
  H+  H204  1  0.62637975  0.10367721  0.98767231  1
  H+  H205  1  0.68476397  0.59390390  0.16818946  1
  H+  H206  1  0.37126626  0.85392860  0.84173320  1
  H+  H207  1  0.63884363  0.29586106  0.16393401  1
  H+  H208  1  0.83932457  0.18550904  -0.04211194  1
  H+  H209  1  0.35988941  0.63108878  0.00086537  1
  H+  H210  1  0.12982149  0.98164548  0.50053016  1
  H+  H211  1  0.38712888  0.62257273  0.17792965  1
  H+  H212  1  0.52252842  0.62946757  0.49103053  1
  H+  H213  1  0.36065881  0.62869372  0.49164692  1
  H+  H214  1  0.92303181  0.83388271  0.60259465  1
  H+  H215  1  0.53502108  0.11337261  0.32614379  1
  H+  H216  1  0.71566730  0.35644844  0.83848100  1
  H+  H217  1  0.76661712  0.64128411  0.33644837  1
  H+  H218  1  0.12737997  0.59726221  0.33135591  1
  H+  H219  1  0.61276652  0.63120785  0.49304048  1
  H+  H220  1  0.87561931  0.40853606  0.00939618  1
  H+  H221  1  0.99452193  0.61871262  0.34183675  1
  H+  H222  1  0.02722323  0.37636920  0.34467937  1
  H+  H223  1  0.59988511  0.13489751  0.50175532  1
  H+  H224  1  0.28358250  0.16790214  0.36446247  1
  H+  H225  1  0.84431704  0.87037210  0.16207306  1
  H+  H226  1  0.27767054  0.36763369  0.14790757  1
  H+  H227  1  0.38057740  0.85530332  0.31513599  1
  H+  H228  1  0.74571229  0.86706968  1.00794343  1
  H+  H229  1  0.62798228  0.46678181  0.00192312  1
  H+  H230  1  0.13594731  0.26601530  0.16982115  1
  H+  H231  1  0.63371826  0.76564496  0.49433066  1
  H+  H232  1  0.13560992  0.14921816  0.01161781  1
  H+  H233  1  0.85890188  0.63033946  0.49525084  1
  H+  H234  1  0.71201570  0.09602557  -0.01667277  1
  H+  H235  1  0.78675482  0.11418217  0.32012390  1
  H+  H236  1  1.04858109  0.42723292  1.00023180  1
  H+  H237  1  -0.03152129  0.60276334  0.51433340  1
  H+  H238  1  0.64102549  0.57822483  0.23202472  1
  H+  H239  1  0.58510887  0.64391409  0.00784083  1
  H+  H240  1  0.63952763  0.36210700  0.51648432  1
  H+  H241  1  0.51983979  0.12681544  0.00228180  1
  H+  H242  1  0.11229493  0.72618761  0.83035173  1
  H+  H243  1  0.85638152  0.47680540  0.50324685  1
  H+  H244  1  0.88731875  0.52711884  0.66976893  1
  H+  H245  1  0.23668297  0.84582540  0.00182204  1
  H+  H246  1  0.27834882  0.63570450  0.65789671  1
  H+  H247  1  0.84141444  0.67342644  0.77250913  1
  H+  H248  1  0.37379437  0.09899379  0.84371485  1
  H+  H249  1  0.82512716  0.62894242  0.16019994  1
  H+  H250  1  0.98041237  0.38809737  0.18109809  1
  H+  H251  1  0.11524656  0.73507920  0.67139646  1
  H+  H252  1  0.39662025  0.27559116  1.00259344  1
  H+  H253  1  0.47886486  0.85339783  -0.01405076  1
  H+  H254  1  0.88892447  0.61295756  0.84371293  1
  H+  H255  1  0.13412313  0.08530878  0.88457195  1
  H+  H256  1  0.94770477  0.05526251  0.24203251  1
  H+  H257  1  0.37069684  0.37450117  0.14923330  1
  H+  H258  1  0.46745061  0.85279229  0.32217519  1
  H+  H259  1  0.53754212  0.64483353  0.81821229  1
  H+  H260  1  0.61121456  0.76097384  -0.00381468  1
  H+  H261  1  0.73026155  0.13202733  0.17553791  1
  H+  H262  1  0.77984442  0.64095669  0.83016648  1
  H+  H263  1  0.13309421  0.89354878  0.00430767  1
  H+  H264  1  0.24279053  0.88913281  0.17046656  1
  H+  H265  1  1.00434289  0.11119467  0.32077364  1
  H+  H266  1  0.55131112  0.45233644  0.17564653  1
  H+  H267  1  0.12324318  0.23062709  0.01506716  1
  H+  H268  1  0.87012374  0.61136772  0.32469480  1
  H+  H269  1  0.34472462  0.67068061  0.60553915  1
  H+  H270  1  0.63827766  0.27224336  0.51546949  1
  H+  H271  1  0.59769903  0.91858282  0.75979335  1
  H+  H272  1  0.44081013  0.52181398  0.86692120  1
  H+  H273  1  0.26709305  0.87921833  0.83210088  1
  H+  H274  1  0.64464897  0.53474911  0.32691599  1
  H+  H275  1  0.25424002  0.12850443  1.00406857  1
  H+  H276  1  0.24520046  0.45307238  0.77680080  1
  H+  H277  1  0.27346806  0.63917855  -0.00202295  1
  H+  H278  1  0.11786523  0.50471221  0.17383239  1
  H+  H279  1  0.14141304  0.52001969  0.50969690  1
  H+  H280  1  0.96441537  0.10234556  0.65092421  1
  H+  H281  1  0.52631119  0.89562112  0.66576129  1
  H+  H282  1  1.03810098  0.13028615  0.48261910  1
  H+  H283  1  0.12581802  0.76407862  0.16717645  1
  H+  H284  1  0.97179319  0.36043589  0.84698703  1
  H+  H285  1  0.38494836  0.53306133  0.81751468  1
  H+  H286  1  0.12987497  0.13886571  0.49097693  1
  H+  H287  1  0.62475524  0.13931069  0.67483568  1
  H+  H288  1  0.87800482  0.50679436  0.00243308  1
  H+  H289  1  0.84839596  0.10825645  -0.01427765  1
  H+  H290  1  0.87502063  0.21571555  0.05470893  1
  H+  H291  1  0.65556557  0.82565186  0.93574390  1
  H+  H292  1  0.08971142  0.41754582  0.09377526  1
  H+  H293  1  0.36340991  0.89641578  0.67416449  1
  H+  H294  1  0.31057003  0.44547641  0.73283556  1
  H+  H295  1  0.21348952  0.85196813  0.31821912  1
  H+  H296  1  0.91042115  0.58172005  0.57437657  1
  H+  H297  1  0.40343082  0.09628533  0.61310402  1
  H+  H298  1  0.33337088  0.65938203  0.09681848  1
  H+  H299  1  0.18565081  0.11475907  0.24463908  1
  H+  H300  1  0.92253862  0.35185023  0.61416006  1
  H+  H301  1  0.17202773  0.33243281  0.22470728  1
  H+  H302  1  0.23015682  0.36819974  0.99126669  1
  H+  H303  1  0.07381728  0.94465230  0.41061709  1
  H+  H304  1  0.58005095  0.41724633  0.72897749  1
  H+  H305  1  0.40506658  0.06555596  0.94087560  1
  H+  H306  1  0.42006054  0.57344731  0.55905575  1
  H+  H307  1  0.14188998  0.81926669  0.22787232  1
  H+  H308  1  0.58536182  0.18613841  0.08164315  1
  H+  H309  1  0.59937953  0.64378864  0.15500952  1
  H+  H310  1  0.64987147  0.31732965  0.92561818  1
  H+  H311  1  0.32756202  0.66530837  0.39562614  1
  H+  H312  1  0.08089797  0.65594352  0.06652236  1
  H+  H313  1  0.08328442  0.67140844  0.76905696  1
  H+  H314  1  0.86510484  0.22885209  0.67356246  1
  H+  H315  1  0.65726954  0.09282656  0.31291061  1
  H+  H316  1  0.57252666  0.68035066  0.09614785  1
  H+  H317  1  0.83162621  0.68386654  0.07123064  1
  H+  H318  1  0.15817441  0.32672011  0.90825775  1
  H+  H319  1  0.88231804  0.35948543  0.84745837  1
  H+  H320  1  0.66516285  0.34549452  0.26908159  1
  H+  H321  1  0.35592379  0.72721563  0.14702437  1
  H+  H322  1  0.41560928  0.84280162  0.60044456  1
  H+  H323  1  0.66325666  0.83817589  0.23376294  1
  H+  H324  1  0.91597719  0.06090106  0.55413223  1
  H+  H325  1  0.58424277  0.16342843  0.73851749  1
  H+  H326  1  0.11863755  0.64796486  0.67278909  1
  H+  H327  1  0.15045775  0.33219509  0.59731855  1
  H+  H328  1  0.42819635  0.33448076  0.26657531  1
  H+  H329  1  0.60190574  0.43619696  0.40057001  1
  H+  H330  1  0.82422596  0.66221128  0.39806587  1
  H+  H331  1  0.91876595  0.57944350  0.93428363  1
  H+  H332  1  0.21055533  0.10154747  0.93937182  1
  H+  H333  1  0.15345784  0.80318925  0.55678479  1
  H+  H334  1  0.92608761  0.35238867  0.94297298  1
  H+  H335  1  0.83103718  0.41504601  0.77596648  1
  H+  H336  1  0.16545230  0.58839034  0.90344876  1
  H+  H337  1  0.87015586  0.52135556  0.32177324  1
  H+  H338  1  0.09185373  0.16065302  0.10067838  1
  H+  H339  1  0.12841901  0.13937229  0.16301924  1
  H+  H340  1  0.84537078  0.14470260  0.37748384  1
  H+  H341  1  0.16320997  0.58253286  0.60557221  1
  H+  H342  1  0.41494304  0.58598044  0.93609033  1
  H+  H343  1  0.31412385  0.89328810  0.38386495  1
  H+  H344  1  0.44652977  0.31276878  0.91328676  1
  H+  H345  1  0.65303561  1.00448085  0.32520121  1
  H+  H346  1  0.31176494  0.94304703  0.12032675  1
  H+  H347  1  0.90612718  0.06213111  0.93055556  1
  H+  H348  1  0.07653380  0.70758739  0.35572303  1
  H+  H349  1  0.83435485  0.16853359  0.76981425  1
  H+  H350  1  0.18618566  0.89448915  0.61558895  1
  H+  H351  1  0.17338029  0.82893894  0.90457354  1
  H+  H352  1  0.56956837  0.10116580  0.26380251  1
  H+  H353  1  0.90565439  0.83463798  0.93792042  1
  H+  H354  1  0.84966853  0.92227849  0.77281672  1
  H+  H355  1  0.06129502  0.63660434  0.43789228  1
  H+  H356  1  0.17697710  0.09592306  0.56595714  1
  H+  H357  1  0.86270324  0.39119522  0.68303911  1
  H+  H358  1  0.91149815  0.60037553  0.23278952  1
  H+  H359  1  0.08104290  0.42232812  0.74282313  1
  H+  H360  1  0.68854975  0.58506991  0.92829632  1
  H+  H361  1  0.65624071  0.07681583  0.89373182  1
  H+  H362  1  0.83476028  0.43375632  0.06809193  1
  H+  H363  1  0.14914956  0.56308840  0.23350471  1
  H+  H364  1  0.86295491  0.99989640  -0.01142362  1
  H+  H365  1  0.28533889  0.39404823  0.33442084  1
  H+  H366  1  0.66756172  0.32754647  0.60693064  1
  H+  H367  1  0.41995417  0.59075956  0.26534456  1
  H+  H368  1  0.95962257  0.86747144  0.33394324  1
  H+  H369  1  0.81128538  0.90107740  0.06676594  1
  H+  H370  1  0.60421511  0.12530988  0.82346141  1
  H+  H371  1  0.40988384  0.82327481  0.90310701  1
  H+  H372  1  0.32344941  0.16135621  0.74632503  1
  H+  H373  1  0.92448533  0.34774516  0.27916462  1
  H+  H374  1  0.57813982  0.66119150  0.39722631  1
  H+  H375  1  0.66868026  0.58276964  0.56658466  1
  H+  H376  1  0.38001514  0.01369418  0.84352816  1
  H+  H377  1  0.66644125  0.83580438  0.58080135  1
  H+  H378  1  0.71942488  0.85533046  0.34120921  1
  H+  H379  1  0.36330848  0.88147852  0.06992757  1
  H+  H380  1  0.89057829  0.82347835  0.24035037  1
  H+  H381  1  0.57200747  0.90414115  0.39656224  1
  H+  H382  1  0.40696214  0.08771064  0.28764304  1
  H+  H383  1  0.65697759  0.07893703  0.56752333  1
  O2-  O384  1  0.08660504  0.15658073  0.14745641  1
  O2-  O385  1  0.09905464  0.16654567  0.47102807  1
  O2-  O386  1  0.07741459  0.15813327  0.80195661  1
  O2-  O387  1  0.07103258  0.39543276  0.13577595  1
  O2-  O388  1  0.09111652  0.41794890  0.48030394  1
  O2-  O389  1  0.08021686  0.41447303  0.81927278  1
  O2-  O390  1  0.08726870  0.65916369  0.14416078  1
  O2-  O391  1  0.06942361  0.64410215  0.48307051  1
  O2-  O392  1  0.08124731  0.66620754  0.81411328  1
  O2-  O393  1  0.05753566  0.91548554  0.17245681  1
  O2-  O394  1  0.09243959  0.92299571  0.48324624  1
  O2-  O395  1  0.09115857  0.91993255  0.82583635  1
  O2-  O396  1  0.35130835  0.18247860  0.15585216  1
  O2-  O397  1  0.35530583  0.21525019  0.48923933  1
  O2-  O398  1  0.31776126  0.15134850  0.81835306  1
  O2-  O399  1  0.33130845  0.38672433  0.12499952  1
  O2-  O400  1  0.33704141  0.40464525  0.47388574  1
  O2-  O401  1  0.30553495  0.48029734  0.76520315  1
  O2-  O402  1  0.33623646  0.66583132  0.14149417  1
  O2-  O403  1  0.32895054  0.65948144  0.48167677  1
  O2-  O404  1  0.32339276  0.66601468  0.82429466  1
  O2-  O405  1  0.30618951  0.93069728  0.16377656  1
  O2-  O406  1  0.31507040  0.88023035  0.46625571  1
  O2-  O407  1  0.32925379  0.90796150  0.81786778  1
  O2-  O408  1  0.58177764  0.19781706  0.12690839  1
  O2-  O409  1  0.58178175  0.17649161  0.48924060  1
  O2-  O410  1  0.57257532  0.15366414  0.80560553  1
  O2-  O411  1  0.52860320  0.39071824  0.16556922  1
  O2-  O412  1  0.58618426  0.41008169  0.48575637  1
  O2-  O413  1  0.55448643  0.43517144  0.80201538  1
  O2-  O414  1  0.58148959  0.68539152  0.14184333  1
  O2-  O415  1  0.58344607  0.66219815  0.47712426  1
  O2-  O416  1  0.59758047  0.67761372  0.80353049  1
  O2-  O417  1  0.56767113  0.92157032  0.14327963  1
  O2-  O418  1  0.57263086  0.90675623  0.47871491  1
  O2-  O419  1  0.59969851  0.91565436  0.80453338  1
  O2-  O420  1  0.90066943  0.27235324  0.07574531  1
  O2-  O421  1  0.79184639  0.16908264  0.45336719  1
  O2-  O422  1  0.83257947  0.16568546  0.81492172  1
  O2-  O423  1  0.82727041  0.43526450  0.14233783  1
  O2-  O424  1  0.83151042  0.41635223  0.48772953  1
  O2-  O425  1  0.82949271  0.41113354  0.82128758  1
  O2-  O426  1  0.79954627  0.66263681  0.14499675  1
  O2-  O427  1  0.82987530  0.66089600  0.47840031  1
  O2-  O428  1  0.84154463  0.67207132  0.81796284  1
  O2-  O429  1  0.82443136  0.90984583  0.14598322  1
  O2-  O430  1  0.82967570  0.89584129  0.45474456  1
  O2-  O431  1  0.84411974  0.91950487  0.81743616  1
  O2-  O432  1  0.18462165  0.10203550  0.20097006  1
  O2-  O433  1  0.18199257  0.09263226  0.51975937  1
  O2-  O434  1  0.15827640  0.08477876  0.84501808  1
  O2-  O435  1  0.16734445  0.32848763  0.17961639  1
  O2-  O436  1  0.16802361  0.33078812  0.52199667  1
  O2-  O437  1  0.15670047  0.32345439  0.86154566  1
  O2-  O438  1  0.14130806  0.56375878  0.18905729  1
  O2-  O439  1  0.16652967  0.57970443  0.52628352  1
  O2-  O440  1  0.16155103  0.57641102  0.85558727  1
  O2-  O441  1  0.14394763  0.82317501  0.18263955  1
  O2-  O442  1  0.15452483  0.80757836  0.51236070  1
  O2-  O443  1  0.16988314  0.83143383  0.85905719  1
  O2-  O444  1  0.40936997  0.08304414  0.21025228  1
  O2-  O445  1  0.41393778  0.12123234  0.54063223  1
  O2-  O446  1  0.41020218  0.07469878  0.85761465  1
  O2-  O447  1  0.43936227  0.34628905  0.18966729  1
  O2-  O448  1  0.40391456  0.30537340  0.51073885  1
  O2-  O449  1  0.46199362  0.29761995  0.87221755  1
  O2-  O450  1  0.42002339  0.59684153  0.19659688  1
  O2-  O451  1  0.41540822  0.57423237  0.51399855  1
  O2-  O452  1  0.43115865  0.56549856  0.84827202  1
  O2-  O453  1  0.39421661  0.84398171  0.13413737  1
  O2-  O454  1  0.41410160  0.82424742  0.52442857  1
  O2-  O455  1  0.39980848  0.81996619  0.85560531  1
  O2-  O456  1  0.54454192  0.05571365  0.19015150  1
  O2-  O457  1  0.64588852  0.07077040  0.52288612  1
  O2-  O458  1  0.65996229  0.08168216  0.84804114  1
  O2-  O459  1  0.66348815  0.35304030  0.18401275  1
  O2-  O460  1  0.67031754  0.33282313  0.53294530  1
  O2-  O461  1  0.65318079  0.32544783  0.84764376  1
  O2-  O462  1  0.62755663  0.56877342  0.18736389  1
  O2-  O463  1  0.66369342  0.57881612  0.52136489  1
  O2-  O464  1  0.67270648  0.59091554  0.85277762  1
  O2-  O465  1  0.66383882  0.84433097  0.18889840  1
  O2-  O466  1  0.66545294  0.82842106  0.50591943  1
  O2-  O467  1  0.67013848  0.83228916  0.85260688  1
  O2-  O468  1  0.95527940  0.03901875  0.19714799  1
  O2-  O469  1  0.92231330  0.05794518  0.50878783  1
  O2-  O470  1  0.91849982  0.08113971  0.85133994  1
  O2-  O471  1  0.93838268  0.38877756  0.20948007  1
  O2-  O472  1  0.92961884  0.36236965  0.53437906  1
  O2-  O473  1  0.91206262  0.32866364  0.86331360  1
  O2-  O474  1  0.91663510  0.60985710  0.18712994  1
  O2-  O475  1  0.90803011  0.57812443  0.52882553  1
  O2-  O476  1  0.91695388  0.58033529  0.85842212  1
  O2-  O477  1  0.89269519  0.82010576  0.19533095  1
  O2-  O478  1  0.92242249  0.83060538  0.51991462  1
  O2-  O479  1  0.91938857  0.83494845  0.86645296  1
  O2-  O480  1  0.17045677  0.12316396  0.33173851  1
  O2-  O481  1  0.16497817  0.09682942  0.63643470  1
  O2-  O482  1  0.19734675  0.10225539  0.98239814  1
  O2-  O483  1  0.17906356  0.33425666  0.30610257  1
  O2-  O484  1  0.14292095  0.33213428  0.64293308  1
  O2-  O485  1  0.16751020  0.33977385  0.97961104  1
  O2-  O486  1  0.15903765  0.56960840  0.31604813  1
  O2-  O487  1  0.16911920  0.59048973  0.65074780  1
  O2-  O488  1  0.17971321  0.61683044  0.96667176  1
  O2-  O489  1  0.15392715  0.80631175  0.30524027  1
  O2-  O490  1  0.17221761  0.85451014  0.64942156  1
  O2-  O491  1  0.18060130  0.82175084  0.98086412  1
  O2-  O492  1  0.40578002  0.07964962  0.33275160  1
  O2-  O493  1  0.39766546  0.08580400  0.65857596  1
  O2-  O494  1  0.40971344  0.06808876  0.98600714  1
  O2-  O495  1  0.41418487  0.32730273  0.31117864  1
  O2-  O496  1  0.42135259  0.31520365  0.64130802  1
  O2-  O497  1  0.42471679  0.33131285  0.98013907  1
  O2-  O498  1  0.41928633  0.58623108  0.31254783  1
  O2-  O499  1  0.43030256  0.57927341  0.63963883  1
  O2-  O500  1  0.41047437  0.58100415  0.98038606  1
  O2-  O501  1  0.40715562  0.81990530  0.30722710  1
  O2-  O502  1  0.41657427  0.84675523  0.64615127  1
  O2-  O503  1  0.41854555  0.82157243  0.96818422  1
  O2-  O504  1  0.69190129  0.06341679  0.30973460  1
  O2-  O505  1  0.66718935  0.09082979  0.64690177  1
  O2-  O506  1  0.65046642  0.06825725  0.97022385  1
  O2-  O507  1  0.66384841  0.34660099  0.31387279  1
  O2-  O508  1  0.66713552  0.32541208  0.65325809  1
  O2-  O509  1  0.64742500  0.30887200  0.97047447  1
  O2-  O510  1  0.67107248  0.59484219  0.30741483  1
  O2-  O511  1  0.67406791  0.58606618  0.64630344  1
  O2-  O512  1  0.70016765  0.57900513  0.97213342  1
  O2-  O513  1  0.66554778  0.82820230  0.31773449  1
  O2-  O514  1  0.66701412  0.84104364  0.62664134  1
  O2-  O515  1  0.65190280  0.82560287  0.98076103  1
  O2-  O516  1  0.94549876  0.07629960  0.30491250  1
  O2-  O517  1  0.90522960  0.07161861  0.63212535  1
  O2-  O518  1  0.89474560  0.06051054  0.97475689  1
  O2-  O519  1  0.92006578  0.33109517  0.32331966  1
  O2-  O520  1  0.91496994  0.33917933  0.65851351  1
  O2-  O521  1  0.94055064  0.37733240  0.98464352  1
  O2-  O522  1  0.90033882  0.58198973  0.30662648  1
  O2-  O523  1  0.91592080  0.58660260  0.65236914  1
  O2-  O524  1  0.91762460  0.57922550  0.98006934  1
  O2-  O525  1  0.89834001  0.83326296  0.32294565  1
  O2-  O526  1  0.92025193  0.83437671  0.64776959  1
  O2-  O527  1  0.89851486  0.83483414  0.98394689  1
  O2-  O528  1  0.10135148  0.17197156  0.03088742  1
  O2-  O529  1  0.11851571  0.16307104  0.34800286  1
  O2-  O530  1  0.06301159  0.15980713  0.68054040  1
  O2-  O531  1  0.10816220  0.44818849  0.01570512  1
  O2-  O532  1  0.08867231  0.40522723  0.35842295  1
  O2-  O533  1  0.07861048  0.42737821  0.69731770  1
  O2-  O534  1  0.07585338  0.65797737  0.02131785  1
  O2-  O535  1  0.05256722  0.64550820  0.36217049  1
  O2-  O536  1  0.08576786  0.67596615  0.68723181  1
  O2-  O537  1  0.10121080  0.92103209  0.01900656  1
  O2-  O538  1  0.05539545  0.96335148  0.37334478  1
  O2-  O539  1  0.08155329  0.89905669  0.70613135  1
  O2-  O540  1  0.35188176  0.17312615  0.03360199  1
  O2-  O541  1  0.34481020  0.19485365  0.37584178  1
  O2-  O542  1  0.32670961  0.16101340  0.69957646  1
  O2-  O543  1  0.33437556  0.40994384  0.00888012  1
  O2-  O544  1  0.34344017  0.42384320  0.35330750  1
  O2-  O545  1  0.34178191  0.41272073  0.65715908  1
  O2-  O546  1  0.33447458  0.66763049  0.01352085  1
  O2-  O547  1  0.32405839  0.66224367  0.35080144  1
  O2-  O548  1  0.34200761  0.66575448  0.64986967  1
  O2-  O549  1  0.34769918  0.89826325  0.03049036  1
  O2-  O550  1  0.31501358  0.90729161  0.34035315  1
  O2-  O551  1  0.33383558  0.92610751  0.69224797  1
  O2-  O552  1  0.58172447  0.15967545  0.01336970  1
  O2-  O553  1  0.58820007  0.12905846  0.30413202  1
  O2-  O554  1  0.59448042  0.17122951  0.69139874  1
  O2-  O555  1  0.59386191  0.40903490  0.01935409  1
  O2-  O556  1  0.60834687  0.44689553  0.35661552  1
  O2-  O557  1  0.58888687  0.41429772  0.68438362  1
  O2-  O558  1  0.55848488  0.67648396  0.02119327  1
  O2-  O559  1  0.57946072  0.66525915  0.35209205  1
  O2-  O560  1  0.59367317  0.67590974  0.67977591  1
  O2-  O561  1  0.57181815  0.90819062  0.01832102  1
  O2-  O562  1  0.57282021  0.90199003  0.35151790  1
  O2-  O563  1  0.58851847  0.92546992  0.67647793  1
  O2-  O564  1  0.82019182  0.14630674  -0.00757784  1
  O2-  O565  1  0.85115268  0.15057480  0.33331948  1
  O2-  O566  1  0.83228954  0.16704858  0.68596295  1
  O2-  O567  1  0.84097652  0.43623222  0.02222396  1
  O2-  O568  1  0.83615415  0.42400140  0.35907126  1
  O2-  O569  1  0.83293723  0.42274568  0.69675116  1
  O2-  O570  1  0.85209289  0.69258323  0.02809710  1
  O2-  O571  1  0.82782155  0.66823859  0.35289582  1
  O2-  O572  1  0.83789246  0.67323268  0.69267624  1
  O2-  O573  1  0.80860509  0.89757602  0.02142381  1
  O2-  O574  1  0.82302366  0.90470496  0.38844846  1
  O2-  O575  1  0.82875823  0.90032130  0.68751672  1
