# generated using pymatgen
data_H2O
_symmetry_space_group_name_H-M   'P 1'
_cell_length_a   17.95275437
_cell_length_b   17.94942599
_cell_length_c   21.94920563
_cell_angle_alpha   89.96995699
_cell_angle_beta   90.03851622
_cell_angle_gamma   119.99037889
_symmetry_Int_Tables_number   1
_chemical_formula_structural   H2O
_chemical_formula_sum   'H384 O192'
_cell_volume   6125.94481723
_cell_formula_units_Z   192
loop_
 _symmetry_equiv_pos_site_id
 _symmetry_equiv_pos_as_xyz
  1  'x, y, z'
loop_
 _atom_type_symbol
 _atom_type_oxidation_number
  H+  1.0
  O2-  -2.0
loop_
 _atom_site_type_symbol
 _atom_site_label
 _atom_site_symmetry_multiplicity
 _atom_site_fract_x
 _atom_site_fract_y
 _atom_site_fract_z
 _atom_site_occupancy
  H+  H0  1  0.35327825  0.97307148  0.19413397  1
  H+  H1  1  0.63987309  0.02287741  0.85151682  1
  H+  H2  1  0.24381785  0.63683064  0.85664123  1
  H+  H3  1  0.63163554  0.02407071  0.17313665  1
  H+  H4  1  0.58843017  0.65469624  0.40440714  1
  H+  H5  1  1.02571675  0.67588576  0.35244242  1
  H+  H6  1  0.64312787  0.35937734  0.50650561  1
  H+  H7  1  0.61422512  0.13449591  0.68471232  1
  H+  H8  1  0.11508239  0.96602639  0.67397799  1
  H+  H9  1  0.38714205  0.27225064  0.83922386  1
  H+  H10  1  0.60044567  0.13063054  0.16546851  1
  H+  H11  1  0.91838615  0.86519810  0.50364749  1
  H+  H12  1  0.62882128  0.01687280  0.49516905  1
  H+  H13  1  0.26176099  0.86263289  -0.03396701  1
  H+  H14  1  0.77042440  0.14899211  0.90813176  1
  H+  H15  1  0.37897567  0.11362343  0.18015257  1
  H+  H16  1  0.41319224  0.33044835  0.89949755  1
  H+  H17  1  0.63809386  0.76968741  0.35511646  1
  H+  H18  1  0.61503989  0.87802873  0.67652866  1
  H+  H19  1  0.03306701  0.13408321  0.64982935  1
  H+  H20  1  0.48858509  0.88223045  0.33122873  1
  H+  H21  1  0.63981701  0.27084251  0.66562490  1
  H+  H22  1  0.03251208  0.15491926  0.47391100  1
  H+  H23  1  0.13710120  0.77185638  0.83346352  1
  H+  H24  1  0.15499867  0.87384038  0.33293903  1
  H+  H25  1  0.83837007  0.22616372  0.07545197  1
  H+  H26  1  0.62512223  0.22687889  0.49503641  1
  H+  H27  1  0.77606126  0.13451198  0.64659280  1
  H+  H28  1  0.05321209  0.88672454  0.04419795  1
  H+  H29  1  0.14891667  0.28891175  0.83747293  1
  H+  H30  1  0.97088661  0.61152708  0.50952550  1
  H+  H31  1  0.99673601  0.85777113  0.14484590  1
  H+  H32  1  0.38816040  0.52577738  0.83675904  1
  H+  H33  1  0.60155604  0.88391784  0.16399971  1
  H+  H34  1  0.01670776  0.25792770  0.77931348  1
  H+  H35  1  0.61876654  0.26310800  0.16829541  1
  H+  H36  1  0.35421225  0.48284284  0.16335053  1
  H+  H37  1  0.43714132  0.09281108  0.60195899  1
  H+  H38  1  0.37754918  0.11235364  0.33153664  1
  H+  H39  1  0.72878189  0.60941139  0.50289795  1
  H+  H40  1  0.67121166  0.84235591  0.40403632  1
  H+  H41  1  0.39443028  0.78691069  0.83177197  1
  H+  H42  1  0.88721962  0.10932008  0.32534258  1
  H+  H43  1  0.00881009  0.24280150  0.81184651  1
  H+  H44  1  0.12352131  0.22128775  0.65243256  1
  H+  H45  1  0.57898107  0.41919538  0.44033740  1
  H+  H46  1  0.88097832  0.60088903  0.66527064  1
  H+  H47  1  0.68045223  0.82801955  0.71569043  1
  H+  H48  1  -0.00402429  0.20651954  0.03671181  1
  H+  H49  1  0.13899016  0.02122832  0.84091945  1
  H+  H50  1  0.57029986  0.03818117  0.61517164  1
  H+  H51  1  0.26049741  0.40425679  0.32895524  1
  H+  H52  1  0.12394965  0.64547258  0.83915770  1
  H+  H53  1  0.77790211  0.13274812  0.48708230  1
  H+  H54  1  0.89236108  0.11307509  0.48934702  1
  H+  H55  1  0.78508346  0.88437095  0.35000662  1
  H+  H56  1  0.49706768  0.11110371  0.50805341  1
  H+  H57  1  1.00970109  0.14335382  0.16594966  1
  H+  H58  1  0.15734892  0.54973726  0.87012873  1
  H+  H59  1  0.63692206  0.11044074  0.85831670  1
  H+  H60  1  0.85975493  0.46686230  0.67822253  1
  H+  H61  1  0.51467587  0.12228196  1.00936690  1
  H+  H62  1  0.62036756  0.77055829  1.00019725  1
  H+  H63  1  1.03458941  0.24550549  1.02376242  1
  H+  H64  1  0.88908119  0.85602102  0.64911062  1
  H+  H65  1  0.11728983  -0.01951146  0.34174758  1
  H+  H66  1  0.88026557  0.50963236  0.30667145  1
  H+  H67  1  0.07705358  0.51809623  0.31141071  1
  H+  H68  1  0.38491592  0.10629784  0.99325867  1
  H+  H69  1  0.60698355  0.17736163  0.39414971  1
  H+  H70  1  0.41268577  1.01571056  0.51461609  1
  H+  H71  1  0.58193159  0.47288197  0.01346779  1
  H+  H72  1  0.26617256  0.39172491  1.00893939  1
  H+  H73  1  0.42157693  0.83691601  0.27639785  1
  H+  H74  1  0.60564407  0.08979844  0.00962825  1
  H+  H75  1  0.38115891  0.02518797  0.33422531  1
  H+  H76  1  0.59520755  0.60191387  -0.01445792  1
  H+  H77  1  0.35515329  0.76422670  0.49589776  1
  H+  H78  1  0.47447186  0.86201839  0.65468446  1
  H+  H79  1  0.38239248  0.12508630  0.49586245  1
  H+  H80  1  0.24376774  0.67568295  0.36172851  1
  H+  H81  1  0.83120395  0.88839924  0.90266299  1
  H+  H82  1  0.38062538  0.61910249  0.17472350  1
  H+  H83  1  0.37349981  0.89166321  0.35140137  1
  H+  H84  1  0.29488632  0.30117524  0.44139425  1
  H+  H85  1  0.61229353  -0.00204342  0.65681171  1
  H+  H86  1  0.65067173  0.61721755  0.32684210  1
  H+  H87  1  0.10343269  0.39284934  0.15081929  1
  H+  H88  1  0.10506466  0.62965098  0.14042982  1
  H+  H89  1  0.78209492  0.38456035  0.83792312  1
  H+  H90  1  0.76444776  0.13972856  0.15948702  1
  H+  H91  1  0.87197676  0.77626920  0.16973719  1
  H+  H92  1  0.80361166  0.88558421  0.50331332  1
  H+  H93  1  0.37749326  0.88382346  -0.00911196  1
  H+  H94  1  0.01456313  0.62526299  0.13000455  1
  H+  H95  1  0.86272776  0.71894059  0.67250298  1
  H+  H96  1  0.40815529  0.08545021  0.24176604  1
  H+  H97  1  0.59884560  -0.01560001  1.00924450  1
  H+  H98  1  0.47463004  0.90091025  0.49167540  1
  H+  H99  1  0.59912279  0.48643442  0.34971948  1
  H+  H100  1  0.61539655  0.38060687  0.67765031  1
  H+  H101  1  0.89330136  0.02406432  0.63687568  1
  H+  H102  1  0.72944817  0.60805701  0.83752030  1
  H+  H103  1  0.22221387  0.12296963  0.17270607  1
  H+  H104  1  0.11540423  0.24873526  0.47465575  1
  H+  H105  1  0.13826069  0.10910157  0.83294398  1
  H+  H106  1  0.10188168  0.87006397  0.67991358  1
  H+  H107  1  0.58189763  0.91269810  0.73205952  1
  H+  H108  1  0.02300811  0.11373464  0.80407629  1
  H+  H109  1  0.97688348  0.85588543  0.66075941  1
  H+  H110  1  0.08889138  0.15345661  0.74935114  1
  H+  H111  1  0.61685173  0.47023940  0.82956136  1
  H+  H112  1  0.39142537  0.87358533  0.82251787  1
  H+  H113  1  0.36345882  0.68586553  0.51869448  1
  H+  H114  1  0.47734138  0.61362728  0.83651120  1
  H+  H115  1  0.36640800  0.38599093  0.67350821  1
  H+  H116  1  0.29599648  0.91707034  0.62979115  1
  H+  H117  1  0.26148286  0.64065205  0.15994248  1
  H+  H118  1  0.19367107  0.84768169  0.10627471  1
  H+  H119  1  0.24913363  0.42476617  0.48035575  1
  H+  H120  1  0.10608668  0.05583519  0.10949655  1
  H+  H121  1  0.56251282  0.90380764  1.07486332  1
  H+  H122  1  0.63094334  0.23662639  0.33377702  1
  H+  H123  1  0.37473979  0.35723692  -0.00381718  1
  H+  H124  1  0.25687404  0.66862640  0.33074966  1
  H+  H125  1  0.32787378  0.68303691  0.10541923  1
  H+  H126  1  0.88578210  0.36199108  0.65247537  1
  H+  H127  1  0.45877740  0.36241716  0.17894690  1
  H+  H128  1  1.02424108  0.88072391  0.82839523  1
  H+  H129  1  0.14373349  0.10190252  0.65260876  1
  H+  H130  1  0.36471628  0.63854334  0.67239150  1
  H+  H131  1  0.86241001  0.23473849  0.90583533  1
  H+  H132  1  0.22141181  0.62801946  0.50815516  1
  H+  H133  1  0.89546235  0.85887472  0.32587037  1
  H+  H134  1  0.37280583  0.13928711  0.67419117  1
  H+  H135  1  0.77228410  0.63009460  0.67346239  1
  H+  H136  1  0.85140662  0.89021703  0.15117741  1
  H+  H137  1  0.64660869  0.36504746  0.85280119  1
  H+  H138  1  0.35092440  0.39131865  0.16537007  1
  H+  H139  1  0.36048569  0.89052182  0.66019383  1
  H+  H140  1  0.10414527  0.61387213  0.67983005  1
  H+  H141  1  0.33696613  0.34289557  0.44274007  1
  H+  H142  1  0.39959070  0.24652566  0.51505974  1
  H+  H143  1  0.87651286  0.72055421  0.32544599  1
  H+  H144  1  0.53281787  0.63468110  0.34281999  1
  H+  H145  1  0.94695981  0.86844180  0.98156202  1
  H+  H146  1  0.87410922  0.63060730  0.31940686  1
  H+  H147  1  0.61528125  0.90070400  0.35042536  1
  H+  H148  1  0.39844463  1.03351758  0.66012842  1
  H+  H149  1  0.07831442  0.84249284  0.13409819  1
  H+  H150  1  0.41858171  0.63468271  0.33677517  1
  H+  H151  1  0.61480813  0.63200095  0.66841701  1
  H+  H152  1  0.64379360  0.51388201  0.50918076  1
  H+  H153  1  0.85453437  0.38470302  0.33775241  1
  H+  H154  1  0.86963236  0.51084093  0.13840363  1
  H+  H155  1  0.13976980  0.35697030  0.64755065  1
  H+  H156  1  0.13119768  0.76184223  0.13906809  1
  H+  H157  1  0.39059207  0.11751572  0.83742375  1
  H+  H158  1  0.41709283  0.84830324  0.59461217  1
  H+  H159  1  0.10670276  0.64909613  0.50239346  1
  H+  H160  1  0.81213711  0.36070203  0.08002431  1
  H+  H161  1  0.53090535  0.14219619  0.68405231  1
  H+  H162  1  0.72082241  0.36867354  0.31929748  1
  H+  H163  1  0.88073147  0.84157001  0.83937267  1
  H+  H164  1  0.82390474  0.22655636  1.00337103  1
  H+  H165  1  0.52562134  0.89711409  0.82165235  1
  H+  H166  1  0.64950667  0.27942945  0.86323857  1
  H+  H167  1  0.12369913  0.52557500  0.16384941  1
  H+  H168  1  0.10404714  -0.04071871  0.99119248  1
  H+  H169  1  0.47990578  0.35993429  0.66915073  1
  H+  H170  1  0.86481320  0.22327703  0.33709556  1
  H+  H171  1  0.14366510  0.08448492  1.00343684  1
  H+  H172  1  0.13356171  0.28707784  0.31477703  1
  H+  H173  1  0.83960883  0.89078598  -0.00403239  1
  H+  H174  1  0.13491083  0.86194634  0.83646175  1
  H+  H175  1  -0.07499632  0.58292302  0.89458150  1
  H+  H176  1  0.35365649  0.23008539  0.16310559  1
  H+  H177  1  0.13814477  0.12022616  0.32358884  1
  H+  H178  1  0.48079144  0.61439788  0.66263215  1
  H+  H179  1  0.29139622  0.12454745  0.49963599  1
  H+  H180  1  0.24121072  0.86946764  0.34425874  1
  H+  H181  1  0.52782856  0.38064631  0.83240878  1
  H+  H182  1  0.61716018  0.76027421  0.83972422  1
  H+  H183  1  0.38191905  0.86553608  0.19641670  1
  H+  H184  1  0.10647536  0.40057881  0.33113324  1
  H+  H185  1  0.36882229  0.64308106  0.83101320  1
  H+  H186  1  0.59274120  0.37762912  0.16678788  1
  H+  H187  1  0.87480083  0.26911065  0.17380005  1
  H+  H188  1  0.86102538  0.72634745  0.48151858  1
  H+  H189  1  0.87505239  0.02524886  0.16811766  1
  H+  H190  1  0.88160807  0.64466466  0.13441916  1
  H+  H191  1  0.50901618  0.12859140  0.16770431  1
  H+  H192  1  0.35770828  0.49158706  0.33147693  1
  H+  H193  1  0.70162390  0.38427007  0.95152531  1
  H+  H194  1  0.35752018  0.72360557  0.67000297  1
  H+  H195  1  0.86632756  0.47940899  0.49130400  1
  H+  H196  1  0.86251288  0.22439990  0.64715624  1
  H+  H197  1  0.70323652  0.35170681  0.15350600  1
  H+  H198  1  0.49740663  0.58972627  0.51044894  1
  H+  H199  1  0.27094531  0.14135229  0.34750216  1
  H+  H200  1  0.12662324  0.28448607  0.16439158  1
  H+  H201  1  0.56888243  0.88482885  0.48460155  1
  H+  H202  1  0.15911694  0.34861973  0.25627679  1
  H+  H203  1  0.86308501  0.62376979  0.82528637  1
  H+  H204  1  0.13763399  0.13093764  0.18285210  1
  H+  H205  1  0.91393709  0.33920927  0.58699794  1
  H+  H206  1  0.09177512  0.61378122  0.31825782  1
  H+  H207  1  0.16397008  0.76764737  0.97711430  1
  H+  H208  1  0.04999416  0.87750760  0.49592682  1
  H+  H209  1  0.14656591  0.89461499  0.50051150  1
  H+  H210  1  0.33856309  0.41667227  0.76557079  1
  H+  H211  1  0.60041550  0.62628795  0.16026257  1
  H+  H212  1  0.94919171  0.37186720  0.92080052  1
  H+  H213  1  0.86821085  0.03009920  0.96734235  1
  H+  H214  1  0.61833661  0.51812220  0.17414594  1
  H+  H215  1  0.77333019  0.88459266  0.66591703  1
  H+  H216  1  0.88211789  0.36496344  0.49460993  1
  H+  H217  1  0.70604687  0.84395966  0.85536256  1
  H+  H218  1  0.36272064  0.22159917  0.00718321  1
  H+  H219  1  0.77669791  0.13360833  0.33345245  1
  H+  H220  1  0.75147901  0.89221817  0.00047019  1
  H+  H221  1  0.66962089  0.57290672  0.60269747  1
  H+  H222  1  0.92520335  0.73443980  0.10115727  1
  H+  H223  1  0.53036537  0.14082836  0.83886234  1
  H+  H224  1  0.73468885  0.60858477  0.31988165  1
  H+  H225  1  0.27412892  0.13593970  0.82797383  1
  H+  H226  1  1.01215438  0.37178247  0.65660090  1
  H+  H227  1  0.62238048  0.71042405  0.50623139  1
  H+  H228  1  0.33431236  0.16490678  0.76827473  1
  H+  H229  1  0.85473895  0.14076341  0.15814884  1
  H+  H230  1  0.60883519  0.88698403  0.82705565  1
  H+  H231  1  0.38304732  0.52091008  0.99443577  1
  H+  H232  1  0.35687607  0.50135273  0.47980106  1
  H+  H233  1  0.24211902  0.37400836  0.83719811  1
  H+  H234  1  0.44937527  0.49576843  0.53769673  1
  H+  H235  1  0.61249128  0.40474186  1.01571394  1
  H+  H236  1  0.89383312  0.11383278  0.63652744  1
  H+  H237  1  0.23211063  0.10228634  0.66286440  1
  H+  H238  1  0.19783695  0.82903932  0.68061346  1
  H+  H239  1  0.88758374  0.75616061  0.83267479  1
  H+  H240  1  0.11141730  0.73968896  0.67357357  1
  H+  H241  1  0.36560650  0.22440769  0.67743163  1
  H+  H242  1  0.50458618  0.40365139  0.35246697  1
  H+  H243  1  0.62653028  0.13784548  0.49035886  1
  H+  H244  1  0.33611897  0.16764154  0.40517272  1
  H+  H245  1  0.01767571  0.39654625  0.48676604  1
  H+  H246  1  0.12528141  0.75007956  0.34833891  1
  H+  H247  1  0.01235303  0.38841096  0.15847485  1
  H+  H248  1  0.22384816  0.60226867  0.66306719  1
  H+  H249  1  0.13072955  0.38268507  0.49999756  1
  H+  H250  1  0.27177727  0.89283838  0.81495216  1
  H+  H251  1  0.13666502  0.40983628  0.83989231  1
  H+  H252  1  0.26661331  0.88132474  0.18869171  1
  H+  H253  1  0.37041884  0.38797771  0.82560764  1
  H+  H254  1  0.64657318  1.03463376  0.32403658  1
  H+  H255  1  0.38140937  0.77636205  0.18344976  1
  H+  H256  1  0.89353642  0.51771732  0.83795385  1
  H+  H257  1  0.62439816  0.62263291  0.49998233  1
  H+  H258  1  0.87533201  0.07403205  0.80695837  1
  H+  H259  1  0.13628346  0.51005627  0.65950489  1
  H+  H260  1  0.63963915  0.05753198  0.94795041  1
  H+  H261  1  0.88549115  0.27570048  0.49606401  1
  H+  H262  1  0.63731593  0.51586772  0.66409999  1
  H+  H263  1  0.10714475  0.48812548  0.48940419  1
  H+  H264  1  0.98562746  0.86242783  0.32222959  1
  H+  H265  1  0.51554409  0.64116677  1.00961248  1
  H+  H266  1  0.16249686  0.01961487  0.50378639  1
  H+  H267  1  0.61838612  0.72501254  0.67243581  1
  H+  H268  1  0.61388499  0.63221823  0.81968267  1
  H+  H269  1  0.23306101  0.36511327  0.65051056  1
  H+  H270  1  0.92469930  0.34475510  1.01923170  1
  H+  H271  1  0.46417998  0.35796765  0.99927043  1
  H+  H272  1  0.72039552  0.86316572  0.16462251  1
  H+  H273  1  -0.01020226  0.37214066  0.85804944  1
  H+  H274  1  0.27539472  0.88820448  0.53363778  1
  H+  H275  1  0.77286938  0.61893811  -0.00939444  1
  H+  H276  1  0.02899617  0.14747303  0.32614727  1
  H+  H277  1  0.04567485  -0.00228641  0.05638836  1
  H+  H278  1  0.96702872  0.59481274  0.66762476  1
  H+  H279  1  0.36768825  0.36364646  0.33044280  1
  H+  H280  1  0.36666075  0.47614765  0.67394310  1
  H+  H281  1  0.72843107  0.35891289  0.66433897  1
  H+  H282  1  0.37547580  -0.02822637  0.97625537  1
  H+  H283  1  0.41995346  0.75624245  0.35622062  1
  H+  H284  1  0.53244683  0.37558370  0.50289491  1
  H+  H285  1  0.83098901  0.65400835  0.76630991  1
  H+  H286  1  0.60353710  0.71798699  0.15845716  1
  H+  H287  1  0.96785481  0.36316840  0.32707605  1
  H+  H288  1  0.90748815  0.06783371  0.87419134  1
  H+  H289  1  0.58043581  0.65996032  0.76109036  1
  H+  H290  1  0.05323552  0.42006237  0.06367328  1
  H+  H291  1  0.37417904  0.27745214  0.33411277  1
  H+  H292  1  0.32670529  0.92765630  0.75396145  1
  H+  H293  1  0.97440168  0.56583740  0.28248130  1
  H+  H294  1  0.87242679  0.35650922  0.17642625  1
  H+  H295  1  0.06935741  0.14995991  0.11179100  1
  H+  H296  1  0.90277833  0.56044330  0.20263333  1
  H+  H297  1  0.27896209  0.12865026  0.00583820  1
  H+  H298  1  0.13116241  0.58327427  0.22125261  1
  H+  H299  1  0.82101675  0.92209167  0.09161124  1
  H+  H300  1  0.67260391  0.33135174  0.56712489  1
  H+  H301  1  0.56839238  0.14857868  0.07235077  1
  H+  H302  1  0.83591642  0.16550472  0.42698009  1
  H+  H303  1  0.35210334  0.91639333  0.41642790  1
  H+  H304  1  0.28079059  0.79893510  0.08138232  1
  H+  H305  1  0.66759380  0.85420553  0.53898266  1
  H+  H306  1  0.39023929  0.02864097  0.83347256  1
  H+  H307  1  0.13132646  0.38786585  0.98815747  1
  H+  H308  1  0.58789690  0.40959071  0.73887072  1
  H+  H309  1  0.39153087  0.32972366  0.51186998  1
  H+  H310  1  0.83510108  0.40406235  0.73621665  1
  H+  H311  1  0.11421775  0.46416696  0.79356754  1
  H+  H312  1  0.38472477  0.69728147  0.41464122  1
  H+  H313  1  0.56402814  0.41096909  0.10920726  1
  H+  H314  1  0.57638579  0.66532641  0.06925275  1
  H+  H315  1  0.07840704  0.64601009  0.74115607  1
  H+  H316  1  0.88847938  0.59933598  0.98819130  1
  H+  H317  1  0.88353477  0.97984261  0.48995317  1
  H+  H318  1  0.87249521  0.11728756  0.94427051  1
  H+  H319  1  0.74101256  0.47054212  -0.00943226  1
  H+  H320  1  0.66686315  0.83080969  0.22609076  1
  H+  H321  1  0.59660956  0.17291497  0.78446266  1
  H+  H322  1  0.69340810  0.81517384  0.59121132  1
  H+  H323  1  0.84763380  0.94785720  0.84500512  1
  H+  H324  1  0.83472420  0.17647169  0.80265480  1
  H+  H325  1  0.41800777  0.08600487  0.93033416  1
  H+  H326  1  0.07810144  0.42904753  0.39247537  1
  H+  H327  1  0.53566147  0.52427009  0.94307761  1
  H+  H328  1  0.87196680  0.38594360  0.83912255  1
  H+  H329  1  0.90885919  0.83474877  0.22948493  1
  H+  H330  1  0.66999986  0.07258971  0.55617023  1
  H+  H331  1  0.83080365  0.42470450  0.39416624  1
  H+  H332  1  0.16327172  0.58365164  0.56674174  1
  H+  H333  1  0.85399716  0.91546174  0.40217273  1
  H+  H334  1  0.09523071  0.91699690  0.39872883  1
  H+  H335  1  0.33084529  0.16890268  0.10398506  1
  H+  H336  1  0.93500220  0.82409264  0.56209907  1
  H+  H337  1  0.90465507  0.07923760  0.23080533  1
  H+  H338  1  0.65617357  0.57873685  0.89090830  1
  H+  H339  1  0.90601141  0.32935281  0.26907045  1
  H+  H340  1  0.08137227  0.68485819  0.44572965  1
  H+  H341  1  0.17528207  0.35324026  0.55392518  1
  H+  H342  1  0.94216444  0.48667105  -0.00949722  1
  H+  H343  1  0.08423931  0.91411230  0.76962614  1
  H+  H344  1  0.09059334  0.18719145  0.38424068  1
  H+  H345  1  0.10140307  0.66258246  0.04318537  1
  H+  H346  1  0.42118049  0.57630169  0.60453655  1
  H+  H347  1  0.17036380  0.35869670  0.93474795  1
  H+  H348  1  0.42388421  0.59678082  0.26977250  1
  H+  H349  1  0.82679373  0.66603931  0.42298675  1
  H+  H350  1  0.65581161  0.12912791  0.32311401  1
  H+  H351  1  0.18807206  0.07350777  0.56503485  1
  H+  H352  1  0.85646078  0.93211855  0.70931728  1
  H+  H353  1  0.33325892  0.66813641  0.77252192  1
  H+  H354  1  0.89447114  0.82013656  0.92481151  1
  H+  H355  1  0.58969563  0.87323747  0.01278359  1
  H+  H356  1  0.89328890  0.02264401  0.32650706  1
  H+  H357  1  0.18653685  0.63327913  0.95438594  1
  H+  H358  1  0.65877474  0.58371574  0.22857057  1
  H+  H359  1  0.42196735  0.32383800  0.60900547  1
  H+  H360  1  0.77698699  0.38861298  0.48995533  1
  H+  H361  1  0.05988564  0.37113031  0.71666195  1
  H+  H362  1  0.32626997  0.41583783  0.06798699  1
  H+  H363  1  0.93041774  0.08903407  0.54680460  1
  H+  H364  1  0.16794950  0.08407878  0.26872300  1
  H+  H365  1  0.39698870  0.33261917  0.23721501  1
  H+  H366  1  0.19060911  0.83623293  0.57715239  1
  H+  H367  1  0.66118691  0.33295448  0.26105510  1
  H+  H368  1  0.76664975  0.41012103  0.06077578  1
  H+  H369  1  0.63642172  0.82245451  0.93778542  1
  H+  H370  1  0.17196881  0.08309673  0.93268395  1
  H+  H371  1  0.21774100  0.37383824  0.16426431  1
  H+  H372  1  0.02919232  0.63453624  0.83110493  1
  H+  H373  1  0.90996390  0.56942204  0.56687896  1
  H+  H374  1  0.41266260  0.58181394  0.93555335  1
  H+  H375  1  0.51314028  0.88571079  0.16903118  1
  H+  H376  1  0.66829939  0.08649857  0.23168922  1
  H+  H377  1  0.31173204  0.84643630  0.08168990  1
  H+  H378  1  0.30850215  0.45388987  0.41044171  1
  H+  H379  1  0.81764535  0.62629749  0.05448479  1
  H+  H380  1  0.57703418  0.93613047  0.40253475  1
  H+  H381  1  0.83172051  0.16621359  0.76911819  1
  H+  H382  1  0.46796666  0.61480623  0.17205188  1
  H+  H383  1  0.17920941  0.82992543  0.91517179  1
  O2-  O384  1  0.07110985  0.17564236  0.15170331  1
  O2-  O385  1  0.09074984  0.19130695  0.45617570  1
  O2-  O386  1  0.08488799  0.15140652  0.79468345  1
  O2-  O387  1  0.06932527  0.42121069  0.13815607  1
  O2-  O388  1  0.07919647  0.42810549  0.47254895  1
  O2-  O389  1  0.10531633  0.44317513  0.83531514  1
  O2-  O390  1  0.07639725  0.65816148  0.11816779  1
  O2-  O391  1  0.07621914  0.68004176  0.49073612  1
  O2-  O392  1  0.09040576  0.66769084  0.81655385  1
  O2-  O393  1  0.02922136  0.84451053  0.11435567  1
  O2-  O394  1  0.10930736  0.91148373  0.47855702  1
  O2-  O395  1  0.08601623  0.91446304  0.81545132  1
  O2-  O396  1  0.32540926  0.16873021  0.14926871  1
  O2-  O397  1  0.35364527  0.15837039  0.48364624  1
  O2-  O398  1  0.33554683  0.16779766  0.81397120  1
  O2-  O399  1  0.32267993  0.42247037  0.14744080  1
  O2-  O400  1  0.30182326  0.47418632  0.45543219  1
  O2-  O401  1  0.34026729  0.41913740  0.81115488  1
  O2-  O402  1  0.32411119  0.67176081  0.14932133  1
  O2-  O403  1  0.33105036  0.69996384  0.48992238  1
  O2-  O404  1  0.33732039  0.67336196  0.81744793  1
  O2-  O405  1  0.32724370  0.91001883  0.20114032  1
  O2-  O406  1  0.36328053  0.91299110  0.49370401  1
  O2-  O407  1  0.33148982  0.92716949  0.79865805  1
  O2-  O408  1  0.56849158  0.15872063  0.14924945  1
  O2-  O409  1  0.59384836  0.16704365  0.47816925  1
  O2-  O410  1  0.59349297  0.17064973  0.82971180  1
  O2-  O411  1  0.56174753  0.40881036  0.15470348  1
  O2-  O412  1  0.59043492  0.41092864  0.48466915  1
  O2-  O413  1  0.58875937  0.40803826  0.81804101  1
  O2-  O414  1  0.56972655  0.65785776  0.14393591  1
  O2-  O415  1  0.59146882  0.65311902  0.48672242  1
  O2-  O416  1  0.58060277  0.66050786  0.80675189  1
  O2-  O417  1  0.57277234  0.91599755  0.15046250  1
  O2-  O418  1  0.55799038  0.93011596  0.47120362  1
  O2-  O419  1  0.58913154  0.92574062  0.80993375  1
  O2-  O420  1  0.82638262  0.17432195  0.14585622  1
  O2-  O421  1  0.83893149  0.16739238  0.47283909  1
  O2-  O422  1  0.82517486  0.18313921  0.93073840  1
  O2-  O423  1  0.79521560  0.40096050  0.09643895  1
  O2-  O424  1  0.83592526  0.41924368  0.47190981  1
  O2-  O425  1  0.84037248  0.41151650  0.81851073  1
  O2-  O426  1  0.86843459  0.68645699  0.11366008  1
  O2-  O427  1  0.80926466  0.67848595  0.46247013  1
  O2-  O428  1  0.83085320  0.65345057  0.81216138  1
  O2-  O429  1  0.82013870  0.92020812  0.13726923  1
  O2-  O430  1  0.85833603  0.91652819  0.48083623  1
  O2-  O431  1  0.81538398  0.88654133  0.85955172  1
  O2-  O432  1  0.16035699  0.09088794  0.18612244  1
  O2-  O433  1  0.19656959  0.07895645  0.52021609  1
  O2-  O434  1  0.16929664  0.08282211  0.85401655  1
  O2-  O435  1  0.15590475  0.34597989  0.17780550  1
  O2-  O436  1  0.17213900  0.36087913  0.50875668  1
  O2-  O437  1  0.18068114  0.34856919  0.85197603  1
  O2-  O438  1  0.15218611  0.58662200  0.17840162  1
  O2-  O439  1  0.16135378  0.58800092  0.52162552  1
  O2-  O440  1  0.18606865  0.61266009  0.87705590  1
  O2-  O441  1  0.16271865  0.82626973  0.14459560  1
  O2-  O442  1  0.23185650  0.89271821  0.56034637  1
  O2-  O443  1  0.16948387  0.83347888  0.84783291  1
  O2-  O444  1  0.40935128  0.08373590  0.19512388  1
  O2-  O445  1  0.43791019  0.07838035  0.52701113  1
  O2-  O446  1  0.42118284  0.08708711  0.85232921  1
  O2-  O447  1  0.39662489  0.33331406  0.19156913  1
  O2-  O448  1  0.42600416  0.30878047  0.53198582  1
  O2-  O449  1  0.41884147  0.33337743  0.85405126  1
  O2-  O450  1  0.40907196  0.58768906  0.19084398  1
  O2-  O451  1  0.43913834  0.54267589  0.52699111  1
  O2-  O452  1  0.41704675  0.58613245  0.85207171  1
  O2-  O453  1  0.41741149  0.83539846  0.19988163  1
  O2-  O454  1  0.41034037  0.86821207  0.51326360  1
  O2-  O455  1  0.42669459  0.84994126  0.83865895  1
  O2-  O456  1  0.66363307  0.08584154  0.18558214  1
  O2-  O457  1  0.67365221  0.07733166  0.51144639  1
  O2-  O458  1  0.66238932  0.07684898  0.87632532  1
  O2-  O459  1  0.65080753  0.32617858  0.17881422  1
  O2-  O460  1  0.67472280  0.33013203  0.52177006  1
  O2-  O461  1  0.68100831  0.34198483  0.87287828  1
  O2-  O462  1  0.64911377  0.58067880  0.18379074  1
  O2-  O463  1  0.67172310  0.57466859  0.52478496  1
  O2-  O464  1  0.66592582  0.57869858  0.84646756  1
  O2-  O465  1  0.66019720  0.82969984  0.18202618  1
  O2-  O466  1  0.69344983  0.81841660  0.54598303  1
  O2-  O467  1  0.64249647  0.81873737  0.85851671  1
  O2-  O468  1  0.90412579  0.08474758  0.18522057  1
  O2-  O469  1  0.92702751  0.08540167  0.50119555  1
  O2-  O470  1  0.90772372  0.05195721  0.82864422  1
  O2-  O471  1  0.90682641  0.33110836  0.18927509  1
  O2-  O472  1  0.91467967  0.33650005  0.51111193  1
  O2-  O473  1  0.93338726  0.34787907  0.87860650  1
  O2-  O474  1  0.90589959  0.56779484  0.15728403  1
  O2-  O475  1  0.91007527  0.57050164  0.52190162  1
  O2-  O476  1  0.92307953  0.58050513  0.84903498  1
  O2-  O477  1  0.90015283  0.83628859  0.18435026  1
  O2-  O478  1  0.94281133  0.82884409  0.51695432  1
  O2-  O479  1  0.91914694  0.81760809  0.84708996  1
  O2-  O480  1  0.16733690  0.08640851  0.31407278  1
  O2-  O481  1  0.17307848  0.06793177  0.64532194  1
  O2-  O482  1  0.18027146  0.07224966  0.97616657  1
  O2-  O483  1  0.16092002  0.34937077  0.30200907  1
  O2-  O484  1  0.17572169  0.33456375  0.62967841  1
  O2-  O485  1  0.16791481  0.36274451  0.97943507  1
  O2-  O486  1  0.07628610  0.56565012  0.28854381  1
  O2-  O487  1  0.16321852  0.57134213  0.64754169  1
  O2-  O488  1  0.18524183  0.64633301  0.99885905  1
  O2-  O489  1  0.18276832  0.83892166  0.32514502  1
  O2-  O490  1  0.14029128  0.80261103  0.66262040  1
  O2-  O491  1  0.19213646  0.82990148  0.96145989  1
  O2-  O492  1  0.40431373  0.08114535  0.31311719  1
  O2-  O493  1  0.43341891  0.09506226  0.64798427  1
  O2-  O494  1  0.41535784  0.07727296  0.97554448  1
  O2-  O495  1  0.40060669  0.33665544  0.31575269  1
  O2-  O496  1  0.41886662  0.33079095  0.65401969  1
  O2-  O497  1  0.40600036  0.32795819  0.97989181  1
  O2-  O498  1  0.42855145  0.59052517  0.31470361  1
  O2-  O499  1  0.41855140  0.58349274  0.64897701  1
  O2-  O500  1  0.41984834  0.58108661  0.98019041  1
  O2-  O501  1  0.42609655  0.84219727  0.32190935  1
  O2-  O502  1  0.41424823  0.83727720  0.63932351  1
  O2-  O503  1  0.39044398  0.73268279  0.97620950  1
  O2-  O504  1  0.68138248  0.09300832  0.30539642  1
  O2-  O505  1  0.62422234  0.05409233  0.63614321  1
  O2-  O506  1  0.63327046  0.05242883  0.99392816  1
  O2-  O507  1  0.66023961  0.33315672  0.30608738  1
  O2-  O508  1  0.66798698  0.33031043  0.64839549  1
  O2-  O509  1  0.70335428  0.40775443  0.99300180  1
  O2-  O510  1  0.67280826  0.58160400  0.30836077  1
  O2-  O511  1  0.66711345  0.57625650  0.64821988  1
  O2-  O512  1  0.59365352  0.55353583  0.96026245  1
  O2-  O513  1  0.67020716  0.83479002  0.35998230  1
  O2-  O514  1  0.67640701  0.83141097  0.67144878  1
  O2-  O515  1  0.64449326  0.83037517  0.98284198  1
  O2-  O516  1  0.91820469  0.08065068  0.30755604  1
  O2-  O517  1  0.92729904  0.08535933  0.62359409  1
  O2-  O518  1  0.90124603  0.08226095  0.94190249  1
  O2-  O519  1  0.90596822  0.32845741  0.31442767  1
  O2-  O520  1  0.91686149  0.33482805  0.63271706  1
  O2-  O521  1  0.96912343  0.40037423  0.99729561  1
  O2-  O522  1  0.91769134  0.56323910  0.28193425  1
  O2-  O523  1  0.90702423  0.56592481  0.65146983  1
  O2-  O524  1  0.93578404  0.59018869  0.97202420  1
  O2-  O525  1  0.92522857  0.83076152  0.30609225  1
  O2-  O526  1  0.91854579  0.82238932  0.64145758  1
  O2-  O527  1  0.88640409  0.83763336  0.96609662  1
  O2-  O528  1  0.07565020  0.05728898  0.07210430  1
  O2-  O529  1  0.09070408  0.18339079  0.33779680  1
  O2-  O530  1  0.09245527  0.16085354  0.66723122  1
  O2-  O531  1  0.05481368  0.42101176  0.01751545  1
  O2-  O532  1  0.07227163  0.42635540  0.34716017  1
  O2-  O533  1  0.07202379  0.39421731  0.67537475  1
  O2-  O534  1  0.11999562  0.67261510  -0.00098975  1
  O2-  O535  1  0.08316217  0.68712131  0.36308084  1
  O2-  O536  1  0.07024741  0.63988599  0.69583850  1
  O2-  O537  1  0.04841403  0.90968340  0.00391764  1
  O2-  O538  1  0.08846121  0.91852994  0.35374951  1
  O2-  O539  1  0.07785712  0.90754870  0.69239470  1
  O2-  O540  1  0.33831900  0.16196788  0.02372258  1
  O2-  O541  1  0.33235946  0.17541669  0.36045861  1
  O2-  O542  1  0.33680121  0.16284526  0.69072748  1
  O2-  O543  1  0.32685172  0.41278322  0.02255649  1
  O2-  O544  1  0.31817276  0.43300751  0.35038149  1
  O2-  O545  1  0.33325928  0.41453506  0.68682224  1
  O2-  O546  1  0.37470251  0.76214400  0.02239805  1
  O2-  O547  1  0.42270226  0.70919960  0.37927418  1
  O2-  O548  1  0.33006391  0.66450870  0.68697860  1
  O2-  O549  1  0.34997819  0.90881791  -0.03345224  1
  O2-  O550  1  0.34422519  0.92017994  0.37141918  1
  O2-  O551  1  0.32779958  0.92136430  0.66843083  1
  O2-  O552  1  0.57315802  0.14419778  0.02713847  1
  O2-  O553  1  0.61657923  0.17840943  0.34985346  1
  O2-  O554  1  0.59083364  0.16997191  0.70113232  1
  O2-  O555  1  0.56645268  0.41609860  0.03133964  1
  O2-  O556  1  0.55430460  0.44427895  0.37752420  1
  O2-  O557  1  0.58500276  0.41090582  0.69331439  1
  O2-  O558  1  0.57775632  0.67024002  0.02330668  1
  O2-  O559  1  0.59283544  0.66519394  0.35968815  1
  O2-  O560  1  0.58291338  0.66128301  0.68275593  1
  O2-  O561  1  0.55955764  0.90360988  0.02910425  1
  O2-  O562  1  0.58874786  0.93673100  0.35624271  1
  O2-  O563  1  0.57929486  0.90607636  0.68634694  1
  O2-  O564  1  0.84050835  0.26295319  0.04077772  1
  O2-  O565  1  0.83743807  0.16197622  0.35081268  1
  O2-  O566  1  0.83695024  0.16196868  0.65671912  1
  O2-  O567  1  0.89393686  0.49731977  -0.01699940  1
  O2-  O568  1  0.82934156  0.42154120  0.34846953  1
  O2-  O569  1  0.83213551  0.40445880  0.69089174  1
  O2-  O570  1  0.79668188  0.59110169  0.01557717  1
  O2-  O571  1  0.84553206  0.65919796  0.33892055  1
  O2-  O572  1  0.83257518  0.65919627  0.68954662  1
  O2-  O573  1  0.81440363  0.92640745  0.01068445  1
  O2-  O574  1  0.84821866  0.91487974  0.35672071  1
  O2-  O575  1  0.84135573  0.91975826  0.66638238  1
