# generated using pymatgen
data_H2O
_symmetry_space_group_name_H-M   'P 1'
_cell_length_a   17.99948078
_cell_length_b   17.99201118
_cell_length_c   22.00201076
_cell_angle_alpha   90.00151536
_cell_angle_beta   89.98866666
_cell_angle_gamma   120.04214157
_symmetry_Int_Tables_number   1
_chemical_formula_structural   H2O
_chemical_formula_sum   'H384 O192'
_cell_volume   6168.05313012
_cell_formula_units_Z   192
loop_
 _symmetry_equiv_pos_site_id
 _symmetry_equiv_pos_as_xyz
  1  'x, y, z'
loop_
 _atom_type_symbol
 _atom_type_oxidation_number
  H+  1.0
  O2-  -2.0
loop_
 _atom_site_type_symbol
 _atom_site_label
 _atom_site_symmetry_multiplicity
 _atom_site_fract_x
 _atom_site_fract_y
 _atom_site_fract_z
 _atom_site_occupancy
  H+  H0  1  0.34846123  0.96610930  0.16491924  1
  H+  H1  1  0.48368885  0.61589529  0.33211533  1
  H+  H2  1  0.58900755  0.74811778  0.84039559  1
  H+  H3  1  0.47976491  0.95426656  0.60985072  1
  H+  H4  1  0.12739399  0.02227892  0.32573021  1
  H+  H5  1  0.35289056  0.61633345  1.01272347  1
  H+  H6  1  0.61084995  0.72976196  0.16768880  1
  H+  H7  1  0.26811129  0.66863359  0.51755091  1
  H+  H8  1  0.53411579  0.13618689  0.82511248  1
  H+  H9  1  0.12719719  0.89078366  1.00540061  1
  H+  H10  1  0.36613619  0.14365958  0.66338542  1
  H+  H11  1  0.90932171  0.76896633  0.65991041  1
  H+  H12  1  0.60720310  0.90966067  -0.01726464  1
  H+  H13  1  0.34601760  0.61805903  0.17080559  1
  H+  H14  1  0.60864036  0.11997326  0.66740402  1
  H+  H15  1  0.59163376  0.87722075  0.46915630  1
  H+  H16  1  0.38622229  0.51505352  0.00137217  1
  H+  H17  1  0.88572985  0.53123897  0.85879085  1
  H+  H18  1  0.67707466  0.98976140  0.13295730  1
  H+  H19  1  0.64654811  1.02027525  0.83778472  1
  H+  H20  1  0.88020334  0.11552988  0.49654659  1
  H+  H21  1  0.34627821  0.21303897  0.15067188  1
  H+  H22  1  0.63280352  0.51079856  0.01355810  1
  H+  H23  1  0.43267949  0.87135418  0.32735428  1
  H+  H24  1  0.34320418  0.47315034  0.16666425  1
  H+  H25  1  0.60759588  0.61051873  0.65277943  1
  H+  H26  1  0.34435711  0.70009993  0.01564839  1
  H+  H27  1  0.12240983  0.13839492  0.67456125  1
  H+  H28  1  0.44098754  0.10670528  0.34723712  1
  H+  H29  1  0.37283610  0.47075125  0.66788366  1
  H+  H30  1  0.84661300  0.97600518  0.48631734  1
  H+  H31  1  0.62130892  0.63755745  0.48741820  1
  H+  H32  1  0.88535762  0.36372872  0.17544248  1
  H+  H33  1  0.28367087  0.07293470  0.80002616  1
  H+  H34  1  0.14086981  1.02808769  0.66166456  1
  H+  H35  1  0.10387928  0.61054474  0.00638041  1
  H+  H36  1  0.11906489  0.38029258  0.82606970  1
  H+  H37  1  0.27436042  0.14094746  0.66374837  1
  H+  H38  1  0.53725755  0.89745418  0.66708651  1
  H+  H39  1  0.39606880  0.03318549  0.82962378  1
  H+  H40  1  0.62348776  0.62131358  0.68497734  1
  H+  H41  1  0.35544437  0.69811912  0.68745169  1
  H+  H42  1  0.34111966  0.74057207  0.18104621  1
  H+  H43  1  0.65171139  0.34846041  0.15453056  1
  H+  H44  1  0.12339205  0.59990213  0.17011146  1
  H+  H45  1  0.73618169  0.10618512  0.32229417  1
  H+  H46  1  0.86850248  0.48064625  0.16238077  1
  H+  H47  1  0.98108123  0.61508906  1.00026860  1
  H+  H48  1  0.89948666  0.26639615  0.01547282  1
  H+  H49  1  0.88705371  0.02265059  0.32001385  1
  H+  H50  1  0.13224669  0.87197525  0.84231676  1
  H+  H51  1  0.87340170  0.48444797  1.00584562  1
  H+  H52  1  0.86680993  0.22051507  0.33790087  1
  H+  H53  1  0.59724812  0.43596647  0.82478635  1
  H+  H54  1  1.13842907  1.02246492  0.99488441  1
  H+  H55  1  0.83493615  0.83026651  0.70522809  1
  H+  H56  1  0.60923064  0.36005960  0.66526527  1
  H+  H57  1  0.55522653  0.87929357  0.31213241  1
  H+  H58  1  0.11175099  0.89327320  0.68097930  1
  H+  H59  1  1.01350946  0.39857342  0.99340310  1
  H+  H60  1  0.47675359  0.82933063  0.85421132  1
  H+  H61  1  0.72968159  0.60620490  0.49541750  1
  H+  H62  1  0.25003291  0.38937089  0.15883947  1
  H+  H63  1  1.01777571  0.64509489  0.82373619  1
  H+  H64  1  0.34459370  0.23607001  0.48648220  1
  H+  H65  1  0.68536479  0.50073911  0.65380993  1
  H+  H66  1  0.22731361  0.59010814  0.85322542  1
  H+  H67  1  0.94434452  0.09720317  0.98282673  1
  H+  H68  1  0.88262230  0.61921893  0.84933258  1
  H+  H69  1  0.37988309  0.00820006  0.99312511  1
  H+  H70  1  0.11351291  0.47328544  0.33427624  1
  H+  H71  1  0.65811575  0.85307769  1.04109681  1
  H+  H72  1  0.26937115  0.87518519  0.00437406  1
  H+  H73  1  0.60321215  0.12720748  0.48390509  1
  H+  H74  1  0.98444714  0.87481672  0.85156223  1
  H+  H75  1  0.87694526  0.86303109  -0.00107061  1
  H+  H76  1  0.20945357  0.59270321  0.17352755  1
  H+  H77  1  0.34877728  0.90254125  0.80649977  1
  H+  H78  1  0.12490460  0.59082081  0.33230204  1
  H+  H79  1  0.97069991  0.11214814  0.83393915  1
  H+  H80  1  0.23265571  0.35852828  0.83360251  1
  H+  H81  1  0.83718474  0.16876237  0.71929709  1
  H+  H82  1  0.53948980  0.88514923  0.18786824  1
  H+  H83  1  0.12628927  0.54023536  0.65500209  1
  H+  H84  1  0.77691970  0.63400869  0.01497848  1
  H+  H85  1  0.90042845  0.36955354  0.85809268  1
  H+  H86  1  0.35782420  0.58024329  0.64546414  1
  H+  H87  1  0.64283234  0.10610293  0.83777345  1
  H+  H88  1  0.11754425  0.72774130  0.48771687  1
  H+  H89  1  0.87183584  0.22681222  0.65989539  1
  H+  H90  1  0.02069626  0.87974591  0.15642717  1
  H+  H91  1  0.31535926  0.64009250  0.10739100  1
  H+  H92  1  0.10759658  0.71782246  0.15392398  1
  H+  H93  1  0.66821862  1.05474593  0.00606734  1
  H+  H94  1  1.00527351  0.38106364  0.16536933  1
  H+  H95  1  0.20924848  0.86031576  0.65824331  1
  H+  H96  1  0.78691332  0.14144262  0.15612324  1
  H+  H97  1  0.46755382  0.09966884  0.18529861  1
  H+  H98  1  0.98780402  0.13773323  0.17335135  1
  H+  H99  1  0.32499278  0.97427375  0.35050188  1
  H+  H100  1  0.61575980  0.63106458  0.33441950  1
  H+  H101  1  0.43653501  0.35632769  0.16645792  1
  H+  H102  1  0.60548597  0.62624992  0.01751310  1
  H+  H103  1  0.88736079  0.27410139  0.17426443  1
  H+  H104  1  0.08238695  0.16958735  0.39217327  1
  H+  H105  1  0.63577934  0.62726497  0.17635540  1
  H+  H106  1  0.33599575  0.87112210  0.16378235  1
  H+  H107  1  0.34596873  0.60165347  0.83594784  1
  H+  H108  1  0.13291983  0.49818761  0.84664907  1
  H+  H109  1  0.88250242  0.35396472  0.65223746  1
  H+  H110  1  0.48173817  0.59510875  0.50626200  1
  H+  H111  1  0.58919250  0.15748132  -0.06172082  1
  H+  H112  1  0.77119683  0.63871131  0.16269557  1
  H+  H113  1  0.39088897  0.50838081  0.84484071  1
  H+  H114  1  0.20942916  0.62671093  0.66738091  1
  H+  H115  1  0.30281074  0.35562242  0.49947776  1
  H+  H116  1  0.13958407  0.27717975  0.32893614  1
  H+  H117  1  1.01087833  0.88686349  0.48815046  1
  H+  H118  1  0.62645095  1.01506017  0.49345243  1
  H+  H119  1  0.27479080  0.38700493  0.00644926  1
  H+  H120  1  0.08545822  0.64091877  0.66789413  1
  H+  H121  1  0.39197865  0.36609537  0.33160578  1
  H+  H122  1  0.38779344  0.26973080  0.66073298  1
  H+  H123  1  0.61888027  0.35206728  0.50111583  1
  H+  H124  1  0.22251263  0.11544999  0.99461857  1
  H+  H125  1  0.91445714  0.83489699  0.26788625  1
  H+  H126  1  0.36741929  0.37142702  0.82700469  1
  H+  H127  1  0.38430396  0.35563942  0.99798924  1
  H+  H128  1  0.33184753  0.15666867  0.06400299  1
  H+  H129  1  0.75719876  0.59818184  0.66207087  1
  H+  H130  1  0.87896019  0.14505909  0.16085979  1
  H+  H131  1  0.09501488  0.37365462  0.15555515  1
  H+  H132  1  0.64117790  0.58412148  0.78164573  1
  H+  H133  1  0.61539418  0.88824502  0.83484542  1
  H+  H134  1  0.77954266  0.66246728  0.82444546  1
  H+  H135  1  0.30655485  0.79359734  0.83375875  1
  H+  H136  1  0.62961971  0.25119304  0.65300623  1
  H+  H137  1  0.11974299  0.85011409  0.16273396  1
  H+  H138  1  0.59907515  0.46796181  0.48613530  1
  H+  H139  1  0.35854140  0.90482589  0.65868057  1
  H+  H140  1  0.63481900  0.27325170  0.99491572  1
  H+  H141  1  0.21446880  0.11367081  0.32411682  1
  H+  H142  1  0.66420241  0.57942497  0.26421385  1
  H+  H143  1  0.46707757  0.85142663  0.00701658  1
  H+  H144  1  0.15251784  0.27193419  0.66489445  1
  H+  H145  1  0.08700596  0.22722701  0.99080013  1
  H+  H146  1  0.03783954  0.14620273  0.67027575  1
  H+  H147  1  0.41040583  0.49675649  0.51251668  1
  H+  H148  1  0.08510707  0.65265283  0.06424489  1
  H+  H149  1  0.87931141  0.86568174  0.32431794  1
  H+  H150  1  0.21025315  0.57043929  1.00028365  1
  H+  H151  1  0.14174191  0.65360533  0.49078337  1
  H+  H152  1  0.51547910  0.12600763  0.98593493  1
  H+  H153  1  0.38626627  0.26667347  0.99868318  1
  H+  H154  1  0.51593245  0.62643921  0.01273800  1
  H+  H155  1  0.84093944  0.41987524  0.91994000  1
  H+  H156  1  1.09907442  0.88406362  0.49318216  1
  H+  H157  1  0.85573062  0.96760168  0.83163297  1
  H+  H158  1  0.22933865  0.36783966  0.33723324  1
  H+  H159  1  0.60107679  0.67564879  0.81170535  1
  H+  H160  1  0.10419321  0.13634748  0.83325377  1
  H+  H161  1  0.72494217  0.86499418  0.86401456  1
  H+  H162  1  0.92683842  0.67449590  0.70532682  1
  H+  H163  1  0.65212194  0.11486141  0.31679123  1
  H+  H164  1  0.42963098  0.86141004  0.58376886  1
  H+  H165  1  0.76321470  0.13210190  0.48458979  1
  H+  H166  1  0.21628478  0.09734642  0.16681369  1
  H+  H167  1  0.75829491  0.37016189  0.48931763  1
  H+  H168  1  0.47836761  0.65244206  0.67744432  1
  H+  H169  1  0.34829437  0.40908843  0.76637536  1
  H+  H170  1  0.21530227  0.11929299  0.84832312  1
  H+  H171  1  0.77985518  0.38527764  0.86377545  1
  H+  H172  1  0.86624568  0.13087503  0.33818279  1
  H+  H173  1  0.10483437  0.73332833  0.81662263  1
  H+  H174  1  0.53150317  0.91533304  0.16856605  1
  H+  H175  1  0.88160453  0.10990656  0.82846184  1
  H+  H176  1  0.88678766  0.77149778  0.17504062  1
  H+  H177  1  0.86044121  0.35577721  0.49962581  1
  H+  H178  1  0.48683476  0.35941828  0.66014809  1
  H+  H179  1  0.94837250  0.59229936  0.65004027  1
  H+  H180  1  0.64821637  0.10318243  0.16686540  1
  H+  H181  1  0.61883050  0.22518431  0.32535151  1
  H+  H182  1  0.83161329  0.97646988  0.71167537  1
  H+  H183  1  1.01510131  0.88904134  0.34005584  1
  H+  H184  1  0.32652641  0.41071956  0.06877321  1
  H+  H185  1  0.97766595  0.11368391  0.32339122  1
  H+  H186  1  0.46304505  0.60636522  0.18658010  1
  H+  H187  1  0.62628593  0.72643338  0.33219536  1
  H+  H188  1  0.11107061  0.96845711  0.15744130  1
  H+  H189  1  0.28695307  0.37794902  0.67133690  1
  H+  H190  1  0.90957562  0.04375154  0.64510895  1
  H+  H191  1  0.47615310  0.35716085  0.33137807  1
  H+  H192  1  0.76894541  0.35885251  0.66540179  1
  H+  H193  1  0.11637604  0.77191300  0.66156473  1
  H+  H194  1  0.40425004  0.12293657  0.83832739  1
  H+  H195  1  0.37308565  0.73739451  0.36378716  1
  H+  H196  1  0.56640344  0.39294267  0.18330981  1
  H+  H197  1  0.10202403  0.47418279  0.16337337  1
  H+  H198  1  0.62543260  0.22175656  0.82659763  1
  H+  H199  1  0.47700300  0.11586665  0.65253155  1
  H+  H200  1  0.84881394  0.46220651  0.48783557  1
  H+  H201  1  0.89152612  0.35336347  0.33039810  1
  H+  H202  1  1.01874693  0.13877820  0.48245195  1
  H+  H203  1  0.46571523  0.60911045  0.84612159  1
  H+  H204  1  0.85778025  0.72133927  0.48366417  1
  H+  H205  1  0.66268471  0.13920217  1.00530978  1
  H+  H206  1  0.72459621  0.60776405  0.32257466  1
  H+  H207  1  0.60101387  0.98051062  0.32217321  1
  H+  H208  1  0.12579006  0.37542707  0.33729346  1
  H+  H209  1  0.21285823  0.11372089  0.50597134  1
  H+  H210  1  0.62002039  0.88660822  0.67456068  1
  H+  H211  1  0.36078273  0.12945900  1.00297318  1
  H+  H212  1  0.35629898  0.12880343  0.15953943  1
  H+  H213  1  0.88392942  0.60956880  0.17235750  1
  H+  H214  1  0.34659720  0.88794188  0.49368355  1
  H+  H215  1  0.81780356  -0.04398546  0.68064823  1
  H+  H216  1  0.60671797  0.38039284  1.02051141  1
  H+  H217  1  0.89188992  0.27994240  0.84043326  1
  H+  H218  1  0.35701037  0.99188313  0.65825551  1
  H+  H219  1  0.61884047  0.75935825  0.48694041  1
  H+  H220  1  0.85625034  0.73098469  0.33439925  1
  H+  H221  1  0.34743843  0.14734533  0.49181186  1
  H+  H222  1  0.90379379  0.12781911  0.65016887  1
  H+  H223  1  0.74124764  0.35674384  0.16583730  1
  H+  H224  1  0.12598712  0.02084827  0.50567290  1
  H+  H225  1  0.54534020  0.13202226  0.30572542  1
  H+  H226  1  0.61694408  0.21203788  0.15911739  1
  H+  H227  1  0.20913638  0.85193880  0.16788540  1
  H+  H228  1  0.97771785  0.36471234  0.64416769  1
  H+  H229  1  0.28471359  0.77530372  0.80376703  1
  H+  H230  1  0.39395235  0.36890496  0.66377756  1
  H+  H231  1  0.02778516  0.89873818  0.67942374  1
  H+  H232  1  0.65030978  0.84901280  0.32487402  1
  H+  H233  1  0.19272908  0.48770715  0.69791086  1
  H+  H234  1  0.10906172  0.13825660  0.33200931  1
  H+  H235  1  0.81310584  0.87751703  0.79264265  1
  H+  H236  1  0.92634129  0.59343708  0.23054431  1
  H+  H237  1  0.34393965  0.34220490  0.16069445  1
  H+  H238  1  0.62921422  0.53635855  0.17197514  1
  H+  H239  1  0.37544766  0.24934226  0.85002414  1
  H+  H240  1  0.31792186  0.88288871  0.35096025  1
  H+  H241  1  0.76707481  0.87808007  0.32573746  1
  H+  H242  1  0.13876317  0.76010007  0.98755825  1
  H+  H243  1  0.50350101  0.38392432  0.48065466  1
  H+  H244  1  0.86788523  0.86359221  0.49622879  1
  H+  H245  1  1.10969324  0.98756577  0.83648713  1
  H+  H246  1  0.36818067  0.48032627  0.34983206  1
  H+  H247  1  0.35594055  0.23425504  0.33865391  1
  H+  H248  1  0.62906045  0.76000472  1.01432653  1
  H+  H249  1  0.02900962  0.38139762  0.82612394  1
  H+  H250  1  0.74066643  0.81286172  0.70792799  1
  H+  H251  1  0.10276317  0.13090420  0.48823317  1
  H+  H252  1  0.22026385  0.87449130  0.83197663  1
  H+  H253  1  0.40269133  0.07670486  0.24138103  1
  H+  H254  1  0.37382282  0.02748522  0.50545221  1
  H+  H255  1  0.51002666  0.34897832  0.82773087  1
  H+  H256  1  0.88045801  0.76678323  1.00033333  1
  H+  H257  1  0.98120466  0.61763151  0.32702796  1
  H+  H258  1  0.60219307  0.76645992  0.67377842  1
  H+  H259  1  1.01917982  0.62846615  0.15469437  1
  H+  H260  1  0.85524613  0.44831502  0.66383956  1
  H+  H261  1  0.77287255  0.87186182  1.01054362  1
  H+  H262  1  0.84694132  0.55909909  0.63826900  1
  H+  H263  1  0.11498997  0.47305455  0.45427716  1
  H+  H264  1  0.16243653  0.08165259  0.59840546  1
  H+  H265  1  0.87009114  0.64104737  0.01162991  1
  H+  H266  1  0.73104099  0.11178939  0.64801247  1
  H+  H267  1  1.09614456  0.83775737  0.31728369  1
  H+  H268  1  0.16011630  0.54730520  0.91774971  1
  H+  H269  1  0.11114298  0.42861990  0.73580812  1
  H+  H270  1  0.15830072  0.26875953  0.50231312  1
  H+  H271  1  0.13972605  0.27215195  0.83697138  1
  H+  H272  1  0.87221534  0.59313202  0.49219148  1
  H+  H273  1  0.74000281  0.85719051  0.17724754  1
  H+  H274  1  0.78026005  0.37261872  0.33265527  1
  H+  H275  1  0.10606334  0.70249218  0.34133348  1
  H+  H276  1  0.85658430  0.96735338  -0.00259806  1
  H+  H277  1  0.02398852  0.37331543  0.34047749  1
  H+  H278  1  0.51645824  0.37891025  0.01564650  1
  H+  H279  1  0.89366386  0.86434313  0.17181755  1
  H+  H280  1  0.16083960  0.36495936  0.66048938  1
  H+  H281  1  0.61778543  0.46677818  0.33514580  1
  H+  H282  1  0.87277999  0.74273864  0.83968252  1
  H+  H283  1  0.89151344  0.86966727  0.85702582  1
  H+  H284  1  0.63651007  0.34464095  0.84405974  1
  H+  H285  1  0.36223374  0.12019056  0.33200074  1
  H+  H286  1  0.75551269  0.88760770  0.48329076  1
  H+  H287  1  0.41272595  0.56429526  0.59296825  1
  H+  H288  1  0.63931519  0.35619941  0.32328090  1
  H+  H289  1  0.67759446  0.80900762  0.62221264  1
  H+  H290  1  0.66205645  0.83784699  0.92166439  1
  H+  H291  1  0.32546637  0.93761509  0.74842547  1
  H+  H292  1  0.31539239  0.17189562  0.39726845  1
  H+  H293  1  0.92126762  0.59522232  0.94158302  1
  H+  H294  1  0.08956629  0.65475170  0.40599929  1
  H+  H295  1  0.57173409  0.66441158  0.11137113  1
  H+  H296  1  0.14748992  0.82894159  0.56457101  1
  H+  H297  1  0.56949627  0.14216084  0.10805724  1
  H+  H298  1  0.19152805  0.61660436  0.56436959  1
  H+  H299  1  0.86366523  0.19582929  0.07780579  1
  H+  H300  1  0.21358820  0.86694960  0.50931953  1
  H+  H301  1  0.86594891  0.26030679  0.49782751  1
  H+  H302  1  0.92007321  0.83346788  0.93946590  1
  H+  H303  1  0.84554235  0.42428743  0.10065444  1
  H+  H304  1  0.46358880  0.11435572  0.49804657  1
  H+  H305  1  0.79962487  0.17212247  1.01759896  1
  H+  H306  1  0.35571533  0.69318130  0.84099646  1
  H+  H307  1  0.90434950  0.32466983  0.55978420  1
  H+  H308  1  0.61822066  0.81873476  0.54000055  1
  H+  H309  1  0.57678125  0.15720854  0.42371864  1
  H+  H310  1  0.58418887  0.91028886  0.77229685  1
  H+  H311  1  0.31272326  0.63941608  0.74457493  1
  H+  H312  1  0.40542969  0.57778962  0.24665234  1
  H+  H313  1  0.66917336  0.32885468  0.26178006  1
  H+  H314  1  0.09231023  0.91804141  0.06258224  1
  H+  H315  1  0.40256998  0.62453611  0.34614310  1
  H+  H316  1  0.41408440  0.57347327  0.94156761  1
  H+  H317  1  0.32407604  0.15194044  0.75573983  1
  H+  H318  1  0.56415871  0.41411940  0.11195037  1
  H+  H319  1  0.84795017  0.92278148  0.09931276  1
  H+  H320  1  0.05647809  0.66819725  0.72835029  1
  H+  H321  1  0.34642854  0.41151191  0.40310545  1
  H+  H322  1  0.82555924  0.91742658  0.38706486  1
  H+  H323  1  0.19463458  0.32298905  0.56336059  1
  H+  H324  1  0.31071774  0.92121605  0.43954908  1
  H+  H325  1  0.38369253  0.71024998  0.42998373  1
  H+  H326  1  0.65497684  0.31250462  0.59353221  1
  H+  H327  1  0.83462898  0.66768894  0.10526170  1
  H+  H328  1  0.92669421  0.09282342  0.23077461  1
  H+  H329  1  0.58427132  0.40776573  0.39496916  1
  H+  H330  1  0.65973169  0.07218401  0.55472163  1
  H+  H331  1  0.08729959  0.13960869  0.99222926  1
  H+  H332  1  0.83262306  0.39939941  0.39373919  1
  H+  H333  1  0.92000052  0.09181467  0.55315695  1
  H+  H334  1  0.79023501  0.22620230  0.77629323  1
  H+  H335  1  0.76254256  0.14351740  0.81589383  1
  H+  H336  1  0.66935406  0.56567402  0.95420573  1
  H+  H337  1  0.58170319  0.15150252  0.72799190  1
  H+  H338  1  0.42560553  0.82890040  0.19134707  1
  H+  H339  1  0.89914302  0.83408956  0.55477721  1
  H+  H340  1  0.41252074  0.31495842  0.90647463  1
  H+  H341  1  0.94322438  0.34506902  0.94055548  1
  H+  H342  1  0.17822778  0.34697643  0.93094178  1
  H+  H343  1  0.41818678  0.09661708  0.59133795  1
  H+  H344  1  0.68489050  0.07888021  0.22431332  1
  H+  H345  1  0.37655044  0.84504086  1.00369739  1
  H+  H346  1  0.63063542  0.58452684  0.85203556  1
  H+  H347  1  0.42069203  0.79583290  0.91544367  1
  H+  H348  1  0.60794328  0.93194676  0.05163640  1
  H+  H349  1  0.83088269  0.66559770  0.42275607  1
  H+  H350  1  0.88417600  0.39947276  0.00543765  1
  H+  H351  1  0.12031095  0.80465209  0.25598105  1
  H+  H352  1  0.58309787  0.39175002  0.72564048  1
  H+  H353  1  0.97549711  0.80786010  0.60750444  1
  H+  H354  1  0.88190849  0.05794962  0.92801658  1
  H+  H355  1  0.32410190  0.90940130  0.06607657  1
  H+  H356  1  0.89922761  0.55888217  0.55032644  1
  H+  H357  1  0.08148575  0.92867831  0.77570507  1
  H+  H358  1  0.56165906  0.91611105  0.41532768  1
  H+  H359  1  0.86495662  0.68748055  0.74908850  1
  H+  H360  1  0.92361772  0.32723056  0.27107810  1
  H+  H361  1  0.66433768  0.89681960  0.14274883  1
  H+  H362  1  0.15501005  0.39193009  0.98479375  1
  H+  H363  1  0.61995005  0.26368338  0.49695935  1
  H+  H364  1  0.15988864  0.08723666  0.91098712  1
  H+  H365  1  0.46355300  0.85919716  0.48963704  1
  H+  H366  1  0.86799429  0.64934007  0.33177954  1
  H+  H367  1  0.72578266  0.36162845  1.00191686  1
  H+  H368  1  0.99586317  0.69734537  0.29356014  1
  H+  H369  1  0.82832400  0.16513549  0.42711950  1
  H+  H370  1  0.52204849  0.69697976  0.74201697  1
  H+  H371  1  0.40775327  0.06650348  0.93220813  1
  H+  H372  1  0.66277773  0.32582830  0.90915594  1
  H+  H373  1  0.36078128  0.81466357  0.27969983  1
  H+  H374  1  0.68448411  0.56878540  0.55781345  1
  H+  H375  1  0.08268844  0.16538814  0.76945322  1
  H+  H376  1  0.15673810  0.07161810  0.22548127  1
  H+  H377  1  0.64608099  0.02043906  0.65518720  1
  H+  H378  1  0.67774923  0.83020456  0.23705951  1
  H+  H379  1  0.07796537  0.91651512  0.39717999  1
  H+  H380  1  0.14701079  0.56063453  0.26918017  1
  H+  H381  1  0.88008759  0.98442906  0.15724223  1
  H+  H382  1  0.16685701  0.82373913  0.92998716  1
  H+  H383  1  0.58903963  0.66067161  0.42508430  1
  O2-  O384  1  0.08490201  0.24189071  0.13925448  1
  O2-  O385  1  0.08002228  0.16636888  0.46995710  1
  O2-  O386  1  0.07632512  0.16713397  0.81454817  1
  O2-  O387  1  0.06650713  0.41143909  0.14700663  1
  O2-  O388  1  0.06275439  0.41556038  0.45489633  1
  O2-  O389  1  0.09020099  0.41315462  0.81159791  1
  O2-  O390  1  0.07982829  0.65580507  0.13996827  1
  O2-  O391  1  0.09923203  0.66885188  0.47408798  1
  O2-  O392  1  0.07109285  0.67476481  0.79933774  1
  O2-  O393  1  0.08041936  0.90745206  0.14007169  1
  O2-  O394  1  0.07277185  0.91796199  0.47700576  1
  O2-  O395  1  0.08078315  0.92662667  0.82116296  1
  O2-  O396  1  0.32375146  0.15140230  0.13774224  1
  O2-  O397  1  0.31205951  0.17146613  0.47680427  1
  O2-  O398  1  0.31681920  0.13571928  0.80036467  1
  O2-  O399  1  0.31042806  0.41644391  0.14582498  1
  O2-  O400  1  0.36371603  0.38824793  0.48200488  1
  O2-  O401  1  0.34330729  0.40686025  0.81158269  1
  O2-  O402  1  0.31207226  0.64328017  0.15264078  1
  O2-  O403  1  0.37629899  0.73998521  0.50536772  1
  O2-  O404  1  0.31627766  0.63399592  0.82290102  1
  O2-  O405  1  0.31640730  0.90875798  0.14498000  1
  O2-  O406  1  0.31899240  0.92268408  0.48590284  1
  O2-  O407  1  0.32727430  0.94074792  0.79460079  1
  O2-  O408  1  0.58049183  0.14889416  0.15167352  1
  O2-  O409  1  0.57302266  0.15740917  0.46844552  1
  O2-  O410  1  0.59391113  0.16299129  0.80873203  1
  O2-  O411  1  0.55758456  0.42917414  0.15480673  1
  O2-  O412  1  0.56748165  0.40777587  0.47123477  1
  O2-  O413  1  0.56962923  0.37731152  0.80950614  1
  O2-  O414  1  0.57353502  0.66722741  0.15648340  1
  O2-  O415  1  0.58766649  0.66318939  0.47118975  1
  O2-  O416  1  0.55799420  0.69375485  0.81625656  1
  O2-  O417  1  0.66817212  0.93830829  0.11046802  1
  O2-  O418  1  0.56589361  0.91403201  0.46036147  1
  O2-  O419  1  0.58123487  0.91261732  0.81722495  1
  O2-  O420  1  0.84958806  0.17692483  0.14459575  1
  O2-  O421  1  0.82529214  0.16675318  0.47310961  1
  O2-  O422  1  0.81459454  0.19258893  0.79281610  1
  O2-  O423  1  0.84067924  0.41974674  0.14553126  1
  O2-  O424  1  0.81944728  0.39709682  0.47621476  1
  O2-  O425  1  0.84197652  0.42043400  0.87515514  1
  O2-  O426  1  0.83300318  0.66490121  0.15043853  1
  O2-  O427  1  0.83038844  0.66154168  0.46851294  1
  O2-  O428  1  0.84156227  0.68312571  0.82169368  1
  O2-  O429  1  0.85028647  0.92333381  0.14439685  1
  O2-  O430  1  0.81667657  0.91543856  0.47122966  1
  O2-  O431  1  0.82560219  0.90359503  0.83452862  1
  O2-  O432  1  0.15587341  0.06417032  0.18083021  1
  O2-  O433  1  0.15311800  0.08016181  0.52330238  1
  O2-  O434  1  0.15618788  0.08790225  0.86369236  1
  O2-  O435  1  0.12786969  0.31534793  0.16714520  1
  O2-  O436  1  0.20600050  0.32228512  0.51965172  1
  O2-  O437  1  0.17296760  0.33426086  0.84904512  1
  O2-  O438  1  0.14752887  0.56405325  0.18648912  1
  O2-  O439  1  0.20658625  0.62227005  0.52105981  1
  O2-  O440  1  0.16478004  0.55639318  0.86911739  1
  O2-  O441  1  0.14733646  0.81646025  0.17887014  1
  O2-  O442  1  0.15096722  0.83427644  0.51972306  1
  O2-  O443  1  0.16323589  0.83995541  0.85096524  1
  O2-  O444  1  0.40626770  0.07189193  0.19640129  1
  O2-  O445  1  0.40615257  0.09010642  0.51725324  1
  O2-  O446  1  0.43069685  0.08911113  0.85178156  1
  O2-  O447  1  0.37619073  0.31118137  0.16492251  1
  O2-  O448  1  0.40359180  0.33704025  0.49853336  1
  O2-  O449  1  0.41286540  0.31003042  0.86046019  1
  O2-  O450  1  0.40251341  0.57486610  0.20086674  1
  O2-  O451  1  0.42623356  0.55540082  0.52592055  1
  O2-  O452  1  0.40878390  0.56570205  0.86315949  1
  O2-  O453  1  0.36348402  0.80021585  0.19802329  1
  O2-  O454  1  0.40735079  0.83245136  0.51221596  1
  O2-  O455  1  0.42866471  0.77905473  0.87408760  1
  O2-  O456  1  0.68746834  0.08204667  0.17888904  1
  O2-  O457  1  0.65809887  0.07520655  0.50953881  1
  O2-  O458  1  0.67974166  0.08206659  0.84979988  1
  O2-  O459  1  0.67804853  0.32083326  0.17690179  1
  O2-  O460  1  0.64989744  0.32206349  0.51553270  1
  O2-  O461  1  0.67002480  0.32147140  0.86441984  1
  O2-  O462  1  0.66763672  0.59590971  0.18648190  1
  O2-  O463  1  0.67160404  0.57658093  0.51551230  1
  O2-  O464  1  0.66322091  0.62042152  0.81769741  1
  O2-  O465  1  0.67889227  0.83164925  0.18906360  1
  O2-  O466  1  0.63921375  0.82203406  0.49881231  1
  O2-  O467  1  0.66353540  0.84089810  0.87682736  1
  O2-  O468  1  0.92804774  0.09613855  0.18494086  1
  O2-  O469  1  0.91011644  0.08357092  0.50860324  1
  O2-  O470  1  0.90763662  0.07741030  0.84372521  1
  O2-  O471  1  0.91609968  0.33419003  0.19107646  1
  O2-  O472  1  0.89293542  0.32172259  0.51452464  1
  O2-  O473  1  0.93131221  0.33631478  0.85948959  1
  O2-  O474  1  0.91576151  0.57990509  0.18568520  1
  O2-  O475  1  0.89311400  0.55427528  0.50566038  1
  O2-  O476  1  0.91741154  0.59446785  0.86513823  1
  O2-  O477  1  0.92052935  0.83212316  0.18942713  1
  O2-  O478  1  0.89979529  0.83402811  0.51008446  1
  O2-  O479  1  0.92478868  0.84054983  0.86940656  1
  O2-  O480  1  0.15435443  0.08171818  0.30848286  1
  O2-  O481  1  0.17149283  0.08729996  0.64406240  1
  O2-  O482  1  0.16229712  0.08390256  0.97975954  1
  O2-  O483  1  0.16969578  0.34055080  0.32048164  1
  O2-  O484  1  0.18837836  0.33151970  0.64802063  1
  O2-  O485  1  0.17632989  0.35061923  0.97579413  1
  O2-  O486  1  0.14993725  0.55655690  0.31380785  1
  O2-  O487  1  0.15260792  0.60218169  0.64707646  1
  O2-  O488  1  0.15143994  0.54214103  0.98100430  1
  O2-  O489  1  0.09455206  0.78735561  0.29726542  1
  O2-  O490  1  0.14755957  0.83350805  0.64760674  1
  O2-  O491  1  0.16977392  0.82133088  0.97512344  1
  O2-  O492  1  0.39155706  0.08512471  0.32025309  1
  O2-  O493  1  0.41716921  0.09448896  0.63745927  1
  O2-  O494  1  0.41092405  0.06918835  0.97724633  1
  O2-  O495  1  0.41549352  0.32920882  0.31819886  1
  O2-  O496  1  0.42330112  0.33327273  0.64869609  1
  O2-  O497  1  0.41707143  0.32764776  0.98267307  1
  O2-  O498  1  0.42042820  0.58751010  0.32373969  1
  O2-  O499  1  0.40248600  0.56487587  0.63946213  1
  O2-  O500  1  0.41585477  0.57663473  0.98692436  1
  O2-  O501  1  0.37071253  0.83019321  0.32335125  1
  O2-  O502  1  0.44795204  0.89466097  0.62348833  1
  O2-  O503  1  0.40668145  0.81215749  0.99502090  1
  O2-  O504  1  0.67715119  0.07931396  0.30307992  1
  O2-  O505  1  0.66942286  0.07871877  0.63609964  1
  O2-  O506  1  0.70280663  0.11756429  1.01139441  1
  O2-  O507  1  0.66736576  0.32356823  0.30648062  1
  O2-  O508  1  0.65914394  0.31231277  0.63904240  1
  O2-  O509  1  0.66506461  0.33676865  0.98867571  1
  O2-  O510  1  0.66324240  0.57266287  0.30934464  1
  O2-  O511  1  0.73446085  0.54993386  0.63356349  1
  O2-  O512  1  0.66666291  0.57203067  0.99791530  1
  O2-  O513  1  0.67803801  0.82129960  0.30469913  1
  O2-  O514  1  0.66281865  0.81738311  0.66322148  1
  O2-  O515  1  0.66323820  0.82375290  1.00500817  1
  O2-  O516  1  0.91729939  0.08462080  0.30692872  1
  O2-  O517  1  0.93960072  0.10401138  0.63263755  1
  O2-  O518  1  0.88319214  0.05430877  0.97262098  1
  O2-  O519  1  0.92408969  0.32341059  0.31607342  1
  O2-  O520  1  0.91767221  0.32772164  0.63280728  1
  O2-  O521  1  0.94723172  0.35694702  0.98504209  1
  O2-  O522  1  0.94853788  0.63614337  0.30000199  1
  O2-  O523  1  0.89394619  0.54674707  0.63143229  1
  O2-  O524  1  0.91926614  0.58939123  0.98714706  1
  O2-  O525  1  0.91067702  0.83389717  0.31326844  1
  O2-  O526  1  0.93868859  0.82095898  0.63261472  1
  O2-  O527  1  0.90955813  0.82891210  0.98553555  1
  O2-  O528  1  0.04963627  0.16441996  -0.01006098  1
  O2-  O529  1  0.08077373  0.17124658  0.34666892  1
  O2-  O530  1  0.09448051  0.17051741  0.69121072  1
  O2-  O531  1  0.10994058  0.45170694  0.00315171  1
  O2-  O532  1  0.08726750  0.40781586  0.35065500  1
  O2-  O533  1  0.13287456  0.44279999  0.69281292  1
  O2-  O534  1  0.08326900  0.65004197  0.01840828  1
  O2-  O535  1  0.08225934  0.64482818  0.35944597  1
  O2-  O536  1  0.05028755  0.66665000  0.68195025  1
  O2-  O537  1  0.10112772  0.92530810  0.01767954  1
  O2-  O538  1  0.07708379  0.91680635  0.35184583  1
  O2-  O539  1  0.08636920  0.92830256  0.69714778  1
  O2-  O540  1  0.33480570  0.16330569  0.01812833  1
  O2-  O541  1  0.31893771  0.17121618  0.35195000  1
  O2-  O542  1  0.33482967  0.17238214  0.68088144  1
  O2-  O543  1  0.33449231  0.41164769  0.02370203  1
  O2-  O544  1  0.33683814  0.41757027  0.35951028  1
  O2-  O545  1  0.34912529  0.41071230  0.68561448  1
  O2-  O546  1  0.31464277  0.63833783  0.02760511  1
  O2-  O547  1  0.39075326  0.70129247  0.38590207  1
  O2-  O548  1  0.30870871  0.64152179  0.69905448  1
  O2-  O549  1  0.32959682  0.90785533  0.02087880  1
  O2-  O550  1  0.29470766  0.91722582  0.36991333  1
  O2-  O551  1  0.32503650  0.93098372  0.67420518  1
  O2-  O552  1  0.58026728  0.16343126  -0.01858291  1
  O2-  O553  1  0.58894891  0.16149018  0.33694176  1
  O2-  O554  1  0.57679732  0.14857814  0.68280296  1
  O2-  O555  1  0.57504101  0.40929579  0.03533761  1
  O2-  O556  1  0.59013166  0.40592873  0.34959156  1
  O2-  O557  1  0.58443063  0.39654191  0.68079698  1
  O2-  O558  1  0.57583844  0.65738667  0.03040524  1
  O2-  O559  1  0.59073738  0.66574646  0.35045739  1
  O2-  O560  1  0.51418234  0.70826022  0.69901901  1
  O2-  O561  1  0.58450031  0.93554655  0.01076956  1
  O2-  O562  1  0.55226840  0.92323327  0.33626905  1
  O2-  O563  1  0.59370659  0.92125317  0.68767929  1
  O2-  O564  1  0.86346964  0.20387362  0.03090480  1
  O2-  O565  1  0.83344523  0.15937803  0.35301838  1
  O2-  O566  1  0.84215597  0.16556648  0.67433429  1
  O2-  O567  1  0.84266203  0.42050865  0.01340673  1
  O2-  O568  1  0.83908406  0.39893245  0.34908205  1
  O2-  O569  1  0.82964705  0.38811777  0.67928310  1
  O2-  O570  1  0.83857130  0.67136907  0.02561169  1
  O2-  O571  1  0.82834273  0.66889098  0.34741299  1
  O2-  O572  1  0.87845740  0.68482044  0.70486470  1
  O2-  O573  1  0.83600275  0.90723841  0.01777149  1
  O2-  O574  1  0.83037199  0.91841761  0.34224663  1
  O2-  O575  1  0.78630232  0.81127485  0.73274739  1
