# generated using pymatgen
data_H2O
_symmetry_space_group_name_H-M   'P 1'
_cell_length_a   17.99356868
_cell_length_b   17.99881837
_cell_length_c   22.00136622
_cell_angle_alpha   89.99010944
_cell_angle_beta   90.01669042
_cell_angle_gamma   120.02249047
_symmetry_Int_Tables_number   1
_chemical_formula_structural   H2O
_chemical_formula_sum   'H384 O192'
_cell_volume   6169.40236041
_cell_formula_units_Z   192
loop_
 _symmetry_equiv_pos_site_id
 _symmetry_equiv_pos_as_xyz
  1  'x, y, z'
loop_
 _atom_type_symbol
 _atom_type_oxidation_number
  H+  1.0
  O2-  -2.0
loop_
 _atom_site_type_symbol
 _atom_site_label
 _atom_site_symmetry_multiplicity
 _atom_site_fract_x
 _atom_site_fract_y
 _atom_site_fract_z
 _atom_site_occupancy
  H+  H0  1  0.25375210  0.61774420  1.00970447  1
  H+  H1  1  0.63221919  0.09792397  0.33341800  1
  H+  H2  1  0.89405449  0.12261693  0.18151978  1
  H+  H3  1  0.88466851  0.03007478  0.99233241  1
  H+  H4  1  0.39134349  0.36447260  0.84185169  1
  H+  H5  1  0.87575705  1.01138056  0.50095024  1
  H+  H6  1  0.36240812  0.14465906  1.00472964  1
  H+  H7  1  0.64742766  1.00315556  0.15201842  1
  H+  H8  1  0.78052499  0.63428542  0.67204920  1
  H+  H9  1  -0.05693941  0.43164889  0.20616741  1
  H+  H10  1  0.02355264  0.15058587  0.16877382  1
  H+  H11  1  0.59686110  0.66944812  0.10545453  1
  H+  H12  1  0.02792184  0.64074689  0.33385073  1
  H+  H13  1  0.36881534  0.89940719  0.83087848  1
  H+  H14  1  0.86869437  0.72455372  0.67222817  1
  H+  H15  1  0.01966428  0.37588098  0.00651049  1
  H+  H16  1  0.11486068  0.63657942  0.67254547  1
  H+  H17  1  0.11242097  0.47352907  0.82013369  1
  H+  H18  1  0.15243493  0.37671717  -0.00888253  1
  H+  H19  1  0.13558561  0.25077387  0.50442448  1
  H+  H20  1  0.34326578  0.16496342  0.14961450  1
  H+  H21  1  0.88409679  0.24696904  0.66044389  1
  H+  H22  1  0.27130306  0.17825318  0.83166665  1
  H+  H23  1  0.40193971  0.56009891  0.82073110  1
  H+  H24  1  0.62726914  0.76941502  0.49769931  1
  H+  H25  1  0.08044208  0.94757361  0.84361295  1
  H+  H26  1  0.72097557  0.36575161  0.83201556  1
  H+  H27  1  0.14254840  0.36190893  0.32731445  1
  H+  H28  1  0.09957252  0.87066007  0.84378562  1
  H+  H29  1  0.62363617  0.72937545  0.16403845  1
  H+  H30  1  0.62830312  0.26935201  0.17955485  1
  H+  H31  1  0.49089277  0.63926432  0.83648965  1
  H+  H32  1  0.60349788  0.38490972  0.16348763  1
  H+  H33  1  0.50023190  0.60579448  0.67239718  1
  H+  H34  1  0.87508357  0.01019153  0.65607774  1
  H+  H35  1  0.14103045  0.02485804  0.32561553  1
  H+  H36  1  0.72238189  0.36499368  0.65595870  1
  H+  H37  1  0.29725202  0.97504631  0.13592640  1
  H+  H38  1  0.57718026  0.21590329  0.03501331  1
  H+  H39  1  0.12552292  0.52302570  0.50804318  1
  H+  H40  1  0.81125372  0.87171264  0.34979719  1
  H+  H41  1  0.27318471  0.39369061  0.16069951  1
  H+  H42  1  0.62586358  0.72714187  1.01224753  1
  H+  H43  1  0.96363549  0.09842452  0.33485310  1
  H+  H44  1  0.85145922  0.46628226  0.67574936  1
  H+  H45  1  0.25671152  0.36802269  0.82798874  1
  H+  H46  1  0.39377577  0.01780951  0.65850508  1
  H+  H47  1  0.24367194  0.86674375  0.33058901  1
  H+  H48  1  0.38604050  0.36928572  0.66364854  1
  H+  H49  1  0.39557981  0.87504785  0.66341528  1
  H+  H50  1  0.82403421  0.15560880  0.76606383  1
  H+  H51  1  0.11537084  0.97775438  0.49774943  1
  H+  H52  1  0.09714055  0.65182944  0.00483134  1
  H+  H53  1  0.85443127  0.49093878  0.52334135  1
  H+  H54  1  0.75569527  0.12553730  0.15624332  1
  H+  H55  1  0.89234122  0.61653987  0.32515459  1
  H+  H56  1  0.48267031  0.10752918  0.65680190  1
  H+  H57  1  0.62021902  0.40240122  0.82400701  1
  H+  H58  1  0.03139348  0.88243166  0.66496836  1
  H+  H59  1  0.72936293  0.60861402  0.16850143  1
  H+  H60  1  0.11145311  0.38342812  0.82197686  1
  H+  H61  1  0.35842967  0.22999096  0.67714837  1
  H+  H62  1  0.61208470  0.47823396  0.16234606  1
  H+  H63  1  0.84116241  0.37444159  0.50721164  1
  H+  H64  1  0.11914343  0.97173213  0.66699006  1
  H+  H65  1  0.62818562  0.37219901  0.50556367  1
  H+  H66  1  0.92016663  0.33243345  0.93081205  1
  H+  H67  1  0.22569872  0.62397826  0.83144707  1
  H+  H68  1  0.39771397  0.36469473  0.50995361  1
  H+  H69  1  0.52223033  0.39004506  0.67277498  1
  H+  H70  1  1.01688384  0.12405255  0.49430216  1
  H+  H71  1  0.13762079  1.01754548  -0.01063869  1
  H+  H72  1  0.76862141  0.87028423  0.67390559  1
  H+  H73  1  0.27273925  0.38229211  0.34130804  1
  H+  H74  1  0.10812181  0.46328992  0.01264887  1
  H+  H75  1  0.92244362  0.56982962  0.27494935  1
  H+  H76  1  0.67739600  0.31587732  0.98316359  1
  H+  H77  1  0.61184268  0.89417006  0.01660870  1
  H+  H78  1  0.86154729  0.72885624  0.49307313  1
  H+  H79  1  0.14595100  0.50154168  0.34522247  1
  H+  H80  1  0.76270769  0.62764336  0.33800657  1
  H+  H81  1  0.62081625  -0.02527578  0.84587550  1
  H+  H82  1  0.24699943  0.38744794  -0.01126696  1
  H+  H83  1  0.36542731  0.65683395  0.82498860  1
  H+  H84  1  0.86414489  0.75473196  0.84908990  1
  H+  H85  1  0.36606661  0.96564108  0.17210440  1
  H+  H86  1  0.62701451  0.77880937  0.32791228  1
  H+  H87  1  0.64378351  0.73776233  0.64537794  1
  H+  H88  1  0.62345462  0.73911535  0.81940425  1
  H+  H89  1  0.26536451  0.38369375  0.67576177  1
  H+  H90  1  0.95430736  0.59576534  0.85067285  1
  H+  H91  1  0.96829995  0.86719375  0.99906196  1
  H+  H92  1  0.36777098  0.21794519  0.33099916  1
  H+  H93  1  0.73574930  0.87481342  1.01502136  1
  H+  H94  1  0.84687532  0.61866080  0.82962644  1
  H+  H95  1  0.85141468  0.46133986  0.82869451  1
  H+  H96  1  0.65047654  0.38812595  0.99169837  1
  H+  H97  1  0.47818465  0.86513752  0.50577259  1
  H+  H98  1  0.57849703  0.01855386  0.49217544  1
  H+  H99  1  0.63142606  0.86845471  0.82838821  1
  H+  H100  1  0.63110689  0.89841108  0.16447884  1
  H+  H101  1  0.62389641  0.48353842  0.00857028  1
  H+  H102  1  0.36153444  0.83710684  0.21188212  1
  H+  H103  1  0.56491313  0.86109350  0.33274499  1
  H+  H104  1  0.64161049  0.60355081  0.65682347  1
  H+  H105  1  0.76202967  0.13597966  0.56566351  1
  H+  H106  1  0.41401474  0.57839474  0.59785262  1
  H+  H107  1  0.42747579  0.82776926  0.25236442  1
  H+  H108  1  0.66666296  0.84389570  0.23675038  1
  H+  H109  1  0.27599428  0.88534313  0.49750514  1
  H+  H110  1  0.47578338  0.37361760  0.17232893  1
  H+  H111  1  0.89032772  0.61350501  0.66933057  1
  H+  H112  1  0.10810220  0.21847840  0.34218505  1
  H+  H113  1  0.86444008  0.13419730  0.82364296  1
  H+  H114  1  0.28290111  0.61675316  0.49118648  1
  H+  H115  1  0.61587546  0.23216362  0.66577123  1
  H+  H116  1  0.76986878  0.88814823  0.49208178  1
  H+  H117  1  0.96383654  0.35295164  0.33873649  1
  H+  H118  1  0.50261507  0.12490364  0.01594553  1
  H+  H119  1  0.74124415  0.60040444  -0.00845722  1
  H+  H120  1  0.07069251  0.67475028  0.06791576  1
  H+  H121  1  0.27131784  0.55577410  0.04768328  1
  H+  H122  1  0.43065742  0.11497653  0.50689893  1
  H+  H123  1  0.39047980  0.61435922  0.99231397  1
  H+  H124  1  0.86711129  0.98530144  0.16550131  1
  H+  H125  1  0.83152898  0.37008172  0.15567242  1
  H+  H126  1  0.54102244  0.92421214  0.67518808  1
  H+  H127  1  0.37046335  0.23944951  0.83367164  1
  H+  H128  1  0.03544884  0.63550197  0.47943331  1
  H+  H129  1  0.95732051  0.83693665  0.85570411  1
  H+  H130  1  0.36985900  0.97270215  0.49835437  1
  H+  H131  1  0.38941820  0.61555374  0.32884205  1
  H+  H132  1  0.47531792  0.87330291  0.84666532  1
  H+  H133  1  0.34957047  0.25419470  0.15473113  1
  H+  H134  1  0.61692694  0.13750044  0.43348784  1
  H+  H135  1  0.63111344  0.36392301  0.65637987  1
  H+  H136  1  0.97999149  0.34598974  0.66162124  1
  H+  H137  1  0.72837429  0.61411232  0.83110244  1
  H+  H138  1  0.98038457  0.61201390  0.66375901  1
  H+  H139  1  0.08117302  0.54263070  0.96739759  1
  H+  H140  1  0.61768033  0.48056644  0.49514072  1
  H+  H141  1  0.87934025  0.88074440  0.82569277  1
  H+  H142  1  0.59448577  0.87848935  0.48549845  1
  H+  H143  1  0.54845248  0.11750196  0.18338026  1
  H+  H144  1  0.33849702  0.67470960  0.10881750  1
  H+  H145  1  0.37781164  0.39868517  0.00983922  1
  H+  H146  1  0.70518407  0.87484137  0.33546996  1
  H+  H147  1  0.27673796  0.88356024  0.67507950  1
  H+  H148  1  0.64444499  0.51779061  0.65718118  1
  H+  H149  1  0.97291045  0.86694706  0.50228304  1
  H+  H150  1  0.10107693  0.71917443  0.16457435  1
  H+  H151  1  0.87422254  0.48448027  0.35807560  1
  H+  H152  1  0.73114059  0.61403776  0.50495525  1
  H+  H153  1  0.11298981  0.88877314  0.16246970  1
  H+  H154  1  0.98104305  0.58046139  0.18248222  1
  H+  H155  1  0.37622430  0.61832246  0.17909837  1
  H+  H156  1  0.86043320  0.13652328  0.34544879  1
  H+  H157  1  0.57887378  0.42078346  0.39890582  1
  H+  H158  1  0.58022800  0.25150679  0.81748193  1
  H+  H159  1  0.87674996  0.10103662  0.50629954  1
  H+  H160  1  0.34400370  0.65536406  0.43312526  1
  H+  H161  1  0.85266547  0.11285489  0.66184924  1
  H+  H162  1  0.88291586  0.86662914  0.50015669  1
  H+  H163  1  0.38203087  0.35633533  0.32745436  1
  H+  H164  1  0.65557464  0.14911510  0.80184268  1
  H+  H165  1  0.52804180  0.39801147  0.82600407  1
  H+  H166  1  0.01756922  0.12949874  0.67100178  1
  H+  H167  1  0.36689545  0.64571329  0.66961129  1
  H+  H168  1  0.36393694  -0.01328743  0.82827849  1
  H+  H169  1  0.10679813  0.37592181  0.66971225  1
  H+  H170  1  0.63703056  0.62243655  0.83206947  1
  H+  H171  1  0.14794778  0.62003347  0.31668775  1
  H+  H172  1  0.62807476  0.92724800  0.68882033  1
  H+  H173  1  0.74024177  0.09494723  0.85696922  1
  H+  H174  1  0.60960349  0.79776080  0.66224531  1
  H+  H175  1  0.39916687  0.01273741  0.34418298  1
  H+  H176  1  0.89494150  0.79877966  0.29730870  1
  H+  H177  1  0.86624570  0.89630855  0.00878511  1
  H+  H178  1  0.37812011  0.02137827  0.99480982  1
  H+  H179  1  0.27134602  0.88653763  0.00515221  1
  H+  H180  1  0.27930132  0.64654118  0.67184248  1
  H+  H181  1  0.11150269  0.13197445  0.34028744  1
  H+  H182  1  0.88504815  0.26809477  0.83521202  1
  H+  H183  1  0.43465590  0.15238379  0.13025816  1
  H+  H184  1  0.53363389  0.55565586  0.71110375  1
  H+  H185  1  0.26654189  0.14087285  0.49206727  1
  H+  H186  1  0.13018634  0.26455088  0.66024358  1
  H+  H187  1  0.89495825  0.36708254  0.99112149  1
  H+  H188  1  0.91819861  0.89483264  0.30001750  1
  H+  H189  1  0.38461723  0.78668144  0.84236047  1
  H+  H190  1  0.38602865  0.88374091  0.34821512  1
  H+  H191  1  0.36716425  0.73281302  0.17192300  1
  H+  H192  1  0.19090337  0.06148860  0.83518545  1
  H+  H193  1  0.10266178  0.12780811  0.82592365  1
  H+  H194  1  0.29425521  0.21879649  0.44937901  1
  H+  H195  1  0.29530523  0.65629018  0.33644892  1
  H+  H196  1  0.37158461  0.51991666  0.17496204  1
  H+  H197  1  0.14375055  0.36593835  0.17748799  1
  H+  H198  1  0.72341248  0.87556893  0.83577616  1
  H+  H199  1  0.52459620  0.63591570  0.33685822  1
  H+  H200  1  0.62958364  0.52231676  0.83010267  1
  H+  H201  1  0.12901533  0.89352000  0.34267803  1
  H+  H202  1  0.22922636  0.11572203  0.66322331  1
  H+  H203  1  0.83588775  0.71662215  0.36383825  1
  H+  H204  1  0.39102823  0.38302468  0.17536878  1
  H+  H205  1  0.07235428  0.38462125  0.50367534  1
  H+  H206  1  0.21445396  0.85622376  0.17622464  1
  H+  H207  1  0.13655718  0.10843663  0.66029161  1
  H+  H208  1  0.70235084  1.06629391  0.66519768  1
  H+  H209  1  0.48836118  0.37335260  0.99441449  1
  H+  H210  1  0.80556348  0.41952897  0.99626374  1
  H+  H211  1  -0.08629490  0.60106358  0.52112973  1
  H+  H212  1  0.88790570  0.85489997  0.65591204  1
  H+  H213  1  0.83711615  0.41765539  0.06216165  1
  H+  H214  1  0.52397616  0.14695591  0.36340562  1
  H+  H215  1  0.87560445  0.26366210  0.33572525  1
  H+  H216  1  0.38982558  0.86369543  0.00128595  1
  H+  H217  1  0.86831508  0.01305071  0.33544248  1
  H+  H218  1  0.36382643  0.10900361  0.85007666  1
  H+  H219  1  0.40062448  0.11114624  0.11571950  1
  H+  H220  1  0.16615830  0.62462479  0.51031685  1
  H+  H221  1  0.11225501  0.63723725  0.15644207  1
  H+  H222  1  0.38104694  0.48892341  0.00718288  1
  H+  H223  1  0.14053944  0.27518714  0.17578725  1
  H+  H224  1  0.85883280  0.72007924  0.13922227  1
  H+  H225  1  0.63431274  0.11799458  0.00576563  1
  H+  H226  1  0.61769164  0.12253945  0.82194050  1
  H+  H227  1  0.88916479  0.02516658  0.84055971  1
  H+  H228  1  0.63549587  0.03043650  1.01000598  1
  H+  H229  1  0.22831195  0.61668940  0.16987501  1
  H+  H230  1  0.60252813  0.00252108  0.31867429  1
  H+  H231  1  0.42153107  0.83665966  0.94366046  1
  H+  H232  1  0.13513134  0.10517687  0.51159139  1
  H+  H233  1  0.82942378  0.65734870  0.76747685  1
  H+  H234  1  0.51737658  0.38904720  0.34021650  1
  H+  H235  1  0.37124412  0.46960972  0.49706145  1
  H+  H236  1  0.63247041  0.37329797  0.32374731  1
  H+  H237  1  0.88239424  0.11834777  -0.00699815  1
  H+  H238  1  0.39108426  0.59845276  0.50381144  1
  H+  H239  1  0.93651280  0.33977421  0.50571801  1
  H+  H240  1  0.21308657  0.12453726  0.16825203  1
  H+  H241  1  0.13326433  0.61605533  0.82933199  1
  H+  H242  1  0.34023835  0.44586875  0.85286853  1
  H+  H243  1  0.61746802  0.63631876  0.49061281  1
  H+  H244  1  0.54182984  0.07843069  0.51373807  1
  H+  H245  1  1.03948039  0.89146100  0.33647967  1
  H+  H246  1  0.10988132  0.88707619  0.00253447  1
  H+  H247  1  0.40373626  0.57950977  0.24243203  1
  H+  H248  1  0.63392354  0.52555462  0.32513031  1
  H+  H249  1  0.14232781  0.87454046  0.50845026  1
  H+  H250  1  0.63371455  0.28753719  0.33096814  1
  H+  H251  1  0.16378690  0.33221521  0.89195134  1
  H+  H252  1  0.66203324  0.12071307  0.15791313  1
  H+  H253  1  0.12715108  0.26382309  0.83703184  1
  H+  H254  1  0.65870369  0.61337747  -0.00050259  1
  H+  H255  1  0.74887700  0.37948554  0.15822648  1
  H+  H256  1  0.13000451  0.78224277  0.51052127  1
  H+  H257  1  0.58535991  0.42056787  0.73062717  1
  H+  H258  1  0.10678228  0.14429742  0.16108920  1
  H+  H259  1  0.15143839  0.78150985  0.32875676  1
  H+  H260  1  0.58222321  0.94173099  0.77876209  1
  H+  H261  1  0.71823016  0.36391519  0.50686244  1
  H+  H262  1  0.39609136  0.27625316  0.51180269  1
  H+  H263  1  0.84383950  0.25303170  0.52191836  1
  H+  H264  1  -0.02718798  0.35838648  0.83411957  1
  H+  H265  1  0.02539340  0.15584124  -0.03911799  1
  H+  H266  1  0.73383824  0.87456548  0.17981624  1
  H+  H267  1  0.53847411  0.63915487  1.00650786  1
  H+  H268  1  0.11576741  -0.01962647  0.15836644  1
  H+  H269  1  0.66401898  0.83235265  0.06399404  1
  H+  H270  1  0.14050857  0.52466139  0.16848760  1
  H+  H271  1  0.37356727  0.52165823  0.65857926  1
  H+  H272  1  0.45705071  0.12928058  0.83787630  1
  H+  H273  1  0.38380160  0.86814351  0.51234159  1
  H+  H274  1  0.15748548  0.34299097  0.48400831  1
  H+  H275  1  0.03529118  0.71131548  0.80451818  1
  H+  H276  1  0.15366966  0.77963162  0.83952295  1
  H+  H277  1  0.86372715  0.39023952  0.35726830  1
  H+  H278  1  0.77649550  0.14703260  1.01807052  1
  H+  H279  1  0.03070195  0.39389853  0.16950675  1
  H+  H280  1  0.61522199  0.64008777  0.33541257  1
  H+  H281  1  0.43120703  0.09038331  0.19879799  1
  H+  H282  1  0.17197910  0.08163713  0.57101272  1
  H+  H283  1  0.48169496  0.60181674  0.50711860  1
  H+  H284  1  0.52724474  0.38974397  0.49820929  1
  H+  H285  1  0.41911633  0.33881499  0.60586413  1
  H+  H286  1  0.13239216  0.78120177  0.99476211  1
  H+  H287  1  0.88506552  0.49974849  0.18122799  1
  H+  H288  1  0.77195272  0.13390398  0.34566300  1
  H+  H289  1  0.32617201  0.18324733  0.05575452  1
  H+  H290  1  0.23829682  0.87263264  0.83909122  1
  H+  H291  1  0.85461877  0.37433352  0.82508877  1
  H+  H292  1  0.11690481  0.72794317  0.66914831  1
  H+  H293  1  0.17595162  0.58510260  0.26019199  1
  H+  H294  1  0.42573295  0.59626469  0.93130564  1
  H+  H295  1  0.83895163  0.90900826  0.72830576  1
  H+  H296  1  0.39317822  0.09887086  0.33130937  1
  H+  H297  1  0.90869123  0.08504047  0.89973810  1
  H+  H298  1  0.15383480  0.06863506  0.90102879  1
  H+  H299  1  0.16419539  0.83215675  0.23843746  1
  H+  H300  1  0.68607476  0.07113815  0.91934551  1
  H+  H301  1  0.92106055  0.35041599  0.24607318  1
  H+  H302  1  0.83160214  0.65833052  0.44005187  1
  H+  H303  1  0.08459692  0.91753679  0.06317889  1
  H+  H304  1  0.88453079  0.24982645  0.16221363  1
  H+  H305  1  0.16318352  0.32346236  0.60072467  1
  H+  H306  1  0.65246329  0.82523769  0.55721698  1
  H+  H307  1  0.09804266  0.66324826  0.38602686  1
  H+  H308  1  0.16017181  0.08482099  0.22984059  1
  H+  H309  1  0.34436863  0.90729153  0.40497438  1
  H+  H310  1  0.33846909  0.43119828  0.10194377  1
  H+  H311  1  0.40320205  0.79036126  0.66117161  1
  H+  H312  1  0.81896333  0.91976991  0.42628814  1
  H+  H313  1  0.84148497  0.93375139  0.06754413  1
  H+  H314  1  0.65564792  0.33413140  0.23649875  1
  H+  H315  1  0.22907116  0.11261420  0.32078791  1
  H+  H316  1  0.67027636  0.58133031  0.56314747  1
  H+  H317  1  0.28481495  0.37617919  0.49817328  1
  H+  H318  1  0.15703033  0.59308741  0.92294843  1
  H+  H319  1  0.55120464  0.18890048  0.76054499  1
  H+  H320  1  0.17517517  0.83539221  0.60339574  1
  H+  H321  1  0.43082046  0.34655423  0.90197428  1
  H+  H322  1  0.64416829  0.61543814  0.17443086  1
  H+  H323  1  0.32957789  0.91739779  0.06480150  1
  H+  H324  1  0.42583001  0.84757722  0.57578433  1
  H+  H325  1  0.85949669  0.19100198  0.10220146  1
  H+  H326  1  0.16927039  0.33027940  0.26725496  1
  H+  H327  1  0.89204931  0.57718736  0.90780385  1
  H+  H328  1  0.32722682  0.17157768  0.73574817  1
  H+  H329  1  0.43087337  0.07111373  0.57158524  1
  H+  H330  1  0.32464111  0.41726777  0.73512943  1
  H+  H331  1  0.16823485  0.57843339  0.60589628  1
  H+  H332  1  0.67111806  0.58441130  0.26464464  1
  H+  H333  1  0.33532169  0.15851501  0.38916361  1
  H+  H334  1  0.54690079  0.89359686  0.42745844  1
  H+  H335  1  0.41450826  0.33390185  0.26665656  1
  H+  H336  1  0.14105457  0.86232320  0.66146572  1
  H+  H337  1  0.59040937  0.92224384  0.10190159  1
  H+  H338  1  0.08888202  0.92094859  0.43675295  1
  H+  H339  1  0.90510828  0.06964109  0.59579403  1
  H+  H340  1  0.58304531  0.66570352  0.76628720  1
  H+  H341  1  0.00321968  0.69310256  0.44958582  1
  H+  H342  1  0.17222397  0.83776523  0.93406338  1
  H+  H343  1  0.44288932  0.05329863  0.25941966  1
  H+  H344  1  0.13566156  0.51961124  0.66439346  1
  H+  H345  1  0.19531090  0.47402922  0.38909191  1
  H+  H346  1  -0.02095718  0.86761343  0.14813289  1
  H+  H347  1  0.58335395  0.66269169  0.43128860  1
  H+  H348  1  0.39122554  0.73946973  0.34680723  1
  H+  H349  1  0.91168999  0.08244984  0.24154049  1
  H+  H350  1  0.22587843  0.10921600  0.98396726  1
  H+  H351  1  0.72023776  0.13730343  0.50475326  1
  H+  H352  1  0.57718894  0.15271649  0.11585719  1
  H+  H353  1  0.86682544  0.89589140  0.15442799  1
  H+  H354  1  0.01893534  0.13565125  0.82742647  1
  H+  H355  1  0.83110175  0.41901966  0.44381628  1
  H+  H356  1  0.33512631  0.41314856  0.40010155  1
  H+  H357  1  0.07535842  0.40561828  0.72922965  1
  H+  H358  1  0.89869707  0.82657801  0.94660971  1
  H+  H359  1  0.38353613  0.52181685  0.32828094  1
  H+  H360  1  0.39634456  0.28565641  0.99001684  1
  H+  H361  1  0.65815497  0.33769368  0.57070425  1
  H+  H362  1  0.83495908  0.64930103  0.08883072  1
  H+  H363  1  0.90788897  0.31592860  0.60102223  1
  H+  H364  1  0.07493462  0.15948255  0.73152365  1
  H+  H365  1  0.81533140  0.40066255  0.72982728  1
  H+  H366  1  0.07820357  0.15302368  0.43538297  1
  H+  H367  1  0.94287127  0.96254852  0.78926656  1
  H+  H368  1  0.66927936  0.35647473  0.89313157  1
  H+  H369  1  0.33561094  0.68221867  0.76412052  1
  H+  H370  1  0.58750922  0.41947210  0.06714124  1
  H+  H371  1  0.62889342  0.15353903  0.68104710  1
  H+  H372  1  0.11701789  0.23514631  0.97041054  1
  H+  H373  1  0.95073032  0.63144509  1.00084588  1
  H+  H374  1  0.51895130  0.88932756  0.01429836  1
  H+  H375  1  0.07994320  0.40779629  0.10576270  1
  H+  H376  1  0.07486529  0.42358346  0.43862173  1
  H+  H377  1  0.86694269  0.23354259  0.00699796  1
  H+  H378  1  0.41131979  0.08543230  0.93696609  1
  H+  H379  1  0.06955327  0.66890326  0.75902298  1
  H+  H380  1  0.33783086  0.91922412  0.73424548  1
  H+  H381  1  0.92496469  0.83745815  0.20679198  1
  H+  H382  1  0.91426506  0.82632598  0.59527287  1
  H+  H383  1  0.89497852  0.55965514  0.59195442  1
  O2-  O384  1  0.08295140  0.18224829  0.15224445  1
  O2-  O385  1  0.07836349  0.15296518  0.48125489  1
  O2-  O386  1  0.07665385  0.16039124  0.80773238  1
  O2-  O387  1  0.08866330  0.41721331  0.15058312  1
  O2-  O388  1  0.05257477  0.41830656  0.48120904  1
  O2-  O389  1  0.08151566  0.41356112  0.80519391  1
  O2-  O390  1  0.07486365  0.66140049  0.14519721  1
  O2-  O391  1  0.01869761  0.67820612  0.48850352  1
  O2-  O392  1  0.06058531  0.67424064  0.80397280  1
  O2-  O393  1  0.08834228  0.92060144  0.14161794  1
  O2-  O394  1  0.08456793  0.91714861  0.48198656  1
  O2-  O395  1  0.05460602  0.88540197  0.83494017  1
  O2-  O396  1  0.31316713  0.19468476  0.13654103  1
  O2-  O397  1  0.31740221  0.18522595  0.46772760  1
  O2-  O398  1  0.32498461  0.18004672  0.82129398  1
  O2-  O399  1  0.33503656  0.43217062  0.14768076  1
  O2-  O400  1  0.34307314  0.40889866  0.48031065  1
  O2-  O401  1  0.32178683  0.40438422  0.81968686  1
  O2-  O402  1  0.33781094  0.67248374  0.15367042  1
  O2-  O403  1  0.34281580  0.64446511  0.47761444  1
  O2-  O404  1  0.33011166  0.68105014  0.80947374  1
  O2-  O405  1  0.31486862  0.93293642  0.14487497  1
  O2-  O406  1  0.33723033  0.91074276  0.48433991  1
  O2-  O407  1  0.33712936  0.92654656  0.81209695  1
  O2-  O408  1  0.59693334  0.16182286  0.15892656  1
  O2-  O409  1  0.63575106  0.17028414  0.39425456  1
  O2-  O410  1  0.52977648  0.20404647  0.79701152  1
  O2-  O411  1  0.57623317  0.41759538  0.14706566  1
  O2-  O412  1  0.58711420  0.41870277  0.48094606  1
  O2-  O413  1  0.58769856  0.43192794  0.80846986  1
  O2-  O414  1  0.59691643  0.66912999  0.15058486  1
  O2-  O415  1  0.58337227  0.66325205  0.47692818  1
  O2-  O416  1  0.59086432  0.67423084  0.81099020  1
  O2-  O417  1  0.60442955  0.93308517  0.14756024  1
  O2-  O418  1  0.55701255  0.90236311  0.47266974  1
  O2-  O419  1  0.57817642  0.92205237  0.82111004  1
  O2-  O420  1  0.86201387  0.19084775  0.14811913  1
  O2-  O421  1  0.77656025  0.15353205  0.52267564  1
  O2-  O422  1  0.83280273  0.16453897  0.81021559  1
  O2-  O423  1  0.80883560  0.40606775  0.14059276  1
  O2-  O424  1  0.81795373  0.41119895  0.49124959  1
  O2-  O425  1  0.82332757  0.40361548  0.80967422  1
  O2-  O426  1  0.82783662  0.65744171  0.13268581  1
  O2-  O427  1  0.83403855  0.66590350  0.48450260  1
  O2-  O428  1  0.81975294  0.65141498  0.81259919  1
  O2-  O429  1  0.83353160  0.92613155  0.14760087  1
  O2-  O430  1  0.82892727  0.91857570  0.47551833  1
  O2-  O431  1  0.88211305  0.92981882  0.80009088  1
  O2-  O432  1  0.15540217  0.08265722  0.18456187  1
  O2-  O433  1  0.17093187  0.08000566  0.52469872  1
  O2-  O434  1  0.14219560  0.06228160  0.85379524  1
  O2-  O435  1  0.17621910  0.33758367  0.19148883  1
  O2-  O436  1  0.17016079  0.31411731  0.51644872  1
  O2-  O437  1  0.15975114  0.32698513  0.84655857  1
  O2-  O438  1  0.16721039  0.58534273  0.18352492  1
  O2-  O439  1  0.17264945  0.57741059  0.52571132  1
  O2-  O440  1  0.16468809  0.58945779  0.84647888  1
  O2-  O441  1  0.15555928  0.82585095  0.19343018  1
  O2-  O442  1  0.17128913  0.84158243  0.52215743  1
  O2-  O443  1  0.17861617  0.83759879  0.85678332  1
  O2-  O444  1  0.44614324  0.04817860  0.21334083  1
  O2-  O445  1  0.43762722  0.06888475  0.52401579  1
  O2-  O446  1  0.40249415  0.08645470  0.86020294  1
  O2-  O447  1  0.41465640  0.34572280  0.18803922  1
  O2-  O448  1  0.42843398  0.33586302  0.52778725  1
  O2-  O449  1  0.42992922  0.34330099  0.85595919  1
  O2-  O450  1  0.39985128  0.58047412  0.19512232  1
  O2-  O451  1  0.42138336  0.56908057  0.52304112  1
  O2-  O452  1  0.42809512  0.60943603  0.84800741  1
  O2-  O453  1  0.40600486  0.82159885  0.20906121  1
  O2-  O454  1  0.41862959  0.84096373  0.52933718  1
  O2-  O455  1  0.41421124  0.84476251  0.86096716  1
  O2-  O456  1  0.69267582  0.08841128  0.14953107  1
  O2-  O457  1  0.59462300  0.07886612  0.49939659  1
  O2-  O458  1  0.69636687  0.04727796  0.88174905  1
  O2-  O459  1  0.65312422  0.33102230  0.18991782  1
  O2-  O460  1  0.65685592  0.33782300  0.52281865  1
  O2-  O461  1  0.66258315  0.34999775  0.84788411  1
  O2-  O462  1  0.67155326  0.58127846  0.18884002  1
  O2-  O463  1  0.66881313  0.58184424  0.51783108  1
  O2-  O464  1  0.66417856  0.58647064  0.84422487  1
  O2-  O465  1  0.67136857  0.84507785  0.19119539  1
  O2-  O466  1  0.65151141  0.82993223  0.51270690  1
  O2-  O467  1  0.66215120  0.83501743  0.83362892  1
  O2-  O468  1  0.91720070  0.08588198  0.19600355  1
  O2-  O469  1  0.90867300  0.07282733  0.51917273  1
  O2-  O470  1  0.91229441  0.08524451  0.85350720  1
  O2-  O471  1  0.93355608  0.37229891  0.20315526  1
  O2-  O472  1  0.88506077  0.31677018  0.53171947  1
  O2-  O473  1  0.91353456  0.32863300  0.85085426  1
  O2-  O474  1  0.93632087  0.53299297  0.20768186  1
  O2-  O475  1  0.87436960  0.55021185  0.54581550  1
  O2-  O476  1  0.89352967  0.56694377  0.86280587  1
  O2-  O477  1  0.91797936  0.83742824  0.16254412  1
  O2-  O478  1  0.91194704  0.83502488  0.51590474  1
  O2-  O479  1  0.89405735  0.81439859  0.86450029  1
  O2-  O480  1  0.16719759  0.08450568  0.30923195  1
  O2-  O481  1  0.16927511  0.08153959  0.64474951  1
  O2-  O482  1  0.16755969  0.07350538  0.96731622  1
  O2-  O483  1  0.16803153  0.32757355  0.31331014  1
  O2-  O484  1  0.16088883  0.32602045  0.64553895  1
  O2-  O485  1  0.19425592  0.37166636  0.96487414  1
  O2-  O486  1  0.18025527  0.59049214  0.30579681  1
  O2-  O487  1  0.16719797  0.58054212  0.65101971  1
  O2-  O488  1  0.14233689  0.58531352  0.96769808  1
  O2-  O489  1  0.18293200  0.84293475  0.31647270  1
  O2-  O490  1  0.17229905  0.83011739  0.64840983  1
  O2-  O491  1  0.17035602  0.84098010  0.97940993  1
  O2-  O492  1  0.43106267  0.07332659  0.32779986  1
  O2-  O493  1  0.42545238  0.07415472  0.63756454  1
  O2-  O494  1  0.40997985  0.08362719  0.98277195  1
  O2-  O495  1  0.41255279  0.32676809  0.31188345  1
  O2-  O496  1  0.41954062  0.34156495  0.65122849  1
  O2-  O497  1  0.42834867  0.34752430  0.97740925  1
  O2-  O498  1  0.41400074  0.58081053  0.31024356  1
  O2-  O499  1  0.41058159  0.58192389  0.64367618  1
  O2-  O500  1  0.42677963  0.59206029  0.97612081  1
  O2-  O501  1  0.44180276  0.83655317  0.32816184  1
  O2-  O502  1  0.43258655  0.85123095  0.64702329  1
  O2-  O503  1  0.42377602  0.83661281  0.98870085  1
  O2-  O504  1  0.64644448  0.06164129  0.30813129  1
  O2-  O505  1  0.74401615  0.12309929  0.64753052  1
  O2-  O506  1  0.66870722  0.09107411  0.99509975  1
  O2-  O507  1  0.66004631  0.34152160  0.30755269  1
  O2-  O508  1  0.66142562  0.33546535  0.63768174  1
  O2-  O509  1  0.68900265  0.37149856  0.96821332  1
  O2-  O510  1  0.66898319  0.58640919  0.31063165  1
  O2-  O511  1  0.67670512  0.57911479  0.64215513  1
  O2-  O512  1  0.67803675  0.57440138  0.98379353  1
  O2-  O513  1  0.64706344  0.83872918  0.31458074  1
  O2-  O514  1  0.65767590  0.79751199  0.64195152  1
  O2-  O515  1  0.67026068  0.83945715  1.01998463  1
  O2-  O516  1  0.90479377  0.07395735  0.31858198  1
  O2-  O517  1  0.90221135  0.07110848  0.64155408  1
  O2-  O518  1  0.90916871  0.08801554  0.97288530  1
  O2-  O519  1  0.90597767  0.32748110  0.32223921  1
  O2-  O520  1  0.91676207  0.31012884  0.64657481  1
  O2-  O521  1  0.92365713  0.33419320  0.97618163  1
  O2-  O522  1  0.92652131  0.58791710  0.31881640  1
  O2-  O523  1  0.91705124  0.57911192  0.65403509  1
  O2-  O524  1  0.89168680  0.59843721  0.98351937  1
  O2-  O525  1  0.94208107  0.85741390  0.29152789  1
  O2-  O526  1  0.91630937  0.82336224  0.64062300  1
  O2-  O527  1  0.90611297  0.84150627  0.99024932  1
  O2-  O528  1  0.08273186  0.18850331  -0.05769597  1
  O2-  O529  1  0.08007303  0.15913011  0.35873281  1
  O2-  O530  1  0.07752616  0.16203596  0.68566949  1
  O2-  O531  1  0.07843069  0.40384414  0.02674995  1
  O2-  O532  1  0.13754773  0.45240759  0.37276521  1
  O2-  O533  1  0.07273212  0.40347980  0.68328928  1
  O2-  O534  1  0.06769813  0.68029335  0.02264485  1
  O2-  O535  1  0.09221903  0.67102108  0.34287479  1
  O2-  O536  1  0.08317505  0.66665154  0.68472805  1
  O2-  O537  1  0.07942590  0.91669049  0.01809445  1
  O2-  O538  1  0.09612346  0.92177844  0.35669144  1
  O2-  O539  1  0.09159364  0.91028349  0.67889946  1
  O2-  O540  1  0.33494173  0.18042691  0.01147099  1
  O2-  O541  1  0.33777448  0.15631432  0.34425725  1
  O2-  O542  1  0.32364542  0.16996663  0.69105839  1
  O2-  O543  1  0.34884811  0.43027354  0.02531845  1
  O2-  O544  1  0.33404707  0.41610597  0.35483506  1
  O2-  O545  1  0.32603839  0.41943168  0.69014802  1
  O2-  O546  1  0.29888867  0.61496461  0.03327028  1
  O2-  O547  1  0.35165638  0.67465317  0.35561148  1
  O2-  O548  1  0.34051109  0.67947982  0.68485717  1
  O2-  O549  1  0.33263394  0.91827362  0.01994177  1
  O2-  O550  1  0.34856231  0.90956489  0.35977560  1
  O2-  O551  1  0.33811795  0.91417018  0.68885919  1
  O2-  O552  1  0.56063727  0.15554224  0.03732314  1
  O2-  O553  1  0.57183819  0.19723400  0.38502174  1
  O2-  O554  1  0.58816776  0.17400635  0.68496386  1
  O2-  O555  1  0.58954395  0.41966376  0.02176824  1
  O2-  O556  1  0.57825966  0.42443225  0.35392841  1
  O2-  O557  1  0.58458071  0.41888509  0.68509651  1
  O2-  O558  1  0.59729440  0.66522161  0.02309203  1
  O2-  O559  1  0.58407569  0.66812394  0.35293941  1
  O2-  O560  1  0.55400126  0.61305261  0.69444558  1
  O2-  O561  1  0.58031949  0.92316258  0.03127606  1
  O2-  O562  1  0.53237170  0.88808144  0.35075532  1
  O2-  O563  1  0.59928744  0.96055392  0.69337586  1
  O2-  O564  1  0.83907149  0.17650184  0.02797103  1
  O2-  O565  1  0.83207318  0.16921830  0.35894753  1
  O2-  O566  1  0.82580381  0.14935267  0.68008657  1
  O2-  O567  1  0.85440238  0.42295695  0.01884567  1
  O2-  O568  1  0.84803384  0.42851864  0.37934564  1
  O2-  O569  1  0.81389812  0.40479444  0.68471908  1
  O2-  O570  1  0.84881903  0.64159682  0.00553788  1
  O2-  O571  1  0.82426056  0.65875215  0.35505762  1
  O2-  O572  1  0.83955579  0.66468676  0.68980821  1
  O2-  O573  1  0.83686318  0.93028121  0.02234486  1
  O2-  O574  1  0.80439051  0.91928415  0.36334835  1
  O2-  O575  1  0.83024678  0.90695204  0.68317561  1
