# generated using pymatgen
data_H2O
_symmetry_space_group_name_H-M   'P 1'
_cell_length_a   17.98619602
_cell_length_b   17.98513514
_cell_length_c   21.99623091
_cell_angle_alpha   89.98772917
_cell_angle_beta   89.99688832
_cell_angle_gamma   119.99783092
_symmetry_Int_Tables_number   1
_chemical_formula_structural   H2O
_chemical_formula_sum   'H384 O192'
_cell_volume   6162.27966291
_cell_formula_units_Z   192
loop_
 _symmetry_equiv_pos_site_id
 _symmetry_equiv_pos_as_xyz
  1  'x, y, z'
loop_
 _atom_type_symbol
 _atom_type_oxidation_number
  H+  1.0
  O2-  -2.0
loop_
 _atom_site_type_symbol
 _atom_site_label
 _atom_site_symmetry_multiplicity
 _atom_site_fract_x
 _atom_site_fract_y
 _atom_site_fract_z
 _atom_site_occupancy
  H+  H0  1  0.35216382  0.18894625  0.82679650  1
  H+  H1  1  0.09517282  0.93309635  0.41397439  1
  H+  H2  1  0.14045450  0.36840617  0.50564888  1
  H+  H3  1  0.23700975  0.58640168  -0.01991877  1
  H+  H4  1  0.82011110  0.14780249  0.05442562  1
  H+  H5  1  0.15311831  0.88055440  0.32502213  1
  H+  H6  1  0.51754722  0.40247145  0.67560342  1
  H+  H7  1  0.39190990  0.36795341  0.32422703  1
  H+  H8  1  0.12663057  0.12888510  0.99865775  1
  H+  H9  1  0.90516269  0.63716725  0.46004804  1
  H+  H10  1  0.74308095  0.90159955  0.70209884  1
  H+  H11  1  0.82612020  0.90800460  0.08210055  1
  H+  H12  1  0.52636439  0.65403395  0.67937964  1
  H+  H13  1  0.93343919  0.11893302  0.51836163  1
  H+  H14  1  0.13768917  0.14385332  0.50033439  1
  H+  H15  1  0.14549084  1.02042055  0.50092715  1
  H+  H16  1  0.88359696  0.26022854  0.65465203  1
  H+  H17  1  0.71980431  0.62741855  0.68002368  1
  H+  H18  1  0.73483890  0.86681440  0.50655066  1
  H+  H19  1  0.84749704  0.21273389  0.11112889  1
  H+  H20  1  0.33364278  0.96622135  0.83085733  1
  H+  H21  1  0.88729944  0.60723035  0.85955720  1
  H+  H22  1  0.17266867  0.55621040  0.89008206  1
  H+  H23  1  0.88596088  0.34468691  -0.01515434  1
  H+  H24  1  0.38735845  0.27448641  0.66952215  1
  H+  H25  1  0.86856313  0.58652287  0.30671430  1
  H+  H26  1  0.27516158  0.38649198  0.15751728  1
  H+  H27  1  0.40117889  0.60011711  0.49322527  1
  H+  H28  1  0.61468043  0.76511280  0.32055636  1
  H+  H29  1  0.46041772  0.33552382  0.32446119  1
  H+  H30  1  0.60465742  0.71947645  0.16419390  1
  H+  H31  1  0.37047923  0.10851165  0.82434130  1
  H+  H32  1  0.71935070  0.09702788  0.97408316  1
  H+  H33  1  0.85292949  0.73502224  0.69614844  1
  H+  H34  1  0.54390284  0.15844703  0.49881666  1
  H+  H35  1  0.85887351  0.48788022  0.31039161  1
  H+  H36  1  0.97689219  0.58775178  0.99355906  1
  H+  H37  1  0.86431452  0.72102728  0.15451810  1
  H+  H38  1  0.84081617  0.67028531  0.92750347  1
  H+  H39  1  0.36714942  0.13861534  0.15676213  1
  H+  H40  1  0.40309361  0.12192231  0.50170432  1
  H+  H41  1  0.90487679  0.49675795  0.53621131  1
  H+  H42  1  0.48453184  0.62679697  0.84859739  1
  H+  H43  1  0.87445416  0.97685775  0.50070932  1
  H+  H44  1  0.37512626  0.85969665  0.83273898  1
  H+  H45  1  0.16178903  0.14429098  0.30538760  1
  H+  H46  1  0.59741123  0.93811775  0.57655152  1
  H+  H47  1  0.10748123  0.11932968  0.68621399  1
  H+  H48  1  0.02593618  0.13451069  0.13529144  1
  H+  H49  1  0.40627297  0.03534081  0.50017293  1
  H+  H50  1  0.88072939  0.27408408  0.49483507  1
  H+  H51  1  0.48237684  0.60900639  0.00122251  1
  H+  H52  1  0.90608463  0.03920188  0.08762089  1
  H+  H53  1  0.87866596  0.62186803  0.67322968  1
  H+  H54  1  0.11434192  0.22465930  0.14874340  1
  H+  H55  1  0.72292235  0.07468035  0.65812946  1
  H+  H56  1  0.31366136  0.91472796  0.76826561  1
  H+  H57  1  0.88650376  0.10399799  0.12085614  1
  H+  H58  1  0.48730579  0.42033652  0.85331206  1
  H+  H59  1  0.85397720  0.73944735  1.01466069  1
  H+  H60  1  0.64286429  0.03712708  0.51242673  1
  H+  H61  1  0.86583161  0.13110873  0.67271248  1
  H+  H62  1  1.02731613  0.17566879  0.44416206  1
  H+  H63  1  0.99161588  0.53888795  0.57576480  1
  H+  H64  1  0.10067077  0.87080355  0.83119777  1
  H+  H65  1  0.88923409  0.63292201  0.49213001  1
  H+  H66  1  0.87709730  0.85041660  0.83198607  1
  H+  H67  1  0.37934388  0.85474644  0.16447957  1
  H+  H68  1  0.64674670  0.36297502  -0.00384879  1
  H+  H69  1  0.86219178  0.72486386  0.86512803  1
  H+  H70  1  0.61755611  0.22114740  0.99624228  1
  H+  H71  1  0.22925458  0.60772417  0.17085134  1
  H+  H72  1  0.35388091  0.72638370  0.82135521  1
  H+  H73  1  0.47323140  0.60672060  0.17805180  1
  H+  H74  1  0.92049846  0.27883532  0.18281493  1
  H+  H75  1  0.12730685  0.65351763  0.33592117  1
  H+  H76  1  0.11729119  0.64333202  0.48746679  1
  H+  H77  1  0.43858675  0.07074565  0.23834318  1
  H+  H78  1  0.47816836  0.12046559  0.66061210  1
  H+  H79  1  0.11992166  0.28592777  0.91677493  1
  H+  H80  1  0.97111744  0.10997587  0.85404559  1
  H+  H81  1  0.37004249  0.22843592  0.15553441  1
  H+  H82  1  0.90789430  0.00886868  0.30044519  1
  H+  H83  1  0.02500529  0.37151258  0.00200782  1
  H+  H84  1  0.38300585  0.60798544  0.33229461  1
  H+  H85  1  0.88818806  0.25676688  0.97483083  1
  H+  H86  1  0.60866204  0.63149535  0.16911886  1
  H+  H87  1  0.86876457  0.48082546  0.82805365  1
  H+  H88  1  0.92163131  1.03291235  0.33013346  1
  H+  H89  1  0.62641376  0.52542919  0.35143461  1
  H+  H90  1  0.36411652  0.47769794  0.16271820  1
  H+  H91  1  0.36319134  0.64399148  0.82841221  1
  H+  H92  1  0.28904368  0.26412546  0.82470868  1
  H+  H93  1  0.37877218  0.49512507  0.67203474  1
  H+  H94  1  0.38385267  0.85650245  0.98721320  1
  H+  H95  1  0.39975878  0.62369619  0.65727787  1
  H+  H96  1  0.36273058  0.98157694  0.67513826  1
  H+  H97  1  0.79869321  0.78530046  0.38742258  1
  H+  H98  1  0.56962634  1.00362050  0.69091234  1
  H+  H99  1  0.13204350  0.09869578  0.84350254  1
  H+  H100  1  0.22374380  0.60169797  0.82834137  1
  H+  H101  1  0.01939609  0.38652916  0.49201688  1
  H+  H102  1  0.13931551  0.11423105  0.15980301  1
  H+  H103  1  0.37799602  0.13853299  -0.00523799  1
  H+  H104  1  0.02974015  0.88990778  0.46931037  1
  H+  H105  1  0.11228619  0.40349705  0.66883220  1
  H+  H106  1  0.61871415  0.64355162  0.83251734  1
  H+  H107  1  0.35229526  0.65465645  0.52746584  1
  H+  H108  1  0.64348462  0.11265813  0.15091910  1
  H+  H109  1  0.12550333  0.24965428  -0.02014176  1
  H+  H110  1  0.89545654  0.88080362  1.01478249  1
  H+  H111  1  0.10628381  0.35966796  -0.00285271  1
  H+  H112  1  0.20865606  0.85221422  0.84227697  1
  H+  H113  1  0.10883910  -0.02712958  0.15988818  1
  H+  H114  1  0.22407326  0.85629530  0.99232048  1
  H+  H115  1  0.10702409  0.61800430  0.15415760  1
  H+  H116  1  0.47777843  0.87021699  0.51875255  1
  H+  H117  1  0.39347485  0.27811287  -0.00668976  1
  H+  H118  1  0.88862542  0.84136138  0.63020186  1
  H+  H119  1  0.91716137  0.82888712  0.11118050  1
  H+  H120  1  0.08066101  0.51099656  0.64363529  1
  H+  H121  1  0.17552725  0.25294511  0.83438272  1
  H+  H122  1  0.08149763  0.87401874  0.67432880  1
  H+  H123  1  0.88454829  0.11439599  0.84153435  1
  H+  H124  1  0.85334339  0.95157634  0.16552263  1
  H+  H125  1  0.14177128  0.87157713  0.48518924  1
  H+  H126  1  0.87643445  0.50915049  0.16010179  1
  H+  H127  1  0.51605680  0.87651097  -0.00296420  1
  H+  H128  1  0.73018752  0.61546526  0.86599913  1
  H+  H129  1  0.28494992  0.90115094  0.48498790  1
  H+  H130  1  0.09499356  0.60802430  0.64076353  1
  H+  H131  1  0.52918062  0.34504672  0.81173484  1
  H+  H132  1  0.53088064  0.15232627  0.83078780  1
  H+  H133  1  0.36749748  0.13612621  0.66857786  1
  H+  H134  1  0.91431788  0.79013501  0.52688870  1
  H+  H135  1  0.35202445  0.67533094  0.72071002  1
  H+  H136  1  0.73374364  0.35660986  0.99164275  1
  H+  H137  1  0.71033395  0.84694850  0.17374309  1
  H+  H138  1  0.59503428  0.38420266  0.50206511  1
  H+  H139  1  0.36971439  0.96792545  0.15400134  1
  H+  H140  1  0.63696935  0.63843741  0.67412425  1
  H+  H141  1  0.86112893  0.98275287  0.84870311  1
  H+  H142  1  0.49391796  0.91174234  0.69410267  1
  H+  H143  1  0.89009888  0.27823130  0.31852613  1
  H+  H144  1  0.29928796  0.27090065  0.54946055  1
  H+  H145  1  0.79218507  0.91686264  0.01779590  1
  H+  H146  1  0.90273143  0.84588741  0.30964502  1
  H+  H147  1  0.10988398  0.47464522  0.48966645  1
  H+  H148  1  0.86856022  0.45750134  -0.00078764  1
  H+  H149  1  0.58783484  0.67967358  0.77577423  1
  H+  H150  1  0.77317337  0.37750109  0.15364800  1
  H+  H151  1  0.13568011  0.01473468  0.66647804  1
  H+  H152  1  0.60108519  0.75045995  0.69761148  1
  H+  H153  1  0.87459948  0.77219888  0.46241173  1
  H+  H154  1  0.27533474  0.37829148  0.35524267  1
  H+  H155  1  0.87396262  0.35734920  0.49906986  1
  H+  H156  1  0.36785692  0.39979615  0.67928399  1
  H+  H157  1  0.23232976  0.39140508  0.66301088  1
  H+  H158  1  0.28127906  0.12773253  0.49149963  1
  H+  H159  1  0.57483126  0.42014409  0.76392103  1
  H+  H160  1  0.51244940  0.62514380  0.34396702  1
  H+  H161  1  0.10236754  0.70885479  0.00095155  1
  H+  H162  1  0.97963793  0.86916265  1.01031864  1
  H+  H163  1  0.53852400  0.13690695  0.15251156  1
  H+  H164  1  0.63950331  0.11604890  0.82806125  1
  H+  H165  1  0.38435492  0.76732457  -0.01333607  1
  H+  H166  1  0.92872876  0.34508341  0.26334259  1
  H+  H167  1  0.36424402  0.97142041  -0.00211659  1
  H+  H168  1  0.87704606  0.60112359  0.16656405  1
  H+  H169  1  0.63442532  0.52027253  0.18365253  1
  H+  H170  1  0.37730362  0.98130734  0.33578720  1
  H+  H171  1  0.64597252  0.27640175  0.16368444  1
  H+  H172  1  0.28203446  0.88700202  0.66721000  1
  H+  H173  1  0.37984738  0.51675392  0.33201506  1
  H+  H174  1  0.63622284  0.28855081  0.53015182  1
  H+  H175  1  0.62747969  0.21038992  0.35206855  1
  H+  H176  1  0.62098725  0.47767001  1.01274613  1
  H+  H177  1  0.75257151  0.34640125  0.44749421  1
  H+  H178  1  0.64896237  0.13126011  0.51027885  1
  H+  H179  1  0.11773798  0.74784174  0.65803453  1
  H+  H180  1  0.36345039  0.74281027  0.50458778  1
  H+  H181  1  0.36557087  0.72638537  0.34285906  1
  H+  H182  1  0.41476316  0.74250828  0.66768233  1
  H+  H183  1  0.60428848  0.24438675  0.67960410  1
  H+  H184  1  0.65122028  0.37579235  0.84270277  1
  H+  H185  1  0.15169319  0.49263096  0.98026842  1
  H+  H186  1  0.38897105  0.35955490  0.16740062  1
  H+  H187  1  0.72887128  0.10804318  0.30373561  1
  H+  H188  1  0.51690419  0.88691946  0.33078825  1
  H+  H189  1  0.61469990  0.96669986  0.80934701  1
  H+  H190  1  0.11596516  0.48396521  0.81751321  1
  H+  H191  1  0.15147736  0.28543808  0.51354915  1
  H+  H192  1  0.82467838  0.88632429  0.69756519  1
  H+  H193  1  0.37883946  0.48552784  0.00967917  1
  H+  H194  1  1.01915968  0.61836339  0.15250408  1
  H+  H195  1  0.52756734  0.38632684  0.16285938  1
  H+  H196  1  1.00160483  0.24272560  0.42602406  1
  H+  H197  1  0.22905148  0.10177060  0.66358435  1
  H+  H198  1  0.39330919  0.54112542  0.84310459  1
  H+  H199  1  0.71628638  0.38089590  0.52193279  1
  H+  H200  1  0.28755063  0.26668635  0.79049601  1
  H+  H201  1  0.17580841  0.35914529  0.60325681  1
  H+  H202  1  0.74260996  0.86724262  0.85922728  1
  H+  H203  1  0.86707025  0.14820503  0.33690652  1
  H+  H204  1  0.50566873  0.37890368  0.49232024  1
  H+  H205  1  0.63028633  0.22417608  0.45740343  1
  H+  H206  1  0.64379504  0.52924076  0.84709225  1
  H+  H207  1  0.87954804  1.02220732  0.67461975  1
  H+  H208  1  0.53364334  0.38831561  1.01283863  1
  H+  H209  1  0.95479782  0.86693942  0.68403937  1
  H+  H210  1  0.92903084  0.07540063  0.58371723  1
  H+  H211  1  0.83481283  0.88289646  0.39324907  1
  H+  H212  1  0.23102910  0.61489218  0.32790783  1
  H+  H213  1  0.28357980  0.40343292  0.49616683  1
  H+  H214  1  0.12228514  0.97148704  0.00988694  1
  H+  H215  1  0.14010704  0.36205601  0.16755295  1
  H+  H216  1  0.77930753  0.39015358  0.83017165  1
  H+  H217  1  0.63696819  0.62696871  0.51616379  1
  H+  H218  1  0.96211523  0.84518523  0.82356999  1
  H+  H219  1  0.72566194  0.10183358  0.14139031  1
  H+  H220  1  0.49095882  0.11712727  0.31798808  1
  H+  H221  1  0.61720270  0.87332751  0.74062202  1
  H+  H222  1  0.24155516  0.10682900  0.98866381  1
  H+  H223  1  0.13970228  0.52912318  0.32727528  1
  H+  H224  1  0.15124614  0.78897682  0.32813250  1
  H+  H225  1  0.42353161  0.57990095  0.93982492  1
  H+  H226  1  0.39243228  0.87494609  0.50449063  1
  H+  H227  1  0.38095200  0.85805206  0.32258558  1
  H+  H228  1  0.62354570  0.61319384  0.34354266  1
  H+  H229  1  0.12337435  0.47606731  0.15424594  1
  H+  H230  1  0.47884619  0.10535322  0.98289609  1
  H+  H231  1  0.02756503  0.39734115  0.33818221  1
  H+  H232  1  0.28536642  0.13563752  0.33046473  1
  H+  H233  1  0.60382079  0.72202522  0.49225400  1
  H+  H234  1  0.14799380  0.87224490  0.17511845  1
  H+  H235  1  0.14000871  0.78147709  0.49450232  1
  H+  H236  1  0.36264434  0.72245751  0.15681118  1
  H+  H237  1  0.61129156  0.63414077  0.01488341  1
  H+  H238  1  0.39568573  0.11039535  0.32057901  1
  H+  H239  1  0.27350461  0.88690248  0.15637115  1
  H+  H240  1  0.61450658  0.12983391  -0.00557933  1
  H+  H241  1  0.77257676  0.13486457  0.82130282  1
  H+  H242  1  0.22226584  0.61755236  0.50655237  1
  H+  H243  1  0.62377935  0.23835022  0.83026005  1
  H+  H244  1  0.99753814  0.37117341  0.16662639  1
  H+  H245  1  0.36954804  0.63426241  1.00668557  1
  H+  H246  1  0.61434429  0.85454617  0.31766948  1
  H+  H247  1  0.85718310  0.37735109  0.33201310  1
  H+  H248  1  0.63590321  0.39107035  0.67258441  1
  H+  H249  1  0.86716860  0.88623902  0.49029522  1
  H+  H250  1  0.89110822  0.36382884  0.83439696  1
  H+  H251  1  0.77457044  0.63248590  0.16487230  1
  H+  H252  1  1.03152699  0.66736697  0.67923117  1
  H+  H253  1  0.21851979  0.09007124  0.83585214  1
  H+  H254  1  0.62719160  1.01119781  -0.01897247  1
  H+  H255  1  0.17496458  0.07027413  0.56582700  1
  H+  H256  1  0.39630484  0.41447208  0.85384535  1
  H+  H257  1  0.75855192  0.40443381  0.68420749  1
  H+  H258  1  0.38254984  0.49017702  0.50092697  1
  H+  H259  1  0.85738218  0.86164329  0.16071257  1
  H+  H260  1  0.63585099  0.77092271  1.00489274  1
  H+  H261  1  0.10216955  0.96140142  0.82966588  1
  H+  H262  1  0.61948226  0.89433394  0.52363481  1
  H+  H263  1  0.85684409  0.49641859  0.68727034  1
  H+  H264  1  0.64707497  0.77084171  0.85340994  1
  H+  H265  1  0.27240812  0.42075947  0.81913923  1
  H+  H266  1  0.60816531  0.96862675  0.14740329  1
  H+  H267  1  0.37546170  0.38818179  1.01435499  1
  H+  H268  1  0.02932900  0.63918596  0.49754496  1
  H+  H269  1  0.34697100  0.92792230  0.42735862  1
  H+  H270  1  0.33650974  0.44072506  0.76246570  1
  H+  H271  1  0.28343104  0.89627816  0.33849996  1
  H+  H272  1  0.83654536  0.43331415  0.43970444  1
  H+  H273  1  0.02005281  0.87994860  0.15673376  1
  H+  H274  1  0.22814360  0.11294178  0.15928815  1
  H+  H275  1  0.35998286  0.22106818  0.49127874  1
  H+  H276  1  0.05137842  0.13683266  0.52158366  1
  H+  H277  1  0.76965421  0.62022000  0.32186504  1
  H+  H278  1  0.35817000  0.35835388  0.51501840  1
  H+  H279  1  0.43858760  0.04356917  0.82618503  1
  H+  H280  1  0.52687084  0.88211554  0.80785160  1
  H+  H281  1  0.76691854  0.13974980  0.48288420  1
  H+  H282  1  0.48382914  0.02813068  0.20408230  1
  H+  H283  1  0.61993617  0.13380583  0.31024008  1
  H+  H284  1  0.72204880  0.61926175  1.00083019  1
  H+  H285  1  0.60494296  0.38451284  0.33853318  1
  H+  H286  1  0.59191742  0.42146492  0.10634704  1
  H+  H287  1  0.74762316  0.66044391  0.47671341  1
  H+  H288  1  0.18723393  0.85177551  0.23382899  1
  H+  H289  1  0.07311687  0.42115987  0.75040946  1
  H+  H290  1  0.43031924  0.58799027  0.59878390  1
  H+  H291  1  0.04300100  0.90582719  0.31858494  1
  H+  H292  1  0.67741466  0.34318219  0.90344119  1
  H+  H293  1  0.82947565  0.15862473  0.72865569  1
  H+  H294  1  0.06775454  0.90369334  0.74128881  1
  H+  H295  1  0.60322328  0.87675515  0.15246264  1
  H+  H296  1  0.66124864  0.07597734  0.88465370  1
  H+  H297  1  0.41033835  0.83106148  0.88892328  1
  H+  H298  1  0.57402546  0.90776085  0.05775734  1
  H+  H299  1  0.73937965  0.64748689  0.40563357  1
  H+  H300  1  0.08501203  0.42312420  0.39751971  1
  H+  H301  1  0.57906757  0.17873674  0.73388239  1
  H+  H302  1  0.42571654  0.35778691  0.94474095  1
  H+  H303  1  0.57225482  0.66025075  0.40462725  1
  H+  H304  1  0.64738842  0.36522613  0.17068614  1
  H+  H305  1  0.17127609  0.57746414  0.23127180  1
  H+  H306  1  0.33432920  0.91342766  0.05868617  1
  H+  H307  1  0.58870659  0.16706813  0.08801664  1
  H+  H308  1  0.01766206  0.38780910  0.81774587  1
  H+  H309  1  0.67341566  0.82618823  0.92408989  1
  H+  H310  1  1.01129685  0.37843274  0.66793058  1
  H+  H311  1  0.42505729  0.08795114  0.59823737  1
  H+  H312  1  0.58423843  0.85234062  0.67385865  1
  H+  H313  1  0.97493947  0.96407314  0.58666665  1
  H+  H314  1  0.07794277  0.64771704  0.05814041  1
  H+  H315  1  0.83344548  0.39529529  0.05772473  1
  H+  H316  1  0.34264938  0.41995999  0.40876674  1
  H+  H317  1  0.40237486  0.32996472  0.61003571  1
  H+  H318  1  0.97781910  0.60676525  0.84543024  1
  H+  H319  1  0.40498861  0.82287201  0.26252929  1
  H+  H320  1  0.60379087  0.49844520  0.67990507  1
  H+  H321  1  0.86546737  0.38120280  0.15475575  1
  H+  H322  1  0.91508232  0.58233311  0.62073555  1
  H+  H323  1  0.07267395  0.13910286  0.74874591  1
  H+  H324  1  0.82023172  0.17341215  0.38600265  1
  H+  H325  1  0.09178805  0.41171290  0.09431403  1
  H+  H326  1  0.64357747  0.31426942  0.39811209  1
  H+  H327  1  0.16046802  0.31545816  0.22254344  1
  H+  H328  1  0.97836607  0.10150040  0.67515806  1
  H+  H329  1  0.56125284  0.37092301  0.40467370  1
  H+  H330  1  0.46097029  0.83798507  0.61417118  1
  H+  H331  1  0.13534955  0.85675679  0.99799666  1
  H+  H332  1  0.91598879  0.55422349  0.93529179  1
  H+  H333  1  0.67972852  0.82424118  0.56540817  1
  H+  H334  1  0.93895564  0.84499917  0.24360397  1
  H+  H335  1  0.33377539  0.66317639  0.06228616  1
  H+  H336  1  0.33897142  0.15524195  0.39197369  1
  H+  H337  1  0.64227090  0.82029345  0.22859361  1
  H+  H338  1  0.63003579  0.85780300  0.99669646  1
  H+  H339  1  0.41747657  0.33227973  0.22802437  1
  H+  H340  1  0.65594554  0.58019083  0.94462150  1
  H+  H341  1  0.46974411  0.85684751  0.16622604  1
  H+  H342  1  0.15517177  0.82651981  0.90505855  1
  H+  H343  1  0.82142434  0.92723643  0.78825205  1
  H+  H344  1  0.82621939  0.66071498  0.05973100  1
  H+  H345  1  0.68240857  0.61702012  0.57564399  1
  H+  H346  1  0.34282180  0.42344816  0.07569729  1
  H+  H347  1  0.42159761  0.07613364  0.92199991  1
  H+  H348  1  0.10663311  0.62598814  0.83949023  1
  H+  H349  1  0.33435192  0.15235013  0.73186782  1
  H+  H350  1  0.57915800  0.66133633  0.07469058  1
  H+  H351  1  0.95407923  0.16581817  0.26025917  1
  H+  H352  1  0.17500559  0.06885780  0.93291130  1
  H+  H353  1  0.10422606  0.71442348  0.84220349  1
  H+  H354  1  0.66720478  0.35909205  0.61471851  1
  H+  H355  1  0.91339910  0.32200452  0.59650526  1
  H+  H356  1  0.67215769  0.07325067  0.60095969  1
  H+  H357  1  0.86382965  0.22314880  0.82103172  1
  H+  H358  1  0.67436024  0.07723684  0.24187925  1
  H+  H359  1  0.34921611  0.16746798  0.05561064  1
  H+  H360  1  1.00876415  0.95365090  0.57745155  1
  H+  H361  1  0.17890580  0.09817007  0.25064131  1
  H+  H362  1  0.19938484  0.92412899  0.62956732  1
  H+  H363  1  0.08987947  0.91363608  0.07087565  1
  H+  H364  1  0.89683896  0.55357813  0.24255565  1
  H+  H365  1  0.16412950  0.85392771  0.57777466  1
  H+  H366  1  0.14096864  0.57622888  0.55348233  1
  H+  H367  1  0.86127220  0.15116799  0.46370075  1
  H+  H368  1  0.82700716  0.42485734  0.74707183  1
  H+  H369  1  0.83273381  0.67532392  0.75279321  1
  H+  H370  1  0.41048252  0.57687731  0.23623194  1
  H+  H371  1  0.76525961  0.35926931  0.35902591  1
  H+  H372  1  0.36364196  0.63370782  0.15910686  1
  H+  H373  1  0.92394681  0.33147163  0.89143025  1
  H+  H374  1  0.60725749  0.97151568  0.32220844  1
  H+  H375  1  0.09327668  0.68008909  0.39381903  1
  H+  H376  1  0.91304524  0.14315110  0.24231531  1
  H+  H377  1  0.09667291  0.16215729  0.05507894  1
  H+  H378  1  0.33935813  0.67235239  0.40503128  1
  H+  H379  1  0.87954524  0.10184395  0.93914025  1
  H+  H380  1  0.66101247  0.57826480  0.24365899  1
  H+  H381  1  0.12885897  0.99851250  0.32517390  1
  H+  H382  1  0.51457629  0.62589103  0.49788314  1
  H+  H383  1  0.85577879  0.68129164  0.35556701  1
  O2-  O384  1  0.09032399  0.16487420  0.13376947  1
  O2-  O385  1  0.10434758  0.17442759  0.49798030  1
  O2-  O386  1  0.07104199  0.14305358  0.82607716  1
  O2-  O387  1  0.09187649  0.41413563  0.14013884  1
  O2-  O388  1  0.08029671  0.41252776  0.47815645  1
  O2-  O389  1  0.07745363  0.42052134  0.79829755  1
  O2-  O390  1  0.07676852  0.64467834  0.13434194  1
  O2-  O391  1  0.08532274  0.67462014  0.47754748  1
  O2-  O392  1  0.07214780  0.65317889  0.82927249  1
  O2-  O393  1  0.08377732  0.91212887  0.14674398  1
  O2-  O394  1  0.09160842  0.92544572  0.45997683  1
  O2-  O395  1  0.07150965  0.90152820  0.81288462  1
  O2-  O396  1  0.34057810  0.16843088  0.13759345  1
  O2-  O397  1  0.34107732  0.16294034  0.47521688  1
  O2-  O398  1  0.32799832  0.13197491  0.80889561  1
  O2-  O399  1  0.33644067  0.41871148  0.14328654  1
  O2-  O400  1  0.34449546  0.42455296  0.48394626  1
  O2-  O401  1  0.33253782  0.44290396  0.80899952  1
  O2-  O402  1  0.33288074  0.66179239  0.14132110  1
  O2-  O403  1  0.33180058  0.67776616  0.49549420  1
  O2-  O404  1  0.32771603  0.66461203  0.80818403  1
  O2-  O405  1  0.33326490  0.91007221  0.13636737  1
  O2-  O406  1  0.34647486  0.93096013  0.47329660  1
  O2-  O407  1  0.30937139  0.90775341  0.81417020  1
  O2-  O408  1  0.59612289  0.17128791  0.13344043  1
  O2-  O409  1  0.60790250  0.19478691  0.49863340  1
  O2-  O410  1  0.59082263  0.17945090  0.81343145  1
  O2-  O411  1  0.58972740  0.42089035  0.15178294  1
  O2-  O412  1  0.56267442  0.40227505  0.47477897  1
  O2-  O413  1  0.57224205  0.40590467  0.80924516  1
  O2-  O414  1  0.57529288  0.65683507  0.15113121  1
  O2-  O415  1  0.57757884  0.66191489  0.47855803  1
  O2-  O416  1  0.59173839  0.67853185  0.82168472  1
  O2-  O417  1  0.57304787  0.90672226  0.13564180  1
  O2-  O418  1  0.58958227  0.92706623  0.53241354  1
  O2-  O419  1  0.58909984  0.90394230  0.80510949  1
  O2-  O420  1  0.82218905  0.15140464  0.10362373  1
  O2-  O421  1  0.82354361  0.17556096  0.45965542  1
  O2-  O422  1  0.83431700  0.16240890  0.80735109  1
  O2-  O423  1  0.83447083  0.40792646  0.13643245  1
  O2-  O424  1  0.80563270  0.39391435  0.47338696  1
  O2-  O425  1  0.83798176  0.41916320  0.81080654  1
  O2-  O426  1  0.83180288  0.65571193  0.14591204  1
  O2-  O427  1  0.77970522  0.68541636  0.43679704  1
  O2-  O428  1  0.83429665  0.66454527  0.88293116  1
  O2-  O429  1  0.81771567  0.88998279  0.15678201  1
  O2-  O430  1  0.83770138  0.91916166  0.48189238  1
  O2-  O431  1  0.82976551  0.92151254  0.83266399  1
  O2-  O432  1  0.16933938  0.08403401  0.17661006  1
  O2-  O433  1  0.18018962  0.07788702  0.52065364  1
  O2-  O434  1  0.16067942  0.06429031  0.85494773  1
  O2-  O435  1  0.17033130  0.32958873  0.17893004  1
  O2-  O436  1  0.17838014  0.34778127  0.52288553  1
  O2-  O437  1  0.11515782  0.23699570  0.83803952  1
  O2-  O438  1  0.16904285  0.57216937  0.18581136  1
  O2-  O439  1  0.15838513  0.58252985  0.50952457  1
  O2-  O440  1  0.16369768  0.56490723  0.84478530  1
  O2-  O441  1  0.18762410  0.85211850  0.18865452  1
  O2-  O442  1  0.17151774  0.84391698  0.50583712  1
  O2-  O443  1  0.14892256  0.82268794  0.85921596  1
  O2-  O444  1  0.45268142  0.05830539  0.19493966  1
  O2-  O445  1  0.43641124  0.09495475  0.51712183  1
  O2-  O446  1  0.42701888  0.08316925  0.84904608  1
  O2-  O447  1  0.41805513  0.32824620  0.18171278  1
  O2-  O448  1  0.35910424  0.30725954  0.53728860  1
  O2-  O449  1  0.43938748  0.41068509  0.87979504  1
  O2-  O450  1  0.41117194  0.57617027  0.19063869  1
  O2-  O451  1  0.42765955  0.57638608  0.51959186  1
  O2-  O452  1  0.42483297  0.59710771  0.86497559  1
  O2-  O453  1  0.40967382  0.82553093  0.18234324  1
  O2-  O454  1  0.41419834  0.83850169  0.52240955  1
  O2-  O455  1  0.40664403  0.82946012  0.84381751  1
  O2-  O456  1  0.66932193  0.07660795  0.16316112  1
  O2-  O457  1  0.68145930  0.09999953  0.51795558  1
  O2-  O458  1  0.66892366  0.08362849  0.83975692  1
  O2-  O459  1  0.67990010  0.33551011  0.18021886  1
  O2-  O460  1  0.65906275  0.35101122  0.54162381  1
  O2-  O461  1  0.68131475  0.34606120  0.85724516  1
  O2-  O462  1  0.66317993  0.58107940  0.19899352  1
  O2-  O463  1  0.68262003  0.61498121  0.53085566  1
  O2-  O464  1  0.66540177  0.58687504  0.86375035  1
  O2-  O465  1  0.64747307  0.82029670  0.18195010  1
  O2-  O466  1  0.67426273  0.83485927  0.52267553  1
  O2-  O467  1  0.68052271  0.82793020  0.87559463  1
  O2-  O468  1  0.91839701  0.07237237  0.12580415  1
  O2-  O469  1  0.93972421  0.07382411  0.53821000  1
  O2-  O470  1  0.90900290  0.08493588  0.86651598  1
  O2-  O471  1  0.93659818  0.33917379  0.18427811  1
  O2-  O472  1  0.91045478  0.33303516  0.51263733  1
  O2-  O473  1  0.92399568  0.33470785  0.84542554  1
  O2-  O474  1  0.90485223  0.56683734  0.18083894  1
  O2-  O475  1  0.94772745  0.54986140  0.55582207  1
  O2-  O476  1  0.91321855  0.57002693  0.85578158  1
  O2-  O477  1  0.91260959  0.82317235  0.15561223  1
  O2-  O478  1  0.91656606  0.81936456  0.48911770  1
  O2-  O479  1  0.89810158  0.80994083  0.82396531  1
  O2-  O480  1  0.18149325  0.10365659  0.29637545  1
  O2-  O481  1  0.16966407  0.07097581  0.64583073  1
  O2-  O482  1  0.17949424  0.07181026  0.97818853  1
  O2-  O483  1  0.15682998  0.29139633  0.34657743  1
  O2-  O484  1  0.17278833  0.36568054  0.64783891  1
  O2-  O485  1  0.14107985  0.30543568  0.95821852  1
  O2-  O486  1  0.17282122  0.58907952  0.30973037  1
  O2-  O487  1  0.08165335  0.55568697  0.61605351  1
  O2-  O488  1  0.19255981  0.54110597  0.95417163  1
  O2-  O489  1  0.18516823  0.85070914  0.31367892  1
  O2-  O490  1  0.16224612  0.86252792  0.62351075  1
  O2-  O491  1  0.16294008  0.82593990  0.97889908  1
  O2-  O492  1  0.42777431  0.08053260  0.30610587  1
  O2-  O493  1  0.41801729  0.08636343  0.64321936  1
  O2-  O494  1  0.41818182  0.07652507  0.96847549  1
  O2-  O495  1  0.42222871  0.34648931  0.29847836  1
  O2-  O496  1  0.41449994  0.33526563  0.65467202  1
  O2-  O497  1  0.42262281  0.34228676  0.98895736  1
  O2-  O498  1  0.41093313  0.57646827  0.31500105  1
  O2-  O499  1  0.43073230  0.58960737  0.64436133  1
  O2-  O500  1  0.42146278  0.57429636  0.98559868  1
  O2-  O501  1  0.40639191  0.82276864  0.30787138  1
  O2-  O502  1  0.48383986  0.82745046  0.65142170  1
  O2-  O503  1  0.41495624  0.82754712  0.97077289  1
  O2-  O504  1  0.66983216  0.07582018  0.28711405  1
  O2-  O505  1  0.66673803  0.03928936  0.63754607  1
  O2-  O506  1  0.65606350  0.07087885  0.96448672  1
  O2-  O507  1  0.68246858  0.29153004  0.40428527  1
  O2-  O508  1  0.66910546  0.36216990  0.66079207  1
  O2-  O509  1  0.67234493  0.33113540  0.97627777  1
  O2-  O510  1  0.66033713  0.58374174  0.33584791  1
  O2-  O511  1  0.66260889  0.60276023  0.66050064  1
  O2-  O512  1  0.65860613  0.58070866  0.98976065  1
  O2-  O513  1  0.63839633  0.81999891  0.29863647  1
  O2-  O514  1  0.63118108  0.85443159  0.70087560  1
  O2-  O515  1  0.66619966  0.83030622  0.98725849  1
  O2-  O516  1  0.97668221  0.18134569  0.43356869  1
  O2-  O517  1  0.91949982  0.07788737  0.65477597  1
  O2-  O518  1  0.86178997  0.09578873  0.98278170  1
  O2-  O519  1  0.92173676  0.34069174  0.30828350  1
  O2-  O520  1  0.91733730  0.32138584  0.64127983  1
  O2-  O521  1  0.92056540  0.32037783  0.96650205  1
  O2-  O522  1  0.89315505  0.54904887  0.29189298  1
  O2-  O523  1  0.90890834  0.58927710  0.66523188  1
  O2-  O524  1  0.91481416  0.54975007  0.98016027  1
  O2-  O525  1  0.95106259  0.84685054  0.28720183  1
  O2-  O526  1  0.89104798  0.83732453  0.67421964  1
  O2-  O527  1  0.91596479  0.83968352  1.00606869  1
  O2-  O528  1  0.09414842  0.15787873  0.01016226  1
  O2-  O529  1  0.13645686  0.24739245  0.29780948  1
  O2-  O530  1  0.07009387  0.13957614  0.70307216  1
  O2-  O531  1  0.08435802  0.39543311  0.01807378  1
  O2-  O532  1  0.08770619  0.42977788  0.35268678  1
  O2-  O533  1  0.07080619  0.42260202  0.68380654  1
  O2-  O534  1  0.07499857  0.64786157  0.01266116  1
  O2-  O535  1  0.10135859  0.68823969  0.34947480  1
  O2-  O536  1  0.09385927  0.69056665  0.67596259  1
  O2-  O537  1  0.08768231  0.91122126  0.02510879  1
  O2-  O538  1  0.10019364  0.93841525  0.34062969  1
  O2-  O539  1  0.05868647  0.90670220  0.69557938  1
  O2-  O540  1  0.34987532  0.17126933  0.01052736  1
  O2-  O541  1  0.34255136  0.15239474  0.34732075  1
  O2-  O542  1  0.33521237  0.16337801  0.68708897  1
  O2-  O543  1  0.34753313  0.42338541  0.02831733  1
  O2-  O544  1  0.33710588  0.41620322  0.36296347  1
  O2-  O545  1  0.34317388  0.43595917  0.69187530  1
  O2-  O546  1  0.33717360  0.66397313  0.01686974  1
  O2-  O547  1  0.33849163  0.66676044  0.36045675  1
  O2-  O548  1  0.36406278  0.67853354  0.67683725  1
  O2-  O549  1  0.33367066  0.91088949  0.01312927  1
  O2-  O550  1  0.34492237  0.92133794  0.35274052  1
  O2-  O551  1  0.32361898  0.92664219  0.69628547  1
  O2-  O552  1  0.58530160  0.16067580  0.01120942  1
  O2-  O553  1  0.59153668  0.16730409  0.32058660  1
  O2-  O554  1  0.57376469  0.18275419  0.68913720  1
  O2-  O555  1  0.59430329  0.41645419  0.02683058  1
  O2-  O556  1  0.55732140  0.34407557  0.36360037  1
  O2-  O557  1  0.57691778  0.43659540  0.69318768  1
  O2-  O558  1  0.58056929  0.66507292  0.02892751  1
  O2-  O559  1  0.57347834  0.65698239  0.35855785  1
  O2-  O560  1  0.58346556  0.68749325  0.70066467  1
  O2-  O561  1  0.57716684  0.90719491  0.01219630  1
  O2-  O562  1  0.57766280  0.91608618  0.34420702  1
  O2-  O563  1  0.51537322  0.96986317  0.71340561  1
  O2-  O564  1  0.82319552  0.15079729  -0.01022036  1
  O2-  O565  1  0.82951214  0.17260376  0.34061580  1
  O2-  O566  1  0.82844786  0.15563817  0.68324711  1
  O2-  O567  1  0.83278100  0.39316659  0.01240939  1
  O2-  O568  1  0.82349599  0.40543873  0.34427284  1
  O2-  O569  1  0.82196838  0.43248880  0.69946111  1
  O2-  O570  1  0.81928846  0.67445620  0.01711085  1
  O2-  O571  1  0.83277351  0.64603514  0.31921156  1
  O2-  O572  1  0.82763363  0.67319583  0.70852162  1
  O2-  O573  1  0.84531784  0.93415008  0.04040403  1
  O2-  O574  1  0.82484070  0.83835281  0.36339407  1
  O2-  O575  1  0.80578233  0.92650652  0.71142941  1
