# generated using pymatgen
data_H2O
_symmetry_space_group_name_H-M   'P 1'
_cell_length_a   17.97866803
_cell_length_b   17.96125534
_cell_length_c   21.98802606
_cell_angle_alpha   89.94433366
_cell_angle_beta   90.03146219
_cell_angle_gamma   119.97499539
_symmetry_Int_Tables_number   1
_chemical_formula_structural   H2O
_chemical_formula_sum   'H384 O192'
_cell_volume   6150.63903005
_cell_formula_units_Z   192
loop_
 _symmetry_equiv_pos_site_id
 _symmetry_equiv_pos_as_xyz
  1  'x, y, z'
loop_
 _atom_type_symbol
 _atom_type_oxidation_number
  H+  1.0
  O2-  -2.0
loop_
 _atom_site_type_symbol
 _atom_site_label
 _atom_site_symmetry_multiplicity
 _atom_site_fract_x
 _atom_site_fract_y
 _atom_site_fract_z
 _atom_site_occupancy
  H+  H0  1  0.48630803  0.62443907  0.33898682  1
  H+  H1  1  0.65108860  0.37430522  0.79334090  1
  H+  H2  1  0.15753855  0.31999815  0.96832958  1
  H+  H3  1  0.68506022  0.84388158  0.98555165  1
  H+  H4  1  0.87622771  0.85451850  0.33720876  1
  H+  H5  1  0.25643579  0.38366991  0.16352259  1
  H+  H6  1  0.63632890  0.03120881  0.66814092  1
  H+  H7  1  0.53621839  0.16645608  0.00878183  1
  H+  H8  1  0.61667163  0.39306991  0.34153742  1
  H+  H9  1  0.52024437  0.89164936  0.66836442  1
  H+  H10  1  0.91521391  0.51832651  0.31683749  1
  H+  H11  1  0.88218400  0.35299649  0.50941569  1
  H+  H12  1  0.35125964  0.87741852  0.02733358  1
  H+  H13  1  0.09359696  0.92960816  0.44752966  1
  H+  H14  1  0.14152373  0.10808254  0.67593425  1
  H+  H15  1  0.73307382  0.38643450  1.04878845  1
  H+  H16  1  0.13363297  0.35953917  0.32680790  1
  H+  H17  1  0.72458950  0.36686332  0.17332940  1
  H+  H18  1  0.64243769  0.11859147  0.33253395  1
  H+  H19  1  0.93346499  0.57464121  0.22792573  1
  H+  H20  1  0.37347918  0.86058295  0.18263988  1
  H+  H21  1  0.86356714  0.84513670  0.50464231  1
  H+  H22  1  0.60976337  0.13451607  0.69899968  1
  H+  H23  1  0.87606834  0.04642628  0.16150559  1
  H+  H24  1  0.30409805  0.89358064  0.49610223  1
  H+  H25  1  0.38655142  0.35897740  0.98929059  1
  H+  H26  1  0.36606130  0.15842993  1.02869617  1
  H+  H27  1  0.90964641  0.54638744  1.01205077  1
  H+  H28  1  0.10991014  0.97550263  0.35083846  1
  H+  H29  1  0.39569518  0.37222602  0.49864179  1
  H+  H30  1  0.18940256  0.33289301  0.75286352  1
  H+  H31  1  0.77391874  0.14209323  0.68422455  1
  H+  H32  1  0.62389642  0.49504975  0.80954397  1
  H+  H33  1  0.03679436  0.64108187  0.01313700  1
  H+  H34  1  0.94265950  0.92617122  0.83264764  1
  H+  H35  1  0.92681054  0.85835918  0.18292756  1
  H+  H36  1  0.86716094  0.63314741  0.80649143  1
  H+  H37  1  0.03248626  0.38800455  0.66805903  1
  H+  H38  1  0.14380234  0.61055034  -0.00231854  1
  H+  H39  1  0.02622373  0.13726654  0.50619720  1
  H+  H40  1  0.14081626  0.85598704  0.83381214  1
  H+  H41  1  0.86712662  0.38116991  0.67217745  1
  H+  H42  1  0.12637901  0.64972640  0.48993724  1
  H+  H43  1  0.77873325  0.14484890  0.16586104  1
  H+  H44  1  0.89295955  0.27558097  0.66335904  1
  H+  H45  1  0.37878059  0.34664928  0.16491527  1
  H+  H46  1  0.89789191  0.28121082  0.33216493  1
  H+  H47  1  0.12788633  0.34865893  0.17817805  1
  H+  H48  1  0.08897242  0.90597770  0.74860230  1
  H+  H49  1  0.62353377  0.22920584  0.49402747  1
  H+  H50  1  0.11177154  0.84496635  1.02197713  1
  H+  H51  1  0.12085631  0.21897279  0.69226470  1
  H+  H52  1  0.65037242  0.58412001  0.26418478  1
  H+  H53  1  0.36888199  0.59711025  -0.00783917  1
  H+  H54  1  0.11840865  0.63344481  0.82809103  1
  H+  H55  1  0.54387147  0.40260085  0.82343227  1
  H+  H56  1  0.29712554  0.13005119  0.32946836  1
  H+  H57  1  0.33732805  0.66238114  0.07177809  1
  H+  H58  1  0.63928205  0.11640226  0.18007643  1
  H+  H59  1  0.30996928  0.15557942  0.81689010  1
  H+  H60  1  0.37805807  0.66174912  0.82290189  1
  H+  H61  1  0.61668179  0.40143003  0.00607160  1
  H+  H62  1  0.38771039  0.11160435  0.15995839  1
  H+  H63  1  0.60884910  0.37631799  0.66354111  1
  H+  H64  1  0.89451716  0.26994010  0.99691983  1
  H+  H65  1  0.66485509  0.61177116  0.59784737  1
  H+  H66  1  0.60098200  0.88988478  0.81426388  1
  H+  H67  1  0.49150975  0.62073184  0.50012255  1
  H+  H68  1  0.87005896  0.22995856  0.49961776  1
  H+  H69  1  0.63657747  0.78836083  0.65693728  1
  H+  H70  1  0.40705197  0.37103644  0.83711166  1
  H+  H71  1  0.59255787  0.72887979  0.77280267  1
  H+  H72  1  0.62497558  0.14013387  0.49602667  1
  H+  H73  1  0.21963765  0.85496768  1.00020610  1
  H+  H74  1  0.78185878  0.39489099  0.34232701  1
  H+  H75  1  0.63503210  0.26784572  0.66885133  1
  H+  H76  1  0.37806428  0.64692593  0.16393183  1
  H+  H77  1  0.86259775  0.43072997  0.85288768  1
  H+  H78  1  0.85549157  0.75542515  0.67124955  1
  H+  H79  1  0.18981391  0.85499077  0.27772693  1
  H+  H80  1  0.21827340  0.09544336  0.15675434  1
  H+  H81  1  0.38284936  0.73854959  0.49070005  1
  H+  H82  1  0.13307986  -0.01066161  0.51084937  1
  H+  H83  1  0.12265751  0.48244364  0.34178835  1
  H+  H84  1  0.79830766  0.32479713  0.85796390  1
  H+  H85  1  0.62961587  0.64649633  0.66373342  1
  H+  H86  1  0.89366984  0.88467755  0.65393354  1
  H+  H87  1  0.87140912  0.15085886  0.16610712  1
  H+  H88  1  0.48288589  0.36353753  0.32293453  1
  H+  H89  1  0.40545791  0.10088677  0.32459886  1
  H+  H90  1  0.49818278  0.62063615  0.99897635  1
  H+  H91  1  0.83621543  -0.03846043  0.32906474  1
  H+  H92  1  0.48211849  0.36509947  0.98794396  1
  H+  H93  1  0.97834618  0.57510506  0.84891157  1
  H+  H94  1  0.62251702  0.71064909  0.12726454  1
  H+  H95  1  0.63678567  0.27631068  0.17613786  1
  H+  H96  1  0.04846599  0.00581558  0.90311759  1
  H+  H97  1  0.38759965  0.77491713  0.66200131  1
  H+  H98  1  0.22661115  0.86244606  0.65834863  1
  H+  H99  1  0.13406662  0.73734451  0.33453210  1
  H+  H100  1  0.12415797  0.78144431  0.17909499  1
  H+  H101  1  0.38287467  0.65006600  0.48233596  1
  H+  H102  1  0.63690508  1.03624850  -0.00757124  1
  H+  H103  1  0.83735732  -0.04569304  0.83467099  1
  H+  H104  1  0.23132218  0.61782939  0.17285459  1
  H+  H105  1  0.87234242  0.43421180  0.08288029  1
  H+  H106  1  0.34621019  0.96304357  0.03409367  1
  H+  H107  1  1.03192667  0.38468042  1.01123001  1
  H+  H108  1  0.14519767  0.97343515  0.79936792  1
  H+  H109  1  0.87488515  0.11138652  0.51323552  1
  H+  H110  1  0.10844701  0.40800617  0.49299821  1
  H+  H111  1  0.62139280  0.23518864  0.78403515  1
  H+  H112  1  0.36798238  0.48155410  0.33495819  1
  H+  H113  1  0.84365857  0.59233912  0.78836139  1
  H+  H114  1  0.14057226  0.53100453  0.17747628  1
  H+  H115  1  0.36088388  0.88615074  0.67362635  1
  H+  H116  1  1.00679609  0.60523379  0.31161922  1
  H+  H117  1  0.59658614  0.47857214  -0.00681141  1
  H+  H118  1  0.83416133  0.41226168  0.43922824  1
  H+  H119  1  0.23083492  0.61182620  0.65437373  1
  H+  H120  1  0.09349176  0.10532603  0.89700501  1
  H+  H121  1  0.13839195  0.52480936  0.65793632  1
  H+  H122  1  0.60870542  0.72458247  0.49317932  1
  H+  H123  1  -0.01452647  0.37249971  0.32986226  1
  H+  H124  1  0.37421238  0.48721381  0.48853782  1
  H+  H125  1  0.13947495  0.36413104  1.02315851  1
  H+  H126  1  0.77115245  0.90101598  0.66510210  1
  H+  H127  1  0.89671956  0.51448257  0.51615026  1
  H+  H128  1  0.12712028  0.08601004  0.16990058  1
  H+  H129  1  0.66197178  0.81397032  0.19088512  1
  H+  H130  1  0.63821420  0.36457825  0.50981282  1
  H+  H131  1  0.86013631  0.13664585  0.33922402  1
  H+  H132  1  0.89121682  0.22432197  0.83167368  1
  H+  H133  1  0.99869926  0.83671088  0.20153902  1
  H+  H134  1  0.64175959  0.54103735  0.51875377  1
  H+  H135  1  0.77103637  0.37909020  0.49720048  1
  H+  H136  1  0.91002658  0.52802398  0.66818789  1
  H+  H137  1  0.59036196  0.88092054  0.00142361  1
  H+  H138  1  0.61828336  -0.00590874  0.34292021  1
  H+  H139  1  0.34124310  0.42548326  0.43032803  1
  H+  H140  1  0.11970708  0.47722067  0.01162022  1
  H+  H141  1  0.36753934  0.63808136  0.66839477  1
  H+  H142  1  0.16340546  0.82913068  0.89779460  1
  H+  H143  1  0.49787753  0.62357692  0.16187082  1
  H+  H144  1  0.84729266  0.74816354  0.83701151  1
  H+  H145  1  0.53366423  0.39885507  0.49618535  1
  H+  H146  1  0.62897162  0.24619770  1.02180494  1
  H+  H147  1  0.36234889  0.72094126  0.01275267  1
  H+  H148  1  0.86764885  0.38913928  0.34455866  1
  H+  H149  1  0.49487269  0.88837122  0.81665946  1
  H+  H150  1  0.78283885  0.60702723  -0.00858302  1
  H+  H151  1  0.86424583  0.14259486  0.68332006  1
  H+  H152  1  0.39880590  0.15566601  0.82016553  1
  H+  H153  1  0.77942644  0.14634076  0.34748254  1
  H+  H154  1  0.11559798  0.97137514  0.66917318  1
  H+  H155  1  0.56598979  0.74360074  0.19559327  1
  H+  H156  1  0.36843019  0.39266963  0.33301164  1
  H+  H157  1  0.10925835  0.71642438  0.82863652  1
  H+  H158  1  0.14597415  1.00927705  0.03375697  1
  H+  H159  1  0.76956901  0.18910117  0.85951083  1
  H+  H160  1  0.96150019  0.91362282  0.99432173  1
  H+  H161  1  0.36842884  0.23162793  0.65926789  1
  H+  H162  1  0.38996958  0.67243867  0.33822215  1
  H+  H163  1  0.87303034  0.09719739  0.85134160  1
  H+  H164  1  0.23350987  0.11309666  0.66770471  1
  H+  H165  1  0.38622899  0.11213979  0.64828357  1
  H+  H166  1  0.39095076  0.47798391  0.81606512  1
  H+  H167  1  0.22027714  0.35759382  0.32539083  1
  H+  H168  1  0.10598592  0.57283913  0.55749076  1
  H+  H169  1  0.88769825  0.28262319  0.17883600  1
  H+  H170  1  0.86095517  0.38903700  0.16836319  1
  H+  H171  1  0.61544386  0.61989122  0.80470159  1
  H+  H172  1  0.37690958  0.75041651  0.81765948  1
  H+  H173  1  0.59713817  0.75663040  -0.01464177  1
  H+  H174  1  0.28359177  0.90047284  0.83082836  1
  H+  H175  1  0.10518411  0.20405273  0.16957546  1
  H+  H176  1  0.19221196  0.09950191  0.82646462  1
  H+  H177  1  0.02622978  0.64179056  0.16139237  1
  H+  H178  1  0.22926957  0.38053396  0.49796271  1
  H+  H179  1  0.63498879  0.52317868  0.16918749  1
  H+  H180  1  0.48876723  0.11820615  0.50216722  1
  H+  H181  1  0.86372459  0.48017020  0.16327969  1
  H+  H182  1  0.93516526  0.97549305  0.13642549  1
  H+  H183  1  0.09489379  0.21873611  1.02968307  1
  H+  H184  1  0.82597000  0.87530341  -0.00385394  1
  H+  H185  1  0.91640707  0.35281282  0.83899245  1
  H+  H186  1  0.95997736  0.09580104  0.85239074  1
  H+  H187  1  0.61253562  0.89548673  0.66537012  1
  H+  H188  1  0.49692021  0.86429859  0.52207583  1
  H+  H189  1  0.47901553  0.35800620  0.64801472  1
  H+  H190  1  0.41180043  0.28261331  0.84015558  1
  H+  H191  1  0.83616950  0.17149960  0.07374353  1
  H+  H192  1  0.67005402  0.33988655  0.27010796  1
  H+  H193  1  0.13766626  0.75993579  0.99785631  1
  H+  H194  1  0.52028786  0.90219382  0.34510642  1
  H+  H195  1  0.10149400  0.21835141  0.83218759  1
  H+  H196  1  0.75241053  0.89153846  0.48648704  1
  H+  H197  1  0.38248861  1.02217260  0.17290705  1
  H+  H198  1  0.24224532  0.63034485  0.84129331  1
  H+  H199  1  0.13314114  0.85333801  0.65474306  1
  H+  H200  1  0.16385783  0.07726205  0.58009315  1
  H+  H201  1  -0.00416108  0.57689146  0.52138906  1
  H+  H202  1  1.01961540  0.90610457  0.83333447  1
  H+  H203  1  0.64027139  0.12517323  0.00506903  1
  H+  H204  1  0.53833487  0.13752317  0.33956732  1
  H+  H205  1  0.50833683  0.89507813  0.15937033  1
  H+  H206  1  0.64519127  0.28042859  0.32908760  1
  H+  H207  1  0.07981559  0.48597916  0.49448146  1
  H+  H208  1  0.26106575  0.85995775  0.32253991  1
  H+  H209  1  0.97550459  0.36152711  0.50531610  1
  H+  H210  1  0.38963238  0.98328238  0.49483530  1
  H+  H211  1  0.14536037  0.89362352  0.49920720  1
  H+  H212  1  0.02431883  0.39316165  0.17033876  1
  H+  H213  1  0.63664960  0.62861405  0.51002861  1
  H+  H214  1  0.88951548  0.60986891  0.17728352  1
  H+  H215  1  0.39090618  0.83823724  0.95516873  1
  H+  H216  1  0.37499764  0.90663066  0.82567325  1
  H+  H217  1  0.16739633  0.78776320  0.49453841  1
  H+  H218  1  0.35467238  0.21697618  0.13093772  1
  H+  H219  1  0.41550621  0.83883069  0.23790829  1
  H+  H220  1  0.73228847  0.36004679  0.80070384  1
  H+  H221  1  0.80838818  0.85266947  0.81870240  1
  H+  H222  1  0.71000700  0.86474263  0.33341951  1
  H+  H223  1  0.73589179  0.11569490  0.51532204  1
  H+  H224  1  0.00808043  0.80679550  0.05240423  1
  H+  H225  1  0.39801795  0.53102501  0.65284639  1
  H+  H226  1  0.69364316  0.85203570  0.83078237  1
  H+  H227  1  0.12932131  0.69936193  0.42733333  1
  H+  H228  1  0.52525129  0.13732449  0.16495894  1
  H+  H229  1  0.40675935  0.06834923  0.97423584  1
  H+  H230  1  0.73017170  0.37536720  0.97857293  1
  H+  H231  1  0.00948645  0.90392417  0.36178748  1
  H+  H232  1  0.58853298  0.88391937  0.16064507  1
  H+  H233  1  0.61160041  0.89347724  0.34547971  1
  H+  H234  1  0.79756092  0.63381354  0.51171836  1
  H+  H235  1  0.02110751  0.88694840  0.66363471  1
  H+  H236  1  0.30323882  0.38976451  0.80382737  1
  H+  H237  1  1.00963651  0.12275474  0.17167603  1
  H+  H238  1  0.88124435  0.11978482  0.00261126  1
  H+  H239  1  0.14110617  0.73769801  0.67553924  1
  H+  H240  1  0.60962515  0.47857605  0.33811802  1
  H+  H241  1  0.46984531  0.86965060  1.00364647  1
  H+  H242  1  0.62871217  0.61303731  0.32864613  1
  H+  H243  1  0.15945754  0.10565481  0.32131241  1
  H+  H244  1  0.59776324  0.60333413  0.97821235  1
  H+  H245  1  0.14629323  0.63968804  0.67547323  1
  H+  H246  1  0.40805289  0.54328651  0.18389107  1
  H+  H247  1  0.84815377  0.91212330  0.16580409  1
  H+  H248  1  0.36654515  0.72982076  0.16399295  1
  H+  H249  1  0.18862295  0.10005970  0.79213274  1
  H+  H250  1  0.17278725  0.38008386  0.80602372  1
  H+  H251  1  0.97954503  0.12124740  1.00894154  1
  H+  H252  1  0.60645983  0.38221764  0.15725746  1
  H+  H253  1  0.02528729  0.10334150  0.34891122  1
  H+  H254  1  0.65440294  0.02319646  0.52302038  1
  H+  H255  1  0.37759728  0.38909224  0.65489428  1
  H+  H256  1  0.85077305  -0.03186467  0.48103675  1
  H+  H257  1  0.89753546  0.76609133  0.02169763  1
  H+  H258  1  0.14940362  0.36226241  0.67071810  1
  H+  H259  1  0.24820952  0.62915136  0.32810653  1
  H+  H260  1  0.63515330  0.02627579  0.17652263  1
  H+  H261  1  0.48177423  0.62518552  0.65982617  1
  H+  H262  1  0.86474904  0.71563505  0.18166802  1
  H+  H263  1  0.79879441  0.63661186  0.96398365  1
  H+  H264  1  0.13411167  0.64871526  0.33751431  1
  H+  H265  1  0.36050442  0.17915535  0.42474551  1
  H+  H266  1  0.24064318  0.36341377  0.66842234  1
  H+  H267  1  0.89032453  0.03465240  0.66784928  1
  H+  H268  1  0.68444525  0.60260160  0.96316751  1
  H+  H269  1  0.36984442  0.50725956  -0.01049023  1
  H+  H270  1  0.77277147  0.62717396  0.30729849  1
  H+  H271  1  0.77409484  0.14090604  1.01445277  1
  H+  H272  1  0.49718007  0.12669414  0.82170248  1
  H+  H273  1  0.13761074  0.49051671  0.82283408  1
  H+  H274  1  0.38309835  0.22079635  0.32861987  1
  H+  H275  1  0.27211132  0.37050581  0.01584167  1
  H+  H276  1  0.38211708  0.02190822  0.64952873  1
  H+  H277  1  0.32798167  0.53815267  0.84330208  1
  H+  H278  1  0.96295347  0.47538069  0.05180710  1
  H+  H279  1  0.91791705  0.64051556  0.00827077  1
  H+  H280  1  0.39610255  0.78709722  0.33522628  1
  H+  H281  1  0.33405500  0.92351249  0.73050192  1
  H+  H282  1  0.74651121  0.69698483  0.82548854  1
  H+  H283  1  0.14169006  0.29388784  0.50155201  1
  H+  H284  1  0.05499663  0.39583836  0.82531602  1
  H+  H285  1  0.23114733  0.60846189  0.99849571  1
  H+  H286  1  0.13291317  0.10597968  0.52030270  1
  H+  H287  1  0.05808163  0.14758457  1.08266586  1
  H+  H288  1  0.16035699  0.32199286  0.23749080  1
  H+  H289  1  0.60861986  0.72420098  0.35626103  1
  H+  H290  1  0.09517540  0.42441592  0.72605347  1
  H+  H291  1  0.58298251  0.92836824  0.75354616  1
  H+  H292  1  0.84008020  0.16806336  0.44004155  1
  H+  H293  1  0.58093350  0.41587886  0.71686282  1
  H+  H294  1  0.58398135  0.66317954  0.41763068  1
  H+  H295  1  0.93164840  0.86936786  0.93152657  1
  H+  H296  1  0.66214357  0.84802057  0.59477755  1
  H+  H297  1  0.08386125  0.41989327  0.11115647  1
  H+  H298  1  0.57660245  0.41432938  0.09810159  1
  H+  H299  1  0.07973477  0.14938026  0.44693483  1
  H+  H300  1  0.62674319  0.81365484  0.88518196  1
  H+  H301  1  0.84298126  0.02867719  0.55428154  1
  H+  H302  1  0.88493014  0.07174196  0.24672695  1
  H+  H303  1  0.79580652  0.88693313  0.05964844  1
  H+  H304  1  0.36014393  0.69791510  0.40195760  1
  H+  H305  1  0.42024241  0.83695249  0.60409735  1
  H+  H306  1  0.72842048  0.65306537  0.66297432  1
  H+  H307  1  0.25275120  0.11277857  1.02989700  1
  H+  H308  1  0.40936721  -0.04429082  0.32593355  1
  H+  H309  1  0.58797985  0.26102232  0.89965277  1
  H+  H310  1  0.09676717  0.67171011  0.07319491  1
  H+  H311  1  0.40198190  0.28481025  0.49450490  1
  H+  H312  1  0.14837581  0.06393327  0.97348486  1
  H+  H313  1  0.71631005  0.18139070  0.91792157  1
  H+  H314  1  0.09997072  0.29265264  0.90171069  1
  H+  H315  1  0.44861987  0.85218436  0.87981084  1
  H+  H316  1  0.94891721  0.33160183  0.89949417  1
  H+  H317  1  0.42544753  0.59341542  0.55708144  1
  H+  H318  1  0.86279428  0.70246675  0.32290696  1
  H+  H319  1  0.90653803  0.36414055  0.99446951  1
  H+  H320  1  0.63138779  0.82543380  0.28352516  1
  H+  H321  1  0.59721706  0.17113386  0.40041918  1
  H+  H322  1  0.26164365  0.89050739  0.17796764  1
  H+  H323  1  0.42511966  0.33809613  0.91950819  1
  H+  H324  1  0.08190385  0.42473154  0.40124419  1
  H+  H325  1  0.63063980  0.60853566  0.15875428  1
  H+  H326  1  0.93079323  0.10279377  0.61421538  1
  H+  H327  1  0.38543803  0.15263682  0.48638400  1
  H+  H328  1  0.36417082  0.42414400  0.71748329  1
  H+  H329  1  0.43655263  0.08020410  0.26410550  1
  H+  H330  1  0.58781188  0.17097887  0.10818720  1
  H+  H331  1  0.18633982  0.59448133  0.26998441  1
  H+  H332  1  0.46792436  0.34880872  0.15972345  1
  H+  H333  1  0.18111647  0.58997170  0.90053661  1
  H+  H334  1  0.91864554  0.34119251  0.23927479  1
  H+  H335  1  0.95142549  0.58641490  0.61260130  1
  H+  H336  1  0.63020516  0.59446638  0.87293246  1
  H+  H337  1  0.41200615  0.87473693  0.51200837  1
  H+  H338  1  0.91402387  0.84485945  0.59394875  1
  H+  H339  1  0.35674250  0.18234347  0.72213178  1
  H+  H340  1  0.18010626  0.83927910  0.55965648  1
  H+  H341  1  0.09362822  0.86855658  0.09605374  1
  H+  H342  1  0.81123756  0.90853172  0.39324301  1
  H+  H343  1  0.83566432  0.40089622  0.73350458  1
  H+  H344  1  0.34099235  0.40964811  0.06676259  1
  H+  H345  1  0.83725292  0.16442536  0.77659907  1
  H+  H346  1  0.07260120  0.14875602  0.78225891  1
  H+  H347  1  0.92092561  0.32991461  0.60076900  1
  H+  H348  1  0.77443604  0.63800558  0.16000536  1
  H+  H349  1  0.67021253  0.09862703  0.61481379  1
  H+  H350  1  0.93022183  0.56203060  0.91157417  1
  H+  H351  1  0.79472267  0.03191823  0.28295164  1
  H+  H352  1  0.39611286  0.57054920  0.89518024  1
  H+  H353  1  0.80914095  0.71916323  0.73444241  1
  H+  H354  1  0.91134221  0.08244807  0.94208029  1
  H+  H355  1  0.66833574  0.08352422  0.27243213  1
  H+  H356  1  0.05635575  0.04339042  0.38008208  1
  H+  H357  1  0.13711293  0.94346247  0.17899839  1
  H+  H358  1  0.10836468  0.67309943  0.73970826  1
  H+  H359  1  0.40573284  0.04326050  0.83668338  1
  H+  H360  1  0.61071568  0.89869819  0.45894157  1
  H+  H361  1  0.18149610  0.07386143  0.25999708  1
  H+  H362  1  0.72561493  0.35302624  0.66342897  1
  H+  H363  1  0.66402482  0.32704228  0.56775679  1
  H+  H364  1  0.88837594  0.63894114  0.51068343  1
  H+  H365  1  0.02891938  0.13459550  0.68695733  1
  H+  H366  1  0.42010336  0.33249358  0.58725352  1
  H+  H367  1  0.44319931  0.13668694  0.92512348  1
  H+  H368  1  0.31447762  0.90398511  0.11779835  1
  H+  H369  1  0.42299766  0.08631349  0.55876200  1
  H+  H370  1  0.57178338  0.91928748  0.06277011  1
  H+  H371  1  0.11926232  0.64996898  0.16677243  1
  H+  H372  1  0.63130432  0.30054456  0.90293829  1
  H+  H373  1  0.43910430  0.60774294  0.27431826  1
  H+  H374  1  0.92563985  0.83205986  0.28753088  1
  H+  H375  1  0.42445339  0.32927308  0.26260802  1
  H+  H376  1  0.33656590  0.66960972  0.72702081  1
  H+  H377  1  0.14733805  0.30992415  0.89573364  1
  H+  H378  1  0.29679871  0.47031906  0.12832863  1
  H+  H379  1  0.88391782  0.71303482  0.08607877  1
  H+  H380  1  0.82223912  0.92281345  0.72764994  1
  H+  H381  1  0.88704809  0.77038212  0.51292655  1
  H+  H382  1  0.56385490  0.64775721  0.05838197  1
  H+  H383  1  0.59594083  0.43031723  0.43976538  1
  O2-  O384  1  0.07122774  0.14292154  0.15612890  1
  O2-  O385  1  0.08507312  0.16476417  0.49082467  1
  O2-  O386  1  0.06727673  0.15560660  0.82721923  1
  O2-  O387  1  0.08551723  0.42067625  0.15634918  1
  O2-  O388  1  0.06715233  0.42474379  0.47695906  1
  O2-  O389  1  0.11192819  0.43171802  0.80506816  1
  O2-  O390  1  0.08891075  0.67946432  0.14970073  1
  O2-  O391  1  0.15330898  0.71100664  0.46888306  1
  O2-  O392  1  0.08252614  0.65720487  0.81171565  1
  O2-  O393  1  0.10499649  0.88087621  0.16775020  1
  O2-  O394  1  0.11000493  0.92757483  0.49095919  1
  O2-  O395  1  0.10043220  0.91317369  0.79524748  1
  O2-  O396  1  0.32604200  0.15534462  0.11414682  1
  O2-  O397  1  0.36230086  0.18825930  0.46911782  1
  O2-  O398  1  0.37076472  0.19028618  0.80634717  1
  O2-  O399  1  0.31213392  0.42832661  0.14283498  1
  O2-  O400  1  0.34211323  0.42521110  0.47551487  1
  O2-  O401  1  0.36834472  0.41855814  0.80068055  1
  O2-  O402  1  0.34148527  0.67012443  0.14765783  1
  O2-  O403  1  0.35731119  0.68468989  0.46641666  1
  O2-  O404  1  0.34365944  0.68717327  0.80815812  1
  O2-  O405  1  0.32133143  0.91384959  0.16246340  1
  O2-  O406  1  0.36558035  0.92085848  0.48535479  1
  O2-  O407  1  0.34264276  0.93676998  0.81476262  1
  O2-  O408  1  0.58747208  0.16900829  0.15350215  1
  O2-  O409  1  0.59715670  0.16970374  0.47627297  1
  O2-  O410  1  0.58818286  0.16956077  0.77873307  1
  O2-  O411  1  0.57195676  0.40892901  0.14287895  1
  O2-  O412  1  0.59634925  0.42937225  0.48492117  1
  O2-  O413  1  0.59827364  0.43289516  0.80062045  1
  O2-  O414  1  0.57725623  0.65071417  0.12571149  1
  O2-  O415  1  0.58551242  0.66473060  0.48047163  1
  O2-  O416  1  0.57514512  0.67172596  0.75569288  1
  O2-  O417  1  0.56864736  0.92155210  0.14319023  1
  O2-  O418  1  0.61639994  0.90669578  0.50310235  1
  O2-  O419  1  0.57918972  0.92808714  0.79945089  1
  O2-  O420  1  0.83809250  0.17897315  0.14948437  1
  O2-  O421  1  0.83829044  0.16695046  0.48541525  1
  O2-  O422  1  0.84447272  0.16473741  0.82194863  1
  O2-  O423  1  0.83174086  0.41813852  0.14800611  1
  O2-  O424  1  0.83227846  0.40551097  0.48440376  1
  O2-  O425  1  0.83266045  0.37470174  0.83035284  1
  O2-  O426  1  0.83757669  0.66923208  0.15075268  1
  O2-  O427  1  0.85686999  0.66820662  0.49709934  1
  O2-  O428  1  0.80135834  0.75219350  0.81654864  1
  O2-  O429  1  0.88978143  0.91511522  0.13598650  1
  O2-  O430  1  0.81091346  0.90930912  0.46698576  1
  O2-  O431  1  0.80428184  0.90428634  0.80745048  1
  O2-  O432  1  0.16338758  0.05903114  0.17796440  1
  O2-  O433  1  0.15978975  0.07251885  0.53496003  1
  O2-  O434  1  0.08379074  0.05957603  0.92621425  1
  O2-  O435  1  0.15983314  0.31919236  0.19075646  1
  O2-  O436  1  0.16841285  0.35550031  0.51074209  1
  O2-  O437  1  0.19860625  0.34303330  0.79802550  1
  O2-  O438  1  0.17192818  0.59319573  0.18900352  1
  O2-  O439  1  0.08259030  0.56380426  0.51634591  1
  O2-  O440  1  0.18161679  0.59307346  0.85524254  1
  O2-  O441  1  0.15409958  0.84330027  0.19460282  1
  O2-  O442  1  0.18707605  0.84988221  0.51523209  1
  O2-  O443  1  0.17010849  0.82736778  0.85334881  1
  O2-  O444  1  0.41784230  0.08545977  0.18043378  1
  O2-  O445  1  0.42681151  0.08793343  0.51273794  1
  O2-  O446  1  0.44336261  0.10570852  0.84680901  1
  O2-  O447  1  0.40524878  0.31110559  0.17072383  1
  O2-  O448  1  0.42847538  0.34421733  0.51356504  1
  O2-  O449  1  0.43587734  0.34171155  0.85926892  1
  O2-  O450  1  0.44242910  0.60596691  0.18829961  1
  O2-  O451  1  0.42678615  0.59146998  0.51210083  1
  O2-  O452  1  0.38996567  0.56977705  0.84967275  1
  O2-  O453  1  0.40995313  0.83462886  0.19265061  1
  O2-  O454  1  0.43518581  0.83781479  0.53084570  1
  O2-  O455  1  0.43095936  0.85440509  0.83829629  1
  O2-  O456  1  0.66871890  0.08474544  0.19466720  1
  O2-  O457  1  0.67590511  0.08462068  0.53170842  1
  O2-  O458  1  0.74424891  0.21843757  0.88268058  1
  O2-  O459  1  0.66369912  0.33837280  0.18745967  1
  O2-  O460  1  0.66511387  0.32964757  0.52231393  1
  O2-  O461  1  0.67412560  0.33585817  0.78344622  1
  O2-  O462  1  0.66447529  0.58480415  0.18020235  1
  O2-  O463  1  0.66913563  0.60157288  0.53258870  1
  O2-  O464  1  0.65144454  0.60444644  0.83036278  1
  O2-  O465  1  0.60654516  0.80411644  0.20549540  1
  O2-  O466  1  0.66067217  0.85766621  0.52051250  1
  O2-  O467  1  0.63139730  0.81838712  0.84009937  1
  O2-  O468  1  0.91461900  0.09399954  0.18741135  1
  O2-  O469  1  0.89384780  0.07134348  0.53242865  1
  O2-  O470  1  0.90030804  0.06434500  0.86922679  1
  O2-  O471  1  0.91722868  0.34350994  0.19336917  1
  O2-  O472  1  0.91510482  0.32435586  0.52351720  1
  O2-  O473  1  0.95486793  0.33157404  0.85449754  1
  O2-  O474  1  0.92320460  0.58007455  0.18169542  1
  O2-  O475  1  0.93874873  0.57389109  0.52915358  1
  O2-  O476  1  0.93167444  0.53194082  0.87470112  1
  O2-  O477  1  0.93898789  0.82183148  0.21004343  1
  O2-  O478  1  0.90381882  0.83102043  0.52457910  1
  O2-  O479  1  0.97644290  0.91156920  0.85988215  1
  O2-  O480  1  0.18977349  0.07704760  0.30470167  1
  O2-  O481  1  0.17039181  0.07786647  0.65815493  1
  O2-  O482  1  0.18491424  0.05440742  1.00598947  1
  O2-  O483  1  0.16072204  0.32754293  0.30965730  1
  O2-  O484  1  0.17778691  0.32734781  0.67759713  1
  O2-  O485  1  0.16491668  0.32627845  1.01271981  1
  O2-  O486  1  0.18766743  0.59277167  0.31515742  1
  O2-  O487  1  0.16819344  0.58682106  0.64508710  1
  O2-  O488  1  0.17160575  0.57857905  0.98119465  1
  O2-  O489  1  0.20084761  0.84597088  0.32015036  1
  O2-  O490  1  0.16657306  0.82520255  0.64241874  1
  O2-  O491  1  0.15920130  0.82242418  0.98475193  1
  O2-  O492  1  0.43809631  0.07292987  0.30852702  1
  O2-  O493  1  0.41343409  0.08020103  0.63183068  1
  O2-  O494  1  0.43279537  0.13046362  0.97016839  1
  O2-  O495  1  0.42199048  0.33006662  0.30725007  1
  O2-  O496  1  0.41694054  0.32950356  0.63324780  1
  O2-  O497  1  0.42094317  0.33373840  0.97024317  1
  O2-  O498  1  0.42808844  0.60310460  0.31853514  1
  O2-  O499  1  0.42231379  0.59279745  0.64178132  1
  O2-  O500  1  0.39535961  0.56598647  0.97188417  1
  O2-  O501  1  0.42919090  0.85565556  0.31686655  1
  O2-  O502  1  0.41640086  0.83696467  0.65006357  1
  O2-  O503  1  0.40356838  0.83481452  0.99781578  1
  O2-  O504  1  0.66927755  0.08281070  0.31821258  1
  O2-  O505  1  0.66845841  0.09491517  0.65994731  1
  O2-  O506  1  0.67346988  0.09931263  0.98806664  1
  O2-  O507  1  0.67310776  0.34139552  0.31525519  1
  O2-  O508  1  0.66634595  0.32234605  0.64592956  1
  O2-  O509  1  0.69360287  0.36147688  1.01444916  1
  O2-  O510  1  0.65241689  0.57900962  0.30898938  1
  O2-  O511  1  0.66598660  0.61926475  0.64594198  1
  O2-  O512  1  0.62252316  0.56985041  0.95546260  1
  O2-  O513  1  0.64525230  0.84038419  0.32707324  1
  O2-  O514  1  0.66825948  0.84881255  0.64109369  1
  O2-  O515  1  0.62470567  0.81736324  0.97012690  1
  O2-  O516  1  0.85522430  0.05364139  0.29225727  1
  O2-  O517  1  0.92733378  0.09826004  0.65905031  1
  O2-  O518  1  0.91488814  0.09061826  0.98827179  1
  O2-  O519  1  0.92400758  0.34014626  0.31498050  1
  O2-  O520  1  0.92550750  0.33490161  0.64640817  1
  O2-  O521  1  0.93143582  0.32923848  0.97987931  1
  O2-  O522  1  0.95984426  0.55737400  0.28786006  1
  O2-  O523  1  0.95686794  0.58563454  0.65745803  1
  O2-  O524  1  0.93783786  0.60282676  0.99076567  1
  O2-  O525  1  0.91952755  0.83618356  0.33216866  1
  O2-  O526  1  0.92195030  0.85212559  0.64055358  1
  O2-  O527  1  0.91613786  0.86144662  0.97544527  1
  O2-  O528  1  0.05684272  0.15605123  0.03710145  1
  O2-  O529  1  0.07115106  0.10479367  0.37338475  1
  O2-  O530  1  0.08742413  0.15728072  0.70510906  1
  O2-  O531  1  0.08962011  0.41874799  0.03113193  1
  O2-  O532  1  0.08654673  0.42196659  0.35547990  1
  O2-  O533  1  0.09434907  0.42084445  0.68076974  1
  O2-  O534  1  0.09844292  0.66844474  0.02738830  1
  O2-  O535  1  0.09929492  0.67612805  0.34748269  1
  O2-  O536  1  0.14247862  0.69011044  0.70042929  1
  O2-  O537  1  0.07239374  0.85959782  0.05211490  1
  O2-  O538  1  0.06357760  0.95197915  0.38148410  1
  O2-  O539  1  0.08132284  0.90844463  0.67975724  1
  O2-  O540  1  0.32062767  0.16745087  0.04835499  1
  O2-  O541  1  0.35825774  0.16014277  0.34274626  1
  O2-  O542  1  0.33990900  0.17245621  0.67890183  1
  O2-  O543  1  0.33623854  0.40218425  0.02179688  1
  O2-  O544  1  0.33664285  0.42070598  0.34837760  1
  O2-  O545  1  0.35140096  0.42262697  0.67353955  1
  O2-  O546  1  0.33387373  0.66008041  0.02592024  1
  O2-  O547  1  0.36121002  0.70459608  0.35332050  1
  O2-  O548  1  0.33445293  0.66704383  0.68190184  1
  O2-  O549  1  0.31297666  0.90116566  0.04054034  1
  O2-  O550  1  0.37739753  0.89408536  0.33887343  1
  O2-  O551  1  0.32799045  0.91541191  0.68584085  1
  O2-  O552  1  0.59151184  0.18384621  0.02952635  1
  O2-  O553  1  0.59907515  0.17178759  0.35449160  1
  O2-  O554  1  0.57640326  0.16280488  0.71237252  1
  O2-  O555  1  0.57486997  0.42094169  0.01385045  1
  O2-  O556  1  0.58156476  0.41871350  0.35534024  1
  O2-  O557  1  0.57491413  0.40481926  0.67277296  1
  O2-  O558  1  0.55999158  0.65222426  0.01071230  1
  O2-  O559  1  0.58157712  0.66328817  0.36735738  1
  O2-  O560  1  0.58248541  0.68527425  0.68843623  1
  O2-  O561  1  0.56692730  0.91797038  0.01741964  1
  O2-  O562  1  0.58360241  0.93099039  0.35993680  1
  O2-  O563  1  0.58233532  0.92587836  0.68101086  1
  O2-  O564  1  0.83597794  0.16881703  0.02772811  1
  O2-  O565  1  0.84027536  0.17263973  0.36056503  1
  O2-  O566  1  0.83481876  0.17313387  0.69916436  1
  O2-  O567  1  0.90233581  0.45032057  0.04118469  1
  O2-  O568  1  0.84056077  0.42215650  0.36008615  1
  O2-  O569  1  0.83239761  0.40575679  0.68938580  1
  O2-  O570  1  0.92046471  0.73706474  0.04767634  1
  O2-  O571  1  0.83376623  0.65244620  0.29617457  1
  O2-  O572  1  0.81414223  0.70121767  0.69314506  1
  O2-  O573  1  0.78570432  0.88969375  0.01631075  1
  O2-  O574  1  0.80828877  0.90247018  0.34730662  1
  O2-  O575  1  0.83080480  0.93127906  0.68297894  1
