# generated using pymatgen
data_H2O
_symmetry_space_group_name_H-M   'P 1'
_cell_length_a   17.99411776
_cell_length_b   17.98590047
_cell_length_c   22.02433300
_cell_angle_alpha   89.99103129
_cell_angle_beta   89.98288412
_cell_angle_gamma   119.99931885
_symmetry_Int_Tables_number   1
_chemical_formula_structural   H2O
_chemical_formula_sum   'H384 O192'
_cell_volume   6173.03976951
_cell_formula_units_Z   192
loop_
 _symmetry_equiv_pos_site_id
 _symmetry_equiv_pos_as_xyz
  1  'x, y, z'
loop_
 _atom_type_symbol
 _atom_type_oxidation_number
  H+  1.0
  O2-  -2.0
loop_
 _atom_site_type_symbol
 _atom_site_label
 _atom_site_symmetry_multiplicity
 _atom_site_fract_x
 _atom_site_fract_y
 _atom_site_fract_z
 _atom_site_occupancy
  H+  H0  1  0.08081703  0.49641398  0.19395953  1
  H+  H1  1  0.45607937  0.32687507  0.84707854  1
  H+  H2  1  0.63996183  0.00418398  0.83214309  1
  H+  H3  1  0.40279316  0.77562203  -0.01306661  1
  H+  H4  1  0.73449826  0.86769442  0.82914290  1
  H+  H5  1  0.86389810  0.13629905  0.50451601  1
  H+  H6  1  0.81122926  0.41780504  -0.02190501  1
  H+  H7  1  0.61077546  0.19231935  0.81360729  1
  H+  H8  1  0.64460251  0.54646786  0.34673150  1
  H+  H9  1  0.14855913  0.11271965  0.16821307  1
  H+  H10  1  0.11468223  0.12702381  0.67381075  1
  H+  H11  1  0.12066302  0.73657354  1.00887787  1
  H+  H12  1  0.80025373  0.76562499  0.28810855  1
  H+  H13  1  0.61644123  0.14175356  0.49431709  1
  H+  H14  1  0.89255778  0.51356502  0.64635978  1
  H+  H15  1  0.89476238  0.27916363  1.00394024  1
  H+  H16  1  0.28652515  0.41421643  0.46945022  1
  H+  H17  1  0.12242645  0.76633732  0.84844242  1
  H+  H18  1  0.86136645  0.88110020  0.00148561  1
  H+  H19  1  0.11990032  0.53559828  0.62635958  1
  H+  H20  1  0.55775871  0.66687356  0.36393761  1
  H+  H21  1  0.14786981  0.53319228  0.85069575  1
  H+  H22  1  0.37906181  0.89455348  -0.01854430  1
  H+  H23  1  0.88754792  0.60008577  0.64407975  1
  H+  H24  1  0.18560839  0.08804362  0.22725425  1
  H+  H25  1  0.52333441  0.38611981  0.17025970  1
  H+  H26  1  0.21453543  0.59190426  0.33205484  1
  H+  H27  1  0.86619089  0.49168414  0.48506101  1
  H+  H28  1  0.89399847  0.27452360  0.84579608  1
  H+  H29  1  0.52643379  0.56723268  0.30046786  1
  H+  H30  1  0.62938813  0.86643206  1.00986593  1
  H+  H31  1  0.39003819  0.26076882  0.32599167  1
  H+  H32  1  0.61835352  0.40172574  0.33159751  1
  H+  H33  1  0.85444589  0.85644749  0.31847851  1
  H+  H34  1  -0.00207080  0.37806147  0.16703435  1
  H+  H35  1  0.41066034  0.66561253  0.15834794  1
  H+  H36  1  0.32809724  0.46473906  0.01174221  1
  H+  H37  1  0.14568679  0.38241282  0.49747458  1
  H+  H38  1  0.60524692  0.13576444  0.13362832  1
  H+  H39  1  0.61681065  0.65351632  0.67722015  1
  H+  H40  1  0.66307506  0.50288462  0.60487210  1
  H+  H41  1  0.13007576  0.47674195  0.70331850  1
  H+  H42  1  0.01925039  0.12438247  0.00936997  1
  H+  H43  1  0.31220106  0.83063244  0.80401658  1
  H+  H44  1  0.38859480  0.01314813  0.67800299  1
  H+  H45  1  0.64135897  0.61040936  0.18903095  1
  H+  H46  1  0.77641933  0.13693034  0.00216388  1
  H+  H47  1  0.11581379  0.49064568  1.02612949  1
  H+  H48  1  0.27243882  0.13634770  0.15154911  1
  H+  H49  1  0.76740582  0.11120147  0.69279141  1
  H+  H50  1  0.87891606  0.51998532  0.80061433  1
  H+  H51  1  0.51416140  0.89123280  0.33705922  1
  H+  H52  1  0.36493088  0.23288931  0.14862508  1
  H+  H53  1  0.38839809  0.88315339  0.18059856  1
  H+  H54  1  0.61893582  0.25836116  1.07619914  1
  H+  H55  1  0.53318857  0.49299285  0.71858354  1
  H+  H56  1  0.39764293  0.38891576  0.49142608  1
  H+  H57  1  0.62352673  0.73374102  0.17798130  1
  H+  H58  1  0.75818929  0.11294452  0.83853683  1
  H+  H59  1  0.84893286  0.86025897  0.47593380  1
  H+  H60  1  0.36268608  0.68140487  0.06010231  1
  H+  H61  1  0.13604038  0.11353756  0.84264196  1
  H+  H62  1  0.14677872  0.62779702  1.00029290  1
  H+  H63  1  0.47798862  0.11589904  0.18250217  1
  H+  H64  1  0.03993966  0.64321877  0.89754766  1
  H+  H65  1  0.60809892  0.88347422  0.16354016  1
  H+  H66  1  0.07710541  0.41517118  0.43613836  1
  H+  H67  1  0.89013820  0.77274238  0.99721161  1
  H+  H68  1  0.61621809  0.14168389  0.96438088  1
  H+  H69  1  0.77689866  0.62013641  0.64620940  1
  H+  H70  1  0.62994919  0.54612682  0.77491887  1
  H+  H71  1  0.21769336  0.35226925  0.33357921  1
  H+  H72  1  0.02745895  0.52990099  0.23085710  1
  H+  H73  1  0.86885514  0.87530853  0.15557023  1
  H+  H74  1  0.86587348  0.88786726  0.81590173  1
  H+  H75  1  0.22373853  0.16306543  0.87450483  1
  H+  H76  1  0.73211363  0.37666030  0.50805956  1
  H+  H77  1  0.86618630  0.40244957  0.49028046  1
  H+  H78  1  0.64767005  0.79898733  0.33597766  1
  H+  H79  1  0.22764906  0.11387260  0.65125436  1
  H+  H80  1  0.64686070  0.67275679  0.36903827  1
  H+  H81  1  0.31933989  0.89660420  0.72194273  1
  H+  H82  1  0.40580553  0.55161218  0.49487016  1
  H+  H83  1  0.72962517  0.86242847  1.00388133  1
  H+  H84  1  0.63657157  1.02329138  -0.00648566  1
  H+  H85  1  0.50306173  0.35821370  0.48123018  1
  H+  H86  1  0.98009121  0.61999733  1.02870662  1
  H+  H87  1  0.48930230  0.88300642  0.64230970  1
  H+  H88  1  0.58029800  0.38836328  0.83722447  1
  H+  H89  1  0.12118430  0.98539819  0.48378593  1
  H+  H90  1  0.88257952  0.61063585  0.17450752  1
  H+  H91  1  0.51989316  0.88958921  0.16556444  1
  H+  H92  1  0.02880248  0.13574334  0.34677551  1
  H+  H93  1  0.47658261  0.35639639  0.64572592  1
  H+  H94  1  0.52904042  0.87737884  1.00136953  1
  H+  H95  1  0.35571728  0.72548475  0.33248654  1
  H+  H96  1  0.09312894  -0.01704074  0.67192988  1
  H+  H97  1  0.26929555  0.37185305  0.82552148  1
  H+  H98  1  0.60737495  0.64117133  0.81980471  1
  H+  H99  1  0.76973961  0.63290076  0.79476564  1
  H+  H100  1  0.72704539  0.60681964  0.18232117  1
  H+  H101  1  0.02051575  0.14134304  0.49505790  1
  H+  H102  1  0.06104940  0.90479525  0.76174134  1
  H+  H103  1  0.72834238  0.86386344  0.17664488  1
  H+  H104  1  0.88611559  0.32765857  0.22713600  1
  H+  H105  1  0.37608501  0.48101271  0.16747315  1
  H+  H106  1  0.62954416  0.02555717  0.50191754  1
  H+  H107  1  0.60449194  0.93674742  0.72148166  1
  H+  H108  1  0.10070658  0.62733882  0.85498306  1
  H+  H109  1  0.77983576  0.36701408  0.66666900  1
  H+  H110  1  0.12551646  0.38756841  0.84355671  1
  H+  H111  1  0.36646399  0.88828676  0.66179525  1
  H+  H112  1  0.53882430  0.87572918  0.81203151  1
  H+  H113  1  0.88986585  0.53142945  1.03180837  1
  H+  H114  1  0.41163941  0.31774621  0.22793141  1
  H+  H115  1  0.38517323  0.56536661  0.91423803  1
  H+  H116  1  0.09056273  0.91135805  0.07599405  1
  H+  H117  1  1.00953625  0.86840662  0.82271531  1
  H+  H118  1  0.35429054  0.10614963  0.80808680  1
  H+  H119  1  1.03022997  0.65352962  0.46979642  1
  H+  H120  1  0.86546507  0.22728270  0.50746247  1
  H+  H121  1  0.43944708  0.56585443  0.96901408  1
  H+  H122  1  0.40791477  0.38788788  0.64886968  1
  H+  H123  1  1.03595869  0.38970691  0.84115182  1
  H+  H124  1  0.29003843  0.89358629  0.98702283  1
  H+  H125  1  0.22394785  0.12134370  0.50303057  1
  H+  H126  1  0.37119315  0.23900717  0.83520661  1
  H+  H127  1  0.93253363  0.23738480  0.22968084  1
  H+  H128  1  0.58048550  0.41897683  1.08307759  1
  H+  H129  1  0.62901669  0.77735262  0.65213540  1
  H+  H130  1  0.34800521  0.44050074  0.41270404  1
  H+  H131  1  0.10966499  0.21273551  0.68393512  1
  H+  H132  1  0.37957048  -0.01068979  0.81656532  1
  H+  H133  1  0.52702955  0.14193674  -0.04611521  1
  H+  H134  1  0.25057277  0.86736054  0.81687037  1
  H+  H135  1  0.22391460  0.62116424  0.48906475  1
  H+  H136  1  1.11996689  0.88513582  0.17205407  1
  H+  H137  1  0.27963002  0.38366311  0.67397811  1
  H+  H138  1  0.36617940  0.85252053  0.32520198  1
  H+  H139  1  0.13864739  0.36015421  0.68835429  1
  H+  H140  1  0.57531414  0.67777132  0.76763986  1
  H+  H141  1  0.85944204  0.12159586  0.84130487  1
  H+  H142  1  0.92983466  0.12870594  0.28729886  1
  H+  H143  1  0.35491383  0.36599295  0.82576187  1
  H+  H144  1  0.15013849  0.02478931  0.32172734  1
  H+  H145  1  0.63173354  0.88868899  0.81252622  1
  H+  H146  1  0.13622907  0.01182079  1.00029238  1
  H+  H147  1  0.73448504  0.37536314  0.17677842  1
  H+  H148  1  0.36385354  0.64898790  0.49044037  1
  H+  H149  1  0.86782276  0.64297836  1.02694658  1
  H+  H150  1  0.02658072  0.63980362  0.65667533  1
  H+  H151  1  0.27111578  0.66549524  0.20205248  1
  H+  H152  1  0.04566807  0.88919635  0.33717200  1
  H+  H153  1  0.25770289  0.68046468  0.82332669  1
  H+  H154  1  0.27978312  0.13581646  0.33733953  1
  H+  H155  1  0.82967850  0.66913559  0.10754845  1
  H+  H156  1  0.53231582  0.11455930  0.67283920  1
  H+  H157  1  0.34971126  0.24042591  0.48888920  1
  H+  H158  1  0.27072762  0.12532504  1.00355118  1
  H+  H159  1  0.42191127  0.08378772  0.72822803  1
  H+  H160  1  0.48282784  0.38786043  -0.00165750  1
  H+  H161  1  0.02947720  0.88228909  0.01715081  1
  H+  H162  1  0.63129173  0.31869238  0.85679029  1
  H+  H163  1  0.72387968  0.12248957  0.34150091  1
  H+  H164  1  0.98199826  0.37631344  0.50756768  1
  H+  H165  1  0.62669108  0.16285798  0.34398816  1
  H+  H166  1  0.73909409  0.62619985  0.35148226  1
  H+  H167  1  0.22516200  0.85850756  0.64289914  1
  H+  H168  1  0.36458544  0.13929917  0.66186151  1
  H+  H169  1  0.88747676  0.02054592  0.50152700  1
  H+  H170  1  1.01740914  0.88833533  0.65993137  1
  H+  H171  1  0.23572400  0.62705196  1.00016450  1
  H+  H172  1  0.35855331  0.39737211  0.01311242  1
  H+  H173  1  0.48637403  0.64501981  0.50871518  1
  H+  H174  1  0.71857528  0.11117604  0.51000254  1
  H+  H175  1  0.35285954  0.74290526  0.66541065  1
  H+  H176  1  0.39875001  0.52260095  0.65913781  1
  H+  H177  1  0.11394633  0.48742243  0.48855648  1
  H+  H178  1  0.87884197  0.26775876  0.34903868  1
  H+  H179  1  0.64386346  0.87333068  0.64574843  1
  H+  H180  1  0.88931024  0.75556157  0.62611093  1
  H+  H181  1  0.86909811  0.15059982  0.35770694  1
  H+  H182  1  0.12557718  0.89819742  0.48178993  1
  H+  H183  1  0.39456650  0.02453404  0.96931679  1
  H+  H184  1  0.43549640  0.51908437  0.32973835  1
  H+  H185  1  0.62216136  0.23357272  0.50128576  1
  H+  H186  1  0.25035343  0.68727338  0.21804601  1
  H+  H187  1  0.91086005  0.80017783  0.53145456  1
  H+  H188  1  -0.00688366  0.35439065  0.68561185  1
  H+  H189  1  0.10276045  0.34671834  0.18486019  1
  H+  H190  1  0.01970498  0.64666352  0.15928715  1
  H+  H191  1  0.86361841  0.75376408  0.82197625  1
  H+  H192  1  0.63750383  0.32690416  0.66765404  1
  H+  H193  1  0.13222710  0.25342526  -0.01184882  1
  H+  H194  1  0.39495222  0.76431950  0.83093928  1
  H+  H195  1  0.36348062  0.63677077  0.99710914  1
  H+  H196  1  0.71832178  0.11979802  0.15159393  1
  H+  H197  1  0.57977235  0.90670111  0.06767586  1
  H+  H198  1  0.89129039  1.04261193  0.33060175  1
  H+  H199  1  0.09753368  0.63442240  0.16938871  1
  H+  H200  1  0.11017380  0.23236218  0.49227164  1
  H+  H201  1  0.85082408  0.24177034  0.15323762  1
  H+  H202  1  0.38520477  0.87509240  0.48883947  1
  H+  H203  1  1.01160131  0.22781073  0.21414090  1
  H+  H204  1  0.12233233  0.85394065  0.83360826  1
  H+  H205  1  0.76580446  0.86774320  0.65378667  1
  H+  H206  1  0.36538058  0.64230233  0.33239511  1
  H+  H207  1  0.01995401  0.13239398  0.83030796  1
  H+  H208  1  0.14727278  0.86775856  0.99512486  1
  H+  H209  1  0.52612963  0.29411381  0.44939054  1
  H+  H210  1  0.83865597  1.03100606  0.20838068  1
  H+  H211  1  0.89512205  0.36161722  0.83148523  1
  H+  H212  1  0.63324991  0.87986040  0.32682023  1
  H+  H213  1  0.14000390  0.77533267  0.18179400  1
  H+  H214  1  0.86372563  0.96035249  0.15333808  1
  H+  H215  1  0.52246568  0.64069729  0.66987954  1
  H+  H216  1  0.11574305  0.73119097  0.65246250  1
  H+  H217  1  -0.02101737  0.09467781  0.65649584  1
  H+  H218  1  0.63480022  0.51132920  1.01270114  1
  H+  H219  1  0.88316791  0.52183862  0.17293092  1
  H+  H220  1  0.87144461  0.37259660  0.67077382  1
  H+  H221  1  0.48783335  0.11578297  0.50960492  1
  H+  H222  1  0.76638948  0.86988118  0.48307663  1
  H+  H223  1  0.13222895  0.26084766  0.33795617  1
  H+  H224  1  0.60238049  0.37326291  0.03155031  1
  H+  H225  1  0.63339294  1.03864513  0.33349429  1
  H+  H226  1  0.88832593  0.84285605  0.61810868  1
  H+  H227  1  0.37064590  0.37141693  0.32253516  1
  H+  H228  1  0.49179983  0.61942535  0.18276585  1
  H+  H229  1  0.86984903  0.72309813  0.34325988  1
  H+  H230  1  0.13684659  0.31606771  0.24225355  1
  H+  H231  1  0.91773339  0.07124574  0.56473226  1
  H+  H232  1  0.88812464  1.02445768  0.84409036  1
  H+  H233  1  0.88426384  0.10999731  0.99658871  1
  H+  H234  1  0.17060734  0.32012336  0.90008913  1
  H+  H235  1  0.21711781  0.34432953  -0.00668629  1
  H+  H236  1  0.98644645  0.86589554  0.17646898  1
  H+  H237  1  0.88326552  0.35911656  1.01450675  1
  H+  H238  1  0.33174809  0.42116449  0.28691852  1
  H+  H239  1  0.14746146  0.85989810  0.33692227  1
  H+  H240  1  0.36508781  0.12879466  0.34574388  1
  H+  H241  1  0.89596754  0.00319524  0.65001097  1
  H+  H242  1  0.63203944  0.02897970  0.15279128  1
  H+  H243  1  0.86842802  0.47687155  0.33517749  1
  H+  H244  1  0.60090349  0.41326146  0.86606160  1
  H+  H245  1  0.62805874  0.05929685  0.66121152  1
  H+  H246  1  0.85499630  0.37584513  0.16466650  1
  H+  H247  1  0.86572099  0.72674811  0.16616481  1
  H+  H248  1  0.83519953  0.17632794  0.41774590  1
  H+  H249  1  0.73366415  0.37576218  0.32412916  1
  H+  H250  1  0.62230503  0.63257156  0.02377267  1
  H+  H251  1  0.28355226  0.89365305  0.17471089  1
  H+  H252  1  0.89112013  0.60390588  0.33106593  1
  H+  H253  1  0.59902425  0.87965630  0.48565760  1
  H+  H254  1  0.63543899  0.53286213  0.66599143  1
  H+  H255  1  0.87175313  0.02145746  0.22153033  1
  H+  H256  1  0.77678157  0.63829334  0.01402350  1
  H+  H257  1  0.26104099  0.65878336  0.66447801  1
  H+  H258  1  0.37836364  0.50926963  0.82970667  1
  H+  H259  1  0.12643285  0.62825313  0.64204663  1
  H+  H260  1  0.63870419  0.37599679  0.18108740  1
  H+  H261  1  1.02730310  0.40201042  1.02644704  1
  H+  H262  1  0.53707377  0.63670738  0.03492484  1
  H+  H263  1  0.86114091  0.63384900  0.79009306  1
  H+  H264  1  0.52854714  0.30887538  0.72976881  1
  H+  H265  1  0.77247177  0.36558394  0.82082240  1
  H+  H266  1  0.33315791  0.16716070  0.08291278  1
  H+  H267  1  0.63698690  0.09207848  0.83201005  1
  H+  H268  1  0.10873402  0.20849485  0.16330193  1
  H+  H269  1  0.37488298  -0.00914677  0.48630648  1
  H+  H270  1  0.96565722  0.60752620  0.81077050  1
  H+  H271  1  0.09569926  0.68095860  0.07109579  1
  H+  H272  1  0.92517425  0.58950317  0.55205306  1
  H+  H273  1  0.85162138  0.20674965  0.69401606  1
  H+  H274  1  0.13618994  0.26796465  0.83721438  1
  H+  H275  1  0.14753369  0.78633143  0.48383680  1
  H+  H276  1  0.88125376  1.01842304  -0.00438911  1
  H+  H277  1  0.52793589  0.11860073  0.09083012  1
  H+  H278  1  0.47370638  0.07681137  0.81594269  1
  H+  H279  1  0.14472706  0.11072848  0.32420772  1
  H+  H280  1  0.64365200  0.28583418  0.32913695  1
  H+  H281  1  0.66335420  0.67662762  0.51823619  1
  H+  H282  1  0.63838071  0.77055273  1.01230290  1
  H+  H283  1  0.65237221  0.81938118  0.55546094  1
  H+  H284  1  0.10707543  0.12104982  1.00886484  1
  H+  H285  1  0.26718805  0.10970451  0.81475627  1
  H+  H286  1  0.47809119  0.35524443  0.32140984  1
  H+  H287  1  0.89592338  0.63153430  0.50055584  1
  H+  H288  1  0.10020921  0.72024661  0.37651904  1
  H+  H289  1  0.64015092  0.25005935  0.89614169  1
  H+  H290  1  0.92984316  0.83185167  0.93836337  1
  H+  H291  1  0.82244808  0.41411938  0.10732323  1
  H+  H292  1  0.16269751  0.08348241  0.59498774  1
  H+  H293  1  0.09703719  0.41869972  0.76365081  1
  H+  H294  1  0.33395702  0.67068969  0.42751473  1
  H+  H295  1  0.65808946  0.57024382  0.95362298  1
  H+  H296  1  0.74058939  0.36199076  0.02747710  1
  H+  H297  1  0.67213350  0.84627140  0.23810400  1
  H+  H298  1  0.09859710  0.36999481  0.34758443  1
  H+  H299  1  0.68122530  0.61617006  0.56319857  1
  H+  H300  1  0.42555159  0.58520399  0.60140299  1
  H+  H301  1  0.13176324  0.11378361  0.50513595  1
  H+  H302  1  0.87743289  0.53138716  0.91684140  1
  H+  H303  1  0.23666057  0.87578977  0.48632604  1
  H+  H304  1  0.42810063  0.36386221  0.55381636  1
  H+  H305  1  0.63465976  0.35792179  0.50799269  1
  H+  H306  1  0.33787622  0.40918399  0.73264980  1
  H+  H307  1  0.10097763  0.92616957  0.39943622  1
  H+  H308  1  0.12403971  0.97616867  0.16528487  1
  H+  H309  1  0.83397597  0.42005434  0.39779187  1
  H+  H310  1  0.38872719  0.36170118  0.17231994  1
  H+  H311  1  0.88115543  0.36763821  0.34065719  1
  H+  H312  1  0.44550036  0.82236513  0.92478235  1
  H+  H313  1  0.57504085  0.40767022  0.39164286  1
  H+  H314  1  0.16085282  0.06997887  0.93925306  1
  H+  H315  1  0.17679819  0.59511487  0.90842844  1
  H+  H316  1  0.81586866  0.83547552  0.69468836  1
  H+  H317  1  0.95365954  0.28997592  0.63127099  1
  H+  H318  1  0.33310684  0.41773154  0.11173625  1
  H+  H319  1  0.07372359  0.42281602  0.11623115  1
  H+  H320  1  0.82460473  0.15088309  0.77688776  1
  H+  H321  1  0.40728123  0.07782090  0.90912262  1
  H+  H322  1  0.59923155  0.19487500  0.40297285  1
  H+  H323  1  0.82367418  0.77984154  0.87517136  1
  H+  H324  1  0.39734280  0.79541926  0.17735796  1
  H+  H325  1  0.90501657  0.51080459  0.91853926  1
  H+  H326  1  0.16646795  0.83728144  0.93136438  1
  H+  H327  1  0.77400781  0.90916327  0.33561327  1
  H+  H328  1  0.91392775  0.08053233  0.90682013  1
  H+  H329  1  0.64336267  0.78068701  0.83465499  1
  H+  H330  1  0.16158598  0.59965552  0.54571832  1
  H+  H331  1  0.17112141  0.83233717  0.58202710  1
  H+  H332  1  0.37217762  0.98509629  0.17573025  1
  H+  H333  1  0.20445502  0.36701360  0.54427748  1
  H+  H334  1  0.46242459  0.60188127  0.83292220  1
  H+  H335  1  0.08809290  0.15445755  0.10209116  1
  H+  H336  1  0.33097665  0.16669113  0.71678520  1
  H+  H337  1  0.85167541  0.93654347  0.76010371  1
  H+  H338  1  0.09021859  0.16222283  0.40373469  1
  H+  H339  1  0.32640358  0.17473994  0.43390237  1
  H+  H340  1  0.57647923  0.41004275  0.71239849  1
  H+  H341  1  0.61814227  0.25558792  1.00596860  1
  H+  H342  1  0.47018463  0.75497607  0.12684144  1
  H+  H343  1  0.42263790  0.08327441  0.24447733  1
  H+  H344  1  0.11573565  0.64880766  0.46660957  1
  H+  H345  1  0.10484130  0.46430138  0.34625225  1
  H+  H346  1  0.83441838  0.92351830  0.39248374  1
  H+  H347  1  0.83336593  0.90652605  0.06350774  1
  H+  H348  1  0.61140506  0.72290299  0.45019785  1
  H+  H349  1  0.91057451  0.57459289  0.26729739  1
  H+  H350  1  0.13581367  0.31783821  0.62573191  1
  H+  H351  1  0.17054514  0.82860557  0.24362695  1
  H+  H352  1  0.43070746  0.06807428  0.56708305  1
  H+  H353  1  0.66674139  0.06813563  0.92916697  1
  H+  H354  1  0.85127101  0.67905368  0.40783894  1
  H+  H355  1  0.07600604  0.15115059  0.76908223  1
  H+  H356  1  0.40862000  0.83775686  0.26601980  1
  H+  H357  1  0.83539463  0.66431468  0.70471404  1
  H+  H358  1  0.13594030  0.56138939  0.28504721  1
  H+  H359  1  0.92059169  0.35727999  0.56452273  1
  H+  H360  1  0.62612813  0.19657947  0.66233837  1
  H+  H361  1  0.30466725  0.71241559  0.75753060  1
  H+  H362  1  0.43363093  0.59027096  0.24011563  1
  H+  H363  1  0.86210963  0.16042314  0.15833283  1
  H+  H364  1  0.61376282  0.47972687  0.17385402  1
  H+  H365  1  0.82878669  0.39742194  0.75976015  1
  H+  H366  1  0.42447093  0.84993487  0.58557235  1
  H+  H367  1  0.51369217  0.88699254  0.48604281  1
  H+  H368  1  0.57363695  0.91982021  0.39615601  1
  H+  H369  1  0.45276084  1.00403294  0.34279449  1
  H+  H370  1  0.46700940  0.74401306  0.85356382  1
  H+  H371  1  0.65053190  0.54214132  0.84700359  1
  H+  H372  1  0.91249952  0.83310581  0.22960268  1
  H+  H373  1  0.36274100  0.13180508  0.99845199  1
  H+  H374  1  0.67303687  0.32026036  0.60297533  1
  H+  H375  1  0.83307641  0.16863681  0.06271851  1
  H+  H376  1  0.37924612  0.78222148  0.49405221  1
  H+  H377  1  -0.02408653  0.36137227  0.34140647  1
  H+  H378  1  0.67381687  0.34650104  0.24439491  1
  H+  H379  1  0.41443640  0.34150801  0.94574369  1
  H+  H380  1  0.60112168  0.67260981  0.12019271  1
  H+  H381  1  0.78257960  0.67922309  0.49973101  1
  H+  H382  1  0.59306517  0.13590587  0.75251200  1
  H+  H383  1  0.35249289  0.95413225  0.41919643  1
  O2-  O384  1  0.09292306  0.15126026  0.14704606  1
  O2-  O385  1  0.08113648  0.17160182  0.47968064  1
  O2-  O386  1  0.07944113  0.15781840  0.81458879  1
  O2-  O387  1  0.06265014  0.41089674  0.16192623  1
  O2-  O388  1  0.08334238  0.42289407  0.48157360  1
  O2-  O389  1  0.09895241  0.42298970  0.83051003  1
  O2-  O390  1  0.08214241  0.67435983  0.14890651  1
  O2-  O391  1  0.08903289  0.68281139  0.45246080  1
  O2-  O392  1  0.06179349  0.65309646  0.85607765  1
  O2-  O393  1  0.08939982  0.91406264  0.15381895  1
  O2-  O394  1  0.09520587  0.92730121  0.46472511  1
  O2-  O395  1  0.06692747  0.89378307  0.80573199  1
  O2-  O396  1  0.33222856  0.17227240  0.13107871  1
  O2-  O397  1  0.31842826  0.17891710  0.47811720  1
  O2-  O398  1  0.32683804  0.14119618  0.79891067  1
  O2-  O399  1  0.34599552  0.41969607  0.15595276  1
  O2-  O400  1  0.34788146  0.44687206  0.45701820  1
  O2-  O401  1  0.33005733  0.40015308  0.80937130  1
  O2-  O402  1  0.41001687  0.71097193  0.13218943  1
  O2-  O403  1  0.33088623  0.67478686  0.47246524  1
  O2-  O404  1  0.30512589  0.73022353  0.80172649  1
  O2-  O405  1  0.34385047  0.92341076  0.16046633  1
  O2-  O406  1  0.34384977  0.93535148  0.46205869  1
  O2-  O407  1  0.30830657  0.88377779  0.79875278  1
  O2-  O408  1  0.56939122  0.16171315  0.11847745  1
  O2-  O409  1  0.58854451  0.17649938  0.48170604  1
  O2-  O410  1  0.58397958  0.13228177  0.79804312  1
  O2-  O411  1  0.58512541  0.41793795  0.15748166  1
  O2-  O412  1  0.55252990  0.35418936  0.46178060  1
  O2-  O413  1  0.59049073  0.50058772  0.72258050  1
  O2-  O414  1  0.59467812  0.67179475  0.16491343  1
  O2-  O415  1  0.60373317  0.72463639  0.49632350  1
  O2-  O416  1  0.57580366  0.67303424  0.81282512  1
  O2-  O417  1  0.57322534  0.90369844  0.14136405  1
  O2-  O418  1  0.57511080  0.91558870  0.47170989  1
  O2-  O419  1  0.59771958  0.91663770  0.79664997  1
  O2-  O420  1  0.82732144  0.17980878  0.13624619  1
  O2-  O421  1  0.83386159  0.16800221  0.49151409  1
  O2-  O422  1  0.82403377  0.14956177  0.82573774  1
  O2-  O423  1  0.82305858  0.41309794  0.15180443  1
  O2-  O424  1  0.83355662  0.42896794  0.47378243  1
  O2-  O425  1  0.83083550  0.40272384  0.80505936  1
  O2-  O426  1  0.83086173  0.66583382  0.15271241  1
  O2-  O427  1  0.84421792  0.69721152  0.48268633  1
  O2-  O428  1  0.83137880  0.66898358  0.78271124  1
  O2-  O429  1  0.83324835  0.90080345  0.13928140  1
  O2-  O430  1  0.82681667  0.90054380  0.46921629  1
  O2-  O431  1  0.84680815  0.92958860  0.80440145  1
  O2-  O432  1  0.18460894  0.08557146  0.18177151  1
  O2-  O433  1  0.16267478  0.08402254  0.51857219  1
  O2-  O434  1  0.18179304  0.10474539  0.86216620  1
  O2-  O435  1  0.11327243  0.30027494  0.20064549  1
  O2-  O436  1  0.18173818  0.35387468  0.50311333  1
  O2-  O437  1  0.17080624  0.32737382  0.85341715  1
  O2-  O438  1  0.08554967  0.54872411  0.21661595  1
  O2-  O439  1  0.16163590  0.59185554  0.50044319  1
  O2-  O440  1  0.17045324  0.59413603  0.86289203  1
  O2-  O441  1  0.17082221  0.83494038  0.19861701  1
  O2-  O442  1  0.17713902  0.84430607  0.50290997  1
  O2-  O443  1  0.15692738  0.82979955  0.85310397  1
  O2-  O444  1  0.41966021  0.08179406  0.19869511  1
  O2-  O445  1  0.42751497  0.07766690  0.52398812  1
  O2-  O446  1  0.41091207  0.05326318  0.82231847  1
  O2-  O447  1  0.41504204  0.32448802  0.18274137  1
  O2-  O448  1  0.41848624  0.35184522  0.50854432  1
  O2-  O449  1  0.39448074  0.29676904  0.85502797  1
  O2-  O450  1  0.42990566  0.59296503  0.19556422  1
  O2-  O451  1  0.42515054  0.60559687  0.51804039  1
  O2-  O452  1  0.40083182  0.56926896  0.84421564  1
  O2-  O453  1  0.42364495  0.85243178  0.19663840  1
  O2-  O454  1  0.41224975  0.84332695  0.50764693  1
  O2-  O455  1  0.45399627  0.79056626  0.85157794  1
  O2-  O456  1  0.65541256  0.09077511  0.15903517  1
  O2-  O457  1  0.65667497  0.08431347  0.51891641  1
  O2-  O458  1  0.66801559  0.06409072  0.85137066  1
  O2-  O459  1  0.67253117  0.34740457  0.19583917  1
  O2-  O460  1  0.67484991  0.34251835  0.52791105  1
  O2-  O461  1  0.66010542  0.28484015  0.85754487  1
  O2-  O462  1  0.66694304  0.57395190  0.19753672  1
  O2-  O463  1  0.69491050  0.64491656  0.52293345  1
  O2-  O464  1  0.66256030  0.58423008  0.81513277  1
  O2-  O465  1  0.66894128  0.83853098  0.19258025  1
  O2-  O466  1  0.65130933  0.81792299  0.50923076  1
  O2-  O467  1  0.67547494  0.84300077  0.84494689  1
  O2-  O468  1  0.94852125  0.19312484  0.22509457  1
  O2-  O469  1  0.91557024  0.07896135  0.51895023  1
  O2-  O470  1  0.91291039  0.08386373  0.86072202  1
  O2-  O471  1  0.89365281  0.33051277  0.18321211  1
  O2-  O472  1  0.91987911  0.34653877  0.52101145  1
  O2-  O473  1  0.93134827  0.33669844  0.84345915  1
  O2-  O474  1  0.91510540  0.58212725  0.18847122  1
  O2-  O475  1  0.92319691  0.59608609  0.50687173  1
  O2-  O476  1  0.90963858  0.58150186  0.78964056  1
  O2-  O477  1  0.92274581  0.83520083  0.18494029  1
  O2-  O478  1  0.89411858  0.79166472  0.48690394  1
  O2-  O479  1  0.87461851  0.80447402  0.84944472  1
  O2-  O480  1  0.17759508  0.08516391  0.30612167  1
  O2-  O481  1  0.16514776  0.08469868  0.64065938  1
  O2-  O482  1  0.16400255  0.07219867  0.98435118  1
  O2-  O483  1  0.15614617  0.32258837  0.32398241  1
  O2-  O484  1  0.16072082  0.32604943  0.66610503  1
  O2-  O485  1  0.16460198  0.31085853  0.96868590  1
  O2-  O486  1  0.15171991  0.55656929  0.32775331  1
  O2-  O487  1  0.15911203  0.59692570  0.62213632  1
  O2-  O488  1  0.17576610  0.59640093  0.98475146  1
  O2-  O489  1  0.16933315  0.82003736  0.32444165  1
  O2-  O490  1  0.16598110  0.82651721  0.62696128  1
  O2-  O491  1  0.17435787  0.83663285  0.97640752  1
  O2-  O492  1  0.41237283  0.07919730  0.31962141  1
  O2-  O493  1  0.42635439  0.07810336  0.68422167  1
  O2-  O494  1  0.41927956  0.08598732  0.95308358  1
  O2-  O495  1  0.41706972  0.32079058  0.30720277  1
  O2-  O496  1  0.45305521  0.38720552  0.62328985  1
  O2-  O497  1  0.43539422  0.38798231  0.97560926  1
  O2-  O498  1  0.48070845  0.57676767  0.31558367  1
  O2-  O499  1  0.43231363  0.58332121  0.64576307  1
  O2-  O500  1  0.38571888  0.56475366  0.96111573  1
  O2-  O501  1  0.40164836  0.82832198  0.31229458  1
  O2-  O502  1  0.42815738  0.85068487  0.63094017  1
  O2-  O503  1  0.44047667  0.83401855  0.96858841  1
  O2-  O504  1  0.66640829  0.10057442  0.32392310  1
  O2-  O505  1  0.66369341  0.03073134  0.66045628  1
  O2-  O506  1  0.66617319  0.07998456  0.97345180  1
  O2-  O507  1  0.67327693  0.34792726  0.30910844  1
  O2-  O508  1  0.67483141  0.30785857  0.64716369  1
  O2-  O509  1  0.63748394  0.29802119  1.04034859  1
  O2-  O510  1  0.67802105  0.60984431  0.34423113  1
  O2-  O511  1  0.67271345  0.55497452  0.62543108  1
  O2-  O512  1  0.66334468  0.57379993  0.99772240  1
  O2-  O513  1  0.66955318  0.85428883  0.31346519  1
  O2-  O514  1  0.66390633  0.83403376  0.63068901  1
  O2-  O515  1  0.66451634  0.83076967  0.99645543  1
  O2-  O516  1  0.92504590  0.10676038  0.32982317  1
  O2-  O517  1  0.92126742  0.06314869  0.63714735  1
  O2-  O518  1  0.91372383  0.07851216  0.98052493  1
  O2-  O519  1  0.91105437  0.33056878  0.32957420  1
  O2-  O520  1  0.93799098  0.31705285  0.66333542  1
  O2-  O521  1  0.92389076  0.34227445  0.99927786  1
  O2-  O522  1  0.91097939  0.56691274  0.31210189  1
  O2-  O523  1  0.91971676  0.57184718  0.62845871  1
  O2-  O524  1  0.91791125  0.59324889  1.03899693  1
  O2-  O525  1  0.85919482  0.80805788  0.29882283  1
  O2-  O526  1  0.91946286  0.81331760  0.60576342  1
  O2-  O527  1  0.92267617  0.83429101  0.98235885  1
  O2-  O528  1  0.07948650  0.15362182  0.02431371  1
  O2-  O529  1  0.09071478  0.16134303  0.35820978  1
  O2-  O530  1  0.07927833  0.15065119  0.69313578  1
  O2-  O531  1  0.08495840  0.43397115  0.04597216  1
  O2-  O532  1  0.06815710  0.40097028  0.36123321  1
  O2-  O533  1  0.09569823  0.41673915  0.71570154  1
  O2-  O534  1  0.09114077  0.67657875  0.02569637  1
  O2-  O535  1  0.09269388  0.73548259  0.33411001  1
  O2-  O536  1  0.08757791  0.67023847  0.66939543  1
  O2-  O537  1  0.09029562  0.91229746  0.03035475  1
  O2-  O538  1  0.10481917  0.92230767  0.35122063  1
  O2-  O539  1  0.04637984  0.93117294  0.69199108  1
  O2-  O540  1  0.33175700  0.15835791  0.01769497  1
  O2-  O541  1  0.33888175  0.16637594  0.35500294  1
  O2-  O542  1  0.33372880  0.16999344  0.67200898  1
  O2-  O543  1  0.31599568  0.41098005  0.03204942  1
  O2-  O544  1  0.34470567  0.41108028  0.32825641  1
  O2-  O545  1  0.34007955  0.41474538  0.68720793  1
  O2-  O546  1  0.34640451  0.67624359  0.01642128  1
  O2-  O547  1  0.33011935  0.66482154  0.34836990  1
  O2-  O548  1  0.31379764  0.69106695  0.68885230  1
  O2-  O549  1  0.35304178  0.92946222  -0.00723317  1
  O2-  O550  1  0.39411902  0.99417897  0.34111823  1
  O2-  O551  1  0.33109184  0.91266829  0.67796155  1
  O2-  O552  1  0.59170700  0.17911237  -0.04614741  1
  O2-  O553  1  0.60629544  0.20272991  0.35823983  1
  O2-  O554  1  0.59538481  0.13598086  0.67739324  1
  O2-  O555  1  0.58267496  0.41574950  0.03727970  1
  O2-  O556  1  0.58179731  0.42456340  0.34792221  1
  O2-  O557  1  0.56227904  0.34935511  0.69800988  1
  O2-  O558  1  0.59916013  0.66966811  0.04017494  1
  O2-  O559  1  0.61630254  0.70651351  0.37892492  1
  O2-  O560  1  0.58348882  0.68114356  0.68720260  1
  O2-  O561  1  0.58864385  0.90699631  0.02208082  1
  O2-  O562  1  0.57490695  0.92258222  0.35044864  1
  O2-  O563  1  0.60336302  0.93982869  0.67539127  1
  O2-  O564  1  0.83631405  0.16379945  0.01718783  1
  O2-  O565  1  0.83843491  0.18147238  0.37188023  1
  O2-  O566  1  0.82230926  0.14987880  0.71357332  1
  O2-  O567  1  0.80425196  0.40279220  0.02113295  1
  O2-  O568  1  0.83744348  0.41427309  0.35257787  1
  O2-  O569  1  0.84071342  0.40320821  0.68124782  1
  O2-  O570  1  0.83613178  0.67670612  0.02829803  1
  O2-  O571  1  0.84785789  0.66691108  0.36320188  1
  O2-  O572  1  0.83780084  0.65758449  0.65973414  1
  O2-  O573  1  0.82848132  0.90809595  0.01803536  1
  O2-  O574  1  0.83556645  0.93185846  0.34739133  1
  O2-  O575  1  0.82453102  0.88417915  0.67000255  1
