# generated using pymatgen
data_H2O
_symmetry_space_group_name_H-M   'P 1'
_cell_length_a   17.97546089
_cell_length_b   17.95587433
_cell_length_c   21.98128585
_cell_angle_alpha   90.03154681
_cell_angle_beta   90.02630389
_cell_angle_gamma   119.97623113
_symmetry_Int_Tables_number   1
_chemical_formula_structural   H2O
_chemical_formula_sum   'H384 O192'
_cell_volume   6145.73831195
_cell_formula_units_Z   192
loop_
 _symmetry_equiv_pos_site_id
 _symmetry_equiv_pos_as_xyz
  1  'x, y, z'
loop_
 _atom_type_symbol
 _atom_type_oxidation_number
  H+  1.0
  O2-  -2.0
loop_
 _atom_site_type_symbol
 _atom_site_label
 _atom_site_symmetry_multiplicity
 _atom_site_fract_x
 _atom_site_fract_y
 _atom_site_fract_z
 _atom_site_occupancy
  H+  H0  1  0.11670559  0.88425220  0.16082418  1
  H+  H1  1  0.62859015  0.63731725  0.85489420  1
  H+  H2  1  0.12745592  0.26473560  0.65872329  1
  H+  H3  1  0.27273624  0.39375457  0.32702052  1
  H+  H4  1  0.35829458  0.88040240  0.17279064  1
  H+  H5  1  0.38228166  0.15097874  0.48034159  1
  H+  H6  1  0.76756736  0.65444477  0.84897732  1
  H+  H7  1  0.79321472  0.42933335  0.33722688  1
  H+  H8  1  0.67792190  1.01716085  0.49140883  1
  H+  H9  1  0.14070747  0.26917966  0.15670511  1
  H+  H10  1  0.88250153  -0.03208263  0.49774149  1
  H+  H11  1  0.34849340  -0.03402408  0.17060845  1
  H+  H12  1  0.80000650  0.12359382  0.47333690  1
  H+  H13  1  1.01966274  0.12031176  0.67411204  1
  H+  H14  1  0.96587436  0.34930790  0.65600628  1
  H+  H15  1  0.39256596  0.37516884  0.50000310  1
  H+  H16  1  0.04067480  0.08315573  0.10818234  1
  H+  H17  1  0.11522600  0.64147766  0.68421634  1
  H+  H18  1  0.86955137  0.52941811  0.99900313  1
  H+  H19  1  0.10124187  0.37861820  0.67380047  1
  H+  H20  1  0.87240561  0.24359029  0.32797373  1
  H+  H21  1  0.11671953  0.13186807  0.82460109  1
  H+  H22  1  0.15524436  0.10514648  0.52372314  1
  H+  H23  1  0.54418769  0.25359378  0.61193767  1
  H+  H24  1  0.37951606  0.60994252  0.83822125  1
  H+  H25  1  0.02397608  0.38497954  0.15290549  1
  H+  H26  1  0.03009982  0.14651062  -0.00532279  1
  H+  H27  1  0.48512072  0.86171845  0.17800668  1
  H+  H28  1  0.70847605  0.84586887  0.66432991  1
  H+  H29  1  0.63566674  0.26561795  1.04278586  1
  H+  H30  1  0.14213074  0.11187458  0.98214253  1
  H+  H31  1  0.27546150  0.12842382  0.00368439  1
  H+  H32  1  0.64285926  0.13266370  0.50129842  1
  H+  H33  1  0.43733904  0.09267491  0.16831142  1
  H+  H34  1  0.86716945  0.62755264  0.65175567  1
  H+  H35  1  0.11430074  0.22068324  0.82535523  1
  H+  H36  1  0.14744731  0.62978803  0.84716538  1
  H+  H37  1  0.77584446  0.13912259  0.00729525  1
  H+  H38  1  0.47089593  0.61253841  0.83309916  1
  H+  H39  1  0.52829590  0.40706834  0.49565857  1
  H+  H40  1  1.01767737  0.63236904  1.01675691  1
  H+  H41  1  0.22311259  0.85488219  0.17937902  1
  H+  H42  1  -0.01911414  0.57362097  0.34639957  1
  H+  H43  1  0.40393797  0.15144388  0.64416060  1
  H+  H44  1  0.41678214  0.58422851  0.92171347  1
  H+  H45  1  0.12180189  0.59306410  0.32154917  1
  H+  H46  1  0.11758402  0.11012951  0.32140491  1
  H+  H47  1  0.87477515  0.22222343  0.48612764  1
  H+  H48  1  0.84881042  0.64106175  0.84086347  1
  H+  H49  1  0.85275575  0.95694255  0.68012901  1
  H+  H50  1  0.58295986  0.16972426  0.37457011  1
  H+  H51  1  0.53448781  0.91954004  0.48991527  1
  H+  H52  1  0.44331141  0.63435887  0.51206572  1
  H+  H53  1  0.87096266  0.63298512  0.50111815  1
  H+  H54  1  0.61288165  0.75461782  0.66112269  1
  H+  H55  1  0.31772917  0.97074959  0.85545880  1
  H+  H56  1  0.38253302  0.15999132  0.75949719  1
  H+  H57  1  0.72753199  0.61689108  0.33411508  1
  H+  H58  1  0.59863140  0.72623689  0.81896556  1
  H+  H59  1  0.68055043  0.76593034  0.99346851  1
  H+  H60  1  0.11994666  0.51457405  0.66556532  1
  H+  H61  1  0.38214601  0.53492945  0.31746540  1
  H+  H62  1  0.22811912  0.60656782  0.49052643  1
  H+  H63  1  0.97578782  0.64402903  0.85552940  1
  H+  H64  1  0.88577074  0.36695401  0.98944279  1
  H+  H65  1  0.36796492  0.40489843  0.15357580  1
  H+  H66  1  0.63841316  0.01729057  0.16066415  1
  H+  H67  1  0.28556095  0.62927152  0.01460722  1
  H+  H68  1  0.67728152  0.34752021  0.40113085  1
  H+  H69  1  0.32540902  0.16236370  0.10393470  1
  H+  H70  1  0.11175697  0.94926172  0.82959014  1
  H+  H71  1  0.35911360  0.71826862  0.83372338  1
  H+  H72  1  0.88897575  0.85708952  0.66697045  1
  H+  H73  1  0.63158791  0.86352913  0.00164039  1
  H+  H74  1  0.12976179  0.54534133  0.57188612  1
  H+  H75  1  0.35216033  0.87829452  0.67962346  1
  H+  H76  1  0.13007483  0.76106128  0.99947674  1
  H+  H77  1  0.88416466  0.02864372  0.31299051  1
  H+  H78  1  0.12696402  0.37015960  -0.01740724  1
  H+  H79  1  0.33132148  0.42409858  0.38702082  1
  H+  H80  1  0.63157063  0.51919910  0.18314444  1
  H+  H81  1  0.22318837  0.09099823  0.83424375  1
  H+  H82  1  0.16816431  0.07257200  0.89358978  1
  H+  H83  1  0.02333764  0.39196293  0.31719209  1
  H+  H84  1  0.76841975  0.69646406  0.02318751  1
  H+  H85  1  0.63703494  0.77556474  0.32778336  1
  H+  H86  1  0.47051023  0.84986204  0.84821815  1
  H+  H87  1  1.02895771  0.88765104  1.00744292  1
  H+  H88  1  0.59408538  0.64242785  0.67112226  1
  H+  H89  1  0.55735115  0.14462128  0.20710719  1
  H+  H90  1  0.89000564  0.78288339  1.00284915  1
  H+  H91  1  0.34891278  0.85792120  0.83776333  1
  H+  H92  1  0.90162634  0.52080328  0.65788947  1
  H+  H93  1  0.37634262  0.39150567  -0.00746363  1
  H+  H94  1  0.66343978  0.63106351  0.50015080  1
  H+  H95  1  0.36073605  0.23401170  0.67153258  1
  H+  H96  1  0.48206499  0.13097488  0.64542058  1
  H+  H97  1  0.34839149  0.12904664  0.16539154  1
  H+  H98  1  0.33737603  0.74931768  0.51049265  1
  H+  H99  1  0.34863499  0.48434809  0.14486325  1
  H+  H100  1  0.02329538  0.62564156  0.17438919  1
  H+  H101  1  0.88377446  0.35757454  0.50237246  1
  H+  H102  1  1.09022072  0.91537565  0.09974861  1
  H+  H103  1  0.26257504  0.38585877  0.67451165  1
  H+  H104  1  0.27958003  0.13847205  0.67740386  1
  H+  H105  1  0.62956062  0.09629519  0.66177492  1
  H+  H106  1  0.41271094  0.33823880  0.22626960  1
  H+  H107  1  0.87508654  0.90019086  1.00829718  1
  H+  H108  1  0.72683183  0.86232052  0.17373496  1
  H+  H109  1  0.60837734  0.46157818  0.01164982  1
  H+  H110  1  0.22768674  0.36009598  0.15704570  1
  H+  H111  1  0.64560601  0.52847065  0.49743576  1
  H+  H112  1  0.46254705  0.85010361  0.66162051  1
  H+  H113  1  0.39407152  0.78664669  0.33963162  1
  H+  H114  1  0.91170859  0.11492263  0.49436045  1
  H+  H115  1  0.14015297  1.01325241  0.67493046  1
  H+  H116  1  0.63952418  0.62173667  0.33295970  1
  H+  H117  1  -0.02493909  0.61479530  0.50623024  1
  H+  H118  1  0.51847352  0.12459980  0.02171191  1
  H+  H119  1  0.66131386  0.83497799  0.90188201  1
  H+  H120  1  0.73130831  0.10816791  0.16164784  1
  H+  H121  1  0.13735836  0.78566619  0.33067566  1
  H+  H122  1  0.88783661  0.76360975  0.51606969  1
  H+  H123  1  0.14130368  0.51714294  0.16751416  1
  H+  H124  1  0.46683174  0.65452310  0.17063658  1
  H+  H125  1  0.86593793  0.09776337  0.65633328  1
  H+  H126  1  0.85531164  0.97227697  0.82952789  1
  H+  H127  1  0.13072281  0.27745870  0.98042696  1
  H+  H128  1  0.75908425  0.37997378  1.01538679  1
  H+  H129  1  0.02632701  0.41793517  0.51642288  1
  H+  H130  1  0.34641047  0.71645582  0.67912744  1
  H+  H131  1  0.12226644  0.48390280  0.31851449  1
  H+  H132  1  0.10799458  0.98334478  0.34585936  1
  H+  H133  1  0.88338077  0.60168008  0.18986335  1
  H+  H134  1  0.75224519  0.61941870  0.50016158  1
  H+  H135  1  0.56867209  0.66884315  0.75702491  1
  H+  H136  1  0.25143252  0.82469926  0.82190181  1
  H+  H137  1  0.07812827  0.15710330  0.73325982  1
  H+  H138  1  0.87537480  0.62092366  0.00558815  1
  H+  H139  1  0.56676641  0.65565778  0.51056814  1
  H+  H140  1  0.52678720  0.13651407  0.47860679  1
  H+  H141  1  0.14293015  0.38980986  0.51510487  1
  H+  H142  1  0.08031951  0.89961733  0.73777587  1
  H+  H143  1  0.64746705  0.28813084  0.79768851  1
  H+  H144  1  0.38697335  0.01217126  1.00514689  1
  H+  H145  1  0.86828408  0.14213011  0.15539520  1
  H+  H146  1  0.35628076  0.64355500  0.34551998  1
  H+  H147  1  0.90447706  0.55894698  0.24843482  1
  H+  H148  1  0.15012460  0.07516435  0.26713478  1
  H+  H149  1  0.86872395  0.14205746  0.82376109  1
  H+  H150  1  0.14411506  0.61482547  1.00134510  1
  H+  H151  1  0.37166101  0.35998752  0.83592212  1
  H+  H152  1  1.01564491  0.87202724  0.83101636  1
  H+  H153  1  0.12053291  0.90036971  0.34698357  1
  H+  H154  1  0.88781672  0.27447157  0.16669977  1
  H+  H155  1  0.64716416  0.26376273  0.18267714  1
  H+  H156  1  0.11598949  0.88374454  0.00413769  1
  H+  H157  1  0.56279128  0.14317692  0.82686184  1
  H+  H158  1  0.82411329  0.89976541  0.73969673  1
  H+  H159  1  0.68140291  0.88922583  0.50892168  1
  H+  H160  1  0.38996732  0.61123109  0.99041505  1
  H+  H161  1  0.86141567  0.71805191  0.17008310  1
  H+  H162  1  0.54051870  0.88203424  0.49886343  1
  H+  H163  1  0.66922872  0.59269564  0.72020215  1
  H+  H164  1  0.52305422  0.43197741  0.05135955  1
  H+  H165  1  0.21045320  0.60189037  0.66145769  1
  H+  H166  1  0.57860165  0.90472653  0.09411132  1
  H+  H167  1  0.87493151  0.88948961  0.16427945  1
  H+  H168  1  0.88729793  0.86046413  0.51482663  1
  H+  H169  1  0.73085816  0.37552851  0.49078888  1
  H+  H170  1  0.73850573  0.10015895  0.84595185  1
  H+  H171  1  0.86346560  0.47893698  0.17011479  1
  H+  H172  1  0.36166599  0.21738714  1.00257502  1
  H+  H173  1  0.62981609  0.13218098  0.17461225  1
  H+  H174  1  0.38003025  0.27731588  0.16811707  1
  H+  H175  1  0.04107392  0.12932164  0.48564785  1
  H+  H176  1  0.98280319  0.86253752  0.66577274  1
  H+  H177  1  0.61106285  0.48732995  0.34159253  1
  H+  H178  1  0.35180080  0.62197670  0.10751498  1
  H+  H179  1  0.59736239  0.86809579  0.67111127  1
  H+  H180  1  0.97924308  0.11514410  0.17059983  1
  H+  H181  1  0.14772172  0.80341232  0.93496966  1
  H+  H182  1  0.80318402  0.40995655  -0.04843311  1
  H+  H183  1  0.35194705  0.47518134  0.82714218  1
  H+  H184  1  0.87118357  0.71120890  0.34334802  1
  H+  H185  1  0.27557898  0.39749469  0.48520828  1
  H+  H186  1  0.46644220  0.36932140  0.65521256  1
  H+  H187  1  0.64202318  0.37968796  0.48887183  1
  H+  H188  1  0.63872406  0.67537619  0.02702943  1
  H+  H189  1  0.59453758  0.46609945  0.81469597  1
  H+  H190  1  0.73463232  0.88820184  -0.00766367  1
  H+  H191  1  0.86460912  0.23033391  0.00258663  1
  H+  H192  1  0.64469626  0.86925384  0.32991660  1
  H+  H193  1  0.90215808  0.38952627  0.31432664  1
  H+  H194  1  0.13712879  0.10145056  0.67034983  1
  H+  H195  1  0.37228497  0.89970803  0.34084137  1
  H+  H196  1  0.86626033  0.38684136  0.66870899  1
  H+  H197  1  0.51964569  0.64244227  0.34221753  1
  H+  H198  1  0.61250851  0.22789618  0.47431710  1
  H+  H199  1  0.29734460  0.65135561  0.43511070  1
  H+  H200  1  0.86156007  0.22794903  0.82403482  1
  H+  H201  1  0.60547996  0.96378519  0.82459901  1
  H+  H202  1  0.11149914  0.38110307  0.15032028  1
  H+  H203  1  0.37307434  0.10666921  0.82157568  1
  H+  H204  1  0.61016120  0.20962873  0.66355702  1
  H+  H205  1  0.01621507  0.14911525  0.33279265  1
  H+  H206  1  0.63039249  0.35053349  1.03980184  1
  H+  H207  1  0.97577849  0.10881992  0.83670922  1
  H+  H208  1  0.42928727  0.10386669  0.55071406  1
  H+  H209  1  0.22084796  0.36687423  0.83629853  1
  H+  H210  1  0.97721086  0.37022302  0.99063394  1
  H+  H211  1  0.39516339  0.51766208  -0.01514971  1
  H+  H212  1  0.12800772  0.36390197  0.83465992  1
  H+  H213  1  0.09376556  0.62136065  0.49481094  1
  H+  H214  1  0.73193465  0.17268138  0.53532219  1
  H+  H215  1  0.22851704  0.86208141  0.66507372  1
  H+  H216  1  0.76363091  0.12362966  0.67271157  1
  H+  H217  1  0.52293507  0.37278795  0.17078604  1
  H+  H218  1  0.61267221  0.39903994  0.35171585  1
  H+  H219  1  0.15650606  0.33797262  0.91381379  1
  H+  H220  1  0.86844105  0.48232010  0.49344372  1
  H+  H221  1  0.88715492  0.86503601  0.84666648  1
  H+  H222  1  0.87227980  -0.02056708  0.16510894  1
  H+  H223  1  0.64073740  0.29368055  0.34162025  1
  H+  H224  1  0.88816443  0.36882702  0.83699576  1
  H+  H225  1  0.38614263  0.36894962  0.31902385  1
  H+  H226  1  0.84060057  0.90904368  0.25924093  1
  H+  H227  1  0.22516520  0.86145497  0.50195341  1
  H+  H228  1  0.73532803  0.36439011  0.17347262  1
  H+  H229  1  0.38877722  1.02884674  0.49874663  1
  H+  H230  1  0.76543566  0.88271868  0.83220871  1
  H+  H231  1  0.59946304  0.95814829  0.67034663  1
  H+  H232  1  0.09900663  0.18007191  0.04890284  1
  H+  H233  1  0.46695971  0.34416828  0.97772496  1
  H+  H234  1  0.12789034  -0.02048277  0.50753018  1
  H+  H235  1  0.85539828  0.61407779  0.34782835  1
  H+  H236  1  0.63598091  0.10787734  0.00672892  1
  H+  H237  1  0.52021908  0.15733987  0.32075866  1
  H+  H238  1  0.11627941  0.70852786  0.77464772  1
  H+  H239  1  0.60904533  0.47568178  0.67116454  1
  H+  H240  1  0.13201327  0.27928728  0.31358666  1
  H+  H241  1  0.73079430  0.60985798  0.66477748  1
  H+  H242  1  0.13837764  1.02040632  -0.01107572  1
  H+  H243  1  0.11837041  0.48299372  0.00181126  1
  H+  H244  1  0.79026090  0.88220952  0.50691683  1
  H+  H245  1  0.11678255  0.38444596  0.31387054  1
  H+  H246  1  0.10618463  0.47677658  0.82814924  1
  H+  H247  1  0.58530219  0.63188607  0.16770510  1
  H+  H248  1  0.60358794  0.72739604  0.16297464  1
  H+  H249  1  0.36089079  0.48586134  0.48363372  1
  H+  H250  1  0.11947295  0.73263127  0.67844551  1
  H+  H251  1  0.98775225  0.61528288  0.66205257  1
  H+  H252  1  0.34652284  0.88390823  0.49165737  1
  H+  H253  1  0.41045971  0.60937159  0.26673906  1
  H+  H254  1  0.78708703  0.40247004  0.80965410  1
  H+  H255  1  0.72910858  0.57367175  -0.01067437  1
  H+  H256  1  0.23652925  0.59397524  0.17189984  1
  H+  H257  1  0.73437732  0.11548245  0.31721778  1
  H+  H258  1  0.98223577  0.85846020  0.17243200  1
  H+  H259  1  0.64828785  0.37539448  0.80154841  1
  H+  H260  1  0.64500783  0.74872411  0.49837430  1
  H+  H261  1  0.39423669  0.84429253  0.00586814  1
  H+  H262  1  0.38666375  1.03789283  0.32054258  1
  H+  H263  1  0.11449515  0.87939297  0.67555326  1
  H+  H264  1  0.22523667  0.61299995  0.84431400  1
  H+  H265  1  0.11568360  0.11834819  0.15515245  1
  H+  H266  1  0.60257038  -0.04993093  1.01169662  1
  H+  H267  1  0.34646380  0.60473069  0.50822715  1
  H+  H268  1  0.13454058  0.29947819  0.49989383  1
  H+  H269  1  0.54546521  0.89963490  0.35383545  1
  H+  H270  1  0.61376516  0.88888774  0.15782488  1
  H+  H271  1  0.89764002  1.03476297  -0.00574648  1
  H+  H272  1  0.27460532  0.87285884  0.01094639  1
  H+  H273  1  0.11504151  0.63192965  0.16642756  1
  H+  H274  1  0.37653662  0.71626590  0.01704747  1
  H+  H275  1  0.26829669  0.64321084  0.33921353  1
  H+  H276  1  0.38412510  0.24181251  0.48212087  1
  H+  H277  1  0.63607479  0.35388549  0.17937430  1
  H+  H278  1  0.22517161  0.11080350  0.17405514  1
  H+  H279  1  0.87499077  0.48961357  0.82836613  1
  H+  H280  1  0.45525058  0.35108375  0.83049413  1
  H+  H281  1  0.47739252  0.37372220  0.32242247  1
  H+  H282  1  0.38719109  0.10170675  1.00242499  1
  H+  H283  1  0.98241641  0.85761592  0.33458706  1
  H+  H284  1  0.08773341  0.79853120  0.83366335  1
  H+  H285  1  0.12505279  0.88135324  0.49712922  1
  H+  H286  1  0.62641228  0.85750971  0.84083606  1
  H+  H287  1  0.28075379  0.89549753  0.33733508  1
  H+  H288  1  0.13160759  0.76766293  0.18056717  1
  H+  H289  1  0.35196062  0.47679977  0.67665445  1
  H+  H290  1  0.31878413  0.90006253  0.73940658  1
  H+  H291  1  0.81630250  0.67421836  0.07695223  1
  H+  H292  1  0.40032457  0.58040776  0.60938579  1
  H+  H293  1  0.16576030  0.33313027  0.25078014  1
  H+  H294  1  0.58189002  0.67247722  0.40119565  1
  H+  H295  1  0.41456727  0.76631462  0.19239188  1
  H+  H296  1  0.17405247  0.59113555  0.93941456  1
  H+  H297  1  0.32646920  0.90041751  0.07360435  1
  H+  H298  1  0.66059027  0.58400215  0.23854757  1
  H+  H299  1  0.66540608  0.55156941  0.93464198  1
  H+  H300  1  0.37973192  0.14282960  0.32692095  1
  H+  H301  1  0.76948649  0.63138450  0.17123168  1
  H+  H302  1  0.91940511  0.83602891  0.93997726  1
  H+  H303  1  0.08246421  0.18792855  0.38916863  1
  H+  H304  1  0.89215778  0.85071612  0.32102647  1
  H+  H305  1  0.41670665  0.34458204  0.56175991  1
  H+  H306  1  0.56815051  0.90329513  0.76506249  1
  H+  H307  1  0.67511720  0.07376986  0.25920505  1
  H+  H308  1  0.16444197  0.83772911  0.26871241  1
  H+  H309  1  0.35831075  0.18294378  0.39751650  1
  H+  H310  1  0.08552648  0.41761127  0.05863379  1
  H+  H311  1  0.83296025  0.42886137  0.10624756  1
  H+  H312  1  0.91309721  0.33366458  0.89648367  1
  H+  H313  1  0.06716338  0.64629215  0.43307238  1
  H+  H314  1  0.58793352  0.40612479  0.11588156  1
  H+  H315  1  0.91856475  0.82572962  0.58033735  1
  H+  H316  1  0.86613591  0.71574018  0.65677440  1
  H+  H317  1  0.92818322  0.82843083  0.23436226  1
  H+  H318  1  0.37597688  0.36671039  0.65736871  1
  H+  H319  1  0.31919320  0.41569419  0.76707647  1
  H+  H320  1  0.35907236  0.03924625  0.90836519  1
  H+  H321  1  0.88366456  0.11998332  0.31870735  1
  H+  H322  1  0.16901657  0.58370627  0.25944345  1
  H+  H323  1  0.10817785  0.11987585  0.44401630  1
  H+  H324  1  0.88246716  0.77370565  0.84798606  1
  H+  H325  1  0.83399519  0.02036241  0.61121969  1
  H+  H326  1  0.06998167  0.40798227  0.73273041  1
  H+  H327  1  0.57675407  0.15839630  0.72573793  1
  H+  H328  1  0.15878921  0.32974267  0.60185585  1
  H+  H329  1  0.37957340  0.24041688  0.33170968  1
  H+  H330  1  0.63354408  0.98474790  0.33676960  1
  H+  H331  1  0.32346293  0.66068313  0.77178380  1
  H+  H332  1  0.89396009  0.12227584  -0.00872534  1
  H+  H333  1  0.63218737  0.31712850  0.57929385  1
  H+  H334  1  0.90594490  0.32248507  0.56331110  1
  H+  H335  1  0.16945627  0.83115684  0.60347398  1
  H+  H336  1  0.84440799  0.92810286  0.06766026  1
  H+  H337  1  0.83999656  0.17225779  0.09506954  1
  H+  H338  1  0.92167056  0.34730265  0.25548830  1
  H+  H339  1  0.56620709  0.40956032  0.75433313  1
  H+  H340  1  0.93676918  0.08923235  0.55706446  1
  H+  H341  1  0.34944897  0.42677799  0.05204533  1
  H+  H342  1  0.77512858  0.88235628  0.31233764  1
  H+  H343  1  0.67323337  0.83652784  0.57288380  1
  H+  H344  1  0.88850733  0.36484238  0.16598214  1
  H+  H345  1  0.84897977  0.43596081  0.42908855  1
  H+  H346  1  0.91940040  0.08669759  0.89698778  1
  H+  H347  1  0.47149713  0.61851716  0.66503448  1
  H+  H348  1  0.16685524  0.06342480  0.58472564  1
  H+  H349  1  0.92318116  0.58319284  0.56965361  1
  H+  H350  1  0.48730699  0.84609364  1.00560037  1
  H+  H351  1  0.66465132  0.96440262  0.43090495  1
  H+  H352  1  0.13619780  0.76946749  0.50299087  1
  H+  H353  1  0.66535597  0.83456618  0.23191383  1
  H+  H354  1  0.91333724  0.59435139  0.90943096  1
  H+  H355  1  0.40349789  0.32120048  0.92005554  1
  H+  H356  1  0.43192867  0.84102964  0.27951615  1
  H+  H357  1  0.67398167  0.32637280  0.91272501  1
  H+  H358  1  0.66637106  0.07850486  0.94690095  1
  H+  H359  1  0.32965542  0.92246193  0.43017497  1
  H+  H360  1  0.87676699  0.26005650  0.65624481  1
  H+  H361  1  0.85157038  0.18393688  0.38684975  1
  H+  H362  1  0.09779743  0.92522227  0.43736978  1
  H+  H363  1  0.49959831  0.17277400  0.79614992  1
  H+  H364  1  0.13791204  0.01769637  0.17299799  1
  H+  H365  1  0.34875373  0.62842904  0.67962322  1
  H+  H366  1  0.67163016  0.66758528  0.92067653  1
  H+  H367  1  0.66101121  0.07302128  0.60156639  1
  H+  H368  1  0.02910956  0.53537946  0.38708642  1
  H+  H369  1  0.59198577  0.37841924  0.65894016  1
  H+  H370  1  0.57067431  0.14324037  0.08440017  1
  H+  H371  1  0.71413262  0.01951474  0.88556735  1
  H+  H372  1  0.39803886  0.08178212  0.24988465  1
  H+  H373  1  0.84439028  0.66428902  0.43838706  1
  H+  H374  1  0.91978682  0.09294194  0.22986986  1
  H+  H375  1  0.58015608  0.43503024  0.43175504  1
  H+  H376  1  0.39209592  0.81819618  0.60745941  1
  H+  H377  1  0.42951639  0.83203777  0.51052141  1
  H+  H378  1  0.67885262  0.37044813  0.91445993  1
  H+  H379  1  0.82807201  0.15926111  0.73034646  1
  H+  H380  1  0.01707574  0.38688678  0.82873794  1
  H+  H381  1  0.41799971  0.81656142  0.91158607  1
  H+  H382  1  0.07762885  0.65897835  0.07551622  1
  H+  H383  1  0.85312007  0.42873156  0.72843274  1
  O2-  O384  1  0.07773528  0.13623018  0.13044053  1
  O2-  O385  1  0.10110802  0.16112885  0.46870786  1
  O2-  O386  1  0.08423343  0.16045841  0.81034654  1
  O2-  O387  1  0.08439185  0.41522058  0.13718383  1
  O2-  O388  1  0.08991553  0.45090724  0.50860533  1
  O2-  O389  1  0.07808273  0.41639088  0.81326561  1
  O2-  O390  1  0.08100342  0.65958863  0.15539757  1
  O2-  O391  1  0.07673026  0.66153694  0.47751437  1
  O2-  O392  1  0.14290729  0.72770333  0.81691593  1
  O2-  O393  1  0.08698141  0.91506213  0.14527468  1
  O2-  O394  1  0.09953830  0.91965643  0.48392100  1
  O2-  O395  1  0.07486544  0.88936017  0.81525696  1
  O2-  O396  1  0.32406276  0.16622152  0.14912139  1
  O2-  O397  1  0.35693772  0.18456194  0.46229169  1
  O2-  O398  1  0.41106630  0.16009965  0.79794755  1
  O2-  O399  1  0.33099424  0.42449002  0.13330613  1
  O2-  O400  1  0.33438975  0.42617120  0.46758398  1
  O2-  O401  1  0.31657168  0.41433464  0.81293786  1
  O2-  O402  1  0.34092168  0.59222737  0.14814018  1
  O2-  O403  1  0.28963584  0.64599324  0.48071033  1
  O2-  O404  1  0.32581912  0.65781176  0.81743047  1
  O2-  O405  1  0.32349439  0.90388244  0.15561103  1
  O2-  O406  1  0.32379667  0.92067554  0.47592279  1
  O2-  O407  1  0.30909595  0.87622625  0.82052681  1
  O2-  O408  1  0.59718919  0.16672145  0.17276057  1
  O2-  O409  1  0.58805389  0.16625693  0.46388605  1
  O2-  O410  1  0.56118166  0.17988238  0.79503967  1
  O2-  O411  1  0.58610994  0.40027593  0.16102224  1
  O2-  O412  1  0.58829475  0.43818288  0.47763055  1
  O2-  O413  1  0.56627937  0.40692123  0.80035025  1
  O2-  O414  1  0.56047324  0.66653761  0.15272752  1
  O2-  O415  1  0.61614707  0.68595510  0.48370505  1
  O2-  O416  1  0.56893379  0.66579533  0.80428846  1
  O2-  O417  1  0.58191639  0.91655892  0.14134762  1
  O2-  O418  1  0.69872841  0.98329796  0.46947156  1
  O2-  O419  1  0.56918402  0.90364855  0.81076898  1
  O2-  O420  1  0.83806892  0.17274207  0.14084743  1
  O2-  O421  1  0.86015194  0.16689478  0.46500808  1
  O2-  O422  1  0.83311587  0.16702206  0.80906168  1
  O2-  O423  1  0.83152871  0.41900320  0.15003045  1
  O2-  O424  1  0.83923256  0.42421547  0.47327253  1
  O2-  O425  1  0.85204753  0.43113731  0.81118722  1
  O2-  O426  1  0.82935942  0.65746106  0.15501067  1
  O2-  O427  1  0.84139593  0.66543685  0.48428469  1
  O2-  O428  1  0.82326740  0.67629752  0.82791241  1
  O2-  O429  1  0.84041505  0.91732482  0.15335285  1
  O2-  O430  1  0.85035658  0.90480003  0.49116139  1
  O2-  O431  1  0.82613947  0.91082139  0.81682868  1
  O2-  O432  1  0.16297006  0.07845788  0.18783629  1
  O2-  O433  1  0.16665620  0.06045439  0.53867927  1
  O2-  O434  1  0.16420674  0.06964352  0.84783497  1
  O2-  O435  1  0.16701082  0.32780137  0.17292968  1
  O2-  O436  1  0.17024213  0.35380737  0.52121455  1
  O2-  O437  1  0.15852280  0.33376294  0.85151860  1
  O2-  O438  1  0.17693609  0.57710692  0.18373825  1
  O2-  O439  1  0.12118057  0.54141958  0.52581540  1
  O2-  O440  1  0.16493390  0.58808705  0.86048458  1
  O2-  O441  1  0.16174801  0.82884094  0.19425972  1
  O2-  O442  1  0.16487985  0.82947699  0.51904195  1
  O2-  O443  1  0.08441048  0.74587853  0.85269331  1
  O2-  O444  1  0.38299000  0.06616823  0.18995117  1
  O2-  O445  1  0.42599649  0.09178670  0.50579731  1
  O2-  O446  1  0.32227796  0.02443799  0.87191545  1
  O2-  O447  1  0.41511940  0.33919568  0.18074574  1
  O2-  O448  1  0.42635494  0.34957821  0.51644216  1
  O2-  O449  1  0.39859765  0.32671459  0.85052207  1
  O2-  O450  1  0.41298339  0.65408617  0.18737410  1
  O2-  O451  1  0.38765928  0.58514246  0.52213069  1
  O2-  O452  1  0.41183540  0.58057242  0.85278058  1
  O2-  O453  1  0.42862083  0.82622733  0.19958977  1
  O2-  O454  1  0.37090746  0.80999329  0.52569812  1
  O2-  O455  1  0.41181721  0.81640533  0.86609460  1
  O2-  O456  1  0.67147496  0.07802319  0.17802563  1
  O2-  O457  1  0.68258232  0.11724737  0.52465314  1
  O2-  O458  1  0.68948722  0.05310729  0.86943909  1
  O2-  O459  1  0.67507330  0.32916680  0.19198626  1
  O2-  O460  1  0.66657448  0.34091669  0.49331282  1
  O2-  O461  1  0.68603347  0.35099433  0.79444339  1
  O2-  O462  1  0.65884489  0.58100811  0.19315156  1
  O2-  O463  1  0.68624877  0.59169970  0.51235141  1
  O2-  O464  1  0.66564375  0.63020073  0.88558217  1
  O2-  O465  1  0.66579234  0.83363531  0.18642592  1
  O2-  O466  1  0.68818211  0.84196968  0.52734440  1
  O2-  O467  1  0.65996098  0.83073581  0.85622189  1
  O2-  O468  1  0.91871213  0.08803094  0.18407009  1
  O2-  O469  1  0.94002715  0.08404977  0.51249490  1
  O2-  O470  1  0.91551132  0.08359876  0.85153679  1
  O2-  O471  1  0.92020915  0.33621648  0.18109520  1
  O2-  O472  1  0.91380281  0.32747615  0.51766275  1
  O2-  O473  1  0.91407390  0.33300741  0.85113485  1
  O2-  O474  1  0.91179518  0.56862000  0.20246260  1
  O2-  O475  1  0.91552575  0.58326993  0.52336242  1
  O2-  O476  1  0.91707733  0.59671026  0.86428803  1
  O2-  O477  1  0.92240260  0.82979357  0.18925550  1
  O2-  O478  1  0.91634071  0.82402849  0.53269497  1
  O2-  O479  1  0.91823001  0.83602655  0.86241481  1
  O2-  O480  1  0.14123601  0.07239367  0.31189747  1
  O2-  O481  1  0.17086510  0.07361757  0.65835405  1
  O2-  O482  1  0.17072580  0.07916673  0.97023824  1
  O2-  O483  1  0.16440111  0.33944836  0.29601783  1
  O2-  O484  1  0.15552267  0.32641598  0.64699364  1
  O2-  O485  1  0.15541629  0.33818604  0.96353006  1
  O2-  O486  1  0.16513487  0.57809733  0.30512990  1
  O2-  O487  1  0.14952486  0.57331363  0.64682488  1
  O2-  O488  1  0.17583698  0.58691668  0.98488341  1
  O2-  O489  1  0.16882377  0.84407620  0.31474831  1
  O2-  O490  1  0.16665484  0.83103988  0.64841624  1
  O2-  O491  1  0.15943124  0.81814049  0.97837798  1
  O2-  O492  1  0.41127627  0.09471958  0.30025891  1
  O2-  O493  1  0.44948454  0.14908056  0.61868908  1
  O2-  O494  1  0.41836108  0.07182576  0.98847846  1
  O2-  O495  1  0.41791783  0.33957176  0.30513272  1
  O2-  O496  1  0.40599697  0.33768191  0.63932456  1
  O2-  O497  1  0.40610145  0.31966970  0.96712693  1
  O2-  O498  1  0.41250846  0.59850529  0.31080712  1
  O2-  O499  1  0.40542576  0.58133783  0.65397842  1
  O2-  O500  1  0.42022122  0.58245394  0.96891663  1
  O2-  O501  1  0.42928088  0.84650773  0.32468359  1
  O2-  O502  1  0.39944464  0.81972568  0.65218498  1
  O2-  O503  1  0.42223461  0.81245432  0.99050824  1
  O2-  O504  1  0.67501152  0.07469192  0.30426181  1
  O2-  O505  1  0.66013053  0.06557191  0.64629780  1
  O2-  O506  1  0.67030593  0.08194469  0.99175732  1
  O2-  O507  1  0.67627836  0.35538890  0.35687067  1
  O2-  O508  1  0.60421574  0.30083931  0.61949193  1
  O2-  O509  1  0.66884846  0.32892402  1.05118924  1
  O2-  O510  1  0.66774472  0.58936895  0.31793512  1
  O2-  O511  1  0.66753997  0.58289635  0.67647340  1
  O2-  O512  1  0.68146827  0.52494351  0.96800735  1
  O2-  O513  1  0.66919765  0.83474965  0.31076657  1
  O2-  O514  1  0.65207283  0.82171988  0.64393672  1
  O2-  O515  1  0.67557964  0.84640682  0.97918181  1
  O2-  O516  1  0.91694018  0.09165168  0.30478857  1
  O2-  O517  1  0.88459451  0.05928415  0.63507420  1
  O2-  O518  1  0.92695794  0.09430959  0.97627430  1
  O2-  O519  1  0.92787851  0.35411980  0.30124806  1
  O2-  O520  1  0.90640431  0.31923394  0.63880000  1
  O2-  O521  1  0.91628963  0.33635500  0.97650550  1
  O2-  O522  1  0.89676076  0.54550798  0.32323875  1
  O2-  O523  1  0.93197515  0.58211491  0.64062278  1
  O2-  O524  1  0.90618137  0.59202343  0.99075013  1
  O2-  O525  1  0.92492957  0.82008555  0.31555019  1
  O2-  O526  1  0.92312067  0.83304819  0.64784784  1
  O2-  O527  1  0.92367145  0.84180662  0.98565331  1
  O2-  O528  1  0.09404804  0.18026897  0.00412924  1
  O2-  O529  1  0.07870758  0.18428639  0.34431036  1
  O2-  O530  1  0.07921963  0.15562505  0.68744166  1
  O2-  O531  1  0.08495381  0.41974819  0.01299077  1
  O2-  O532  1  0.08731523  0.41850152  0.32949300  1
  O2-  O533  1  0.06870367  0.40737291  0.68737740  1
  O2-  O534  1  0.07843158  0.65866940  0.03008231  1
  O2-  O535  1  0.04282677  0.58877922  0.36617187  1
  O2-  O536  1  0.09118185  0.67645793  0.70131496  1
  O2-  O537  1  0.09075608  0.91815138  0.02050470  1
  O2-  O538  1  0.08703912  0.92472085  0.36605888  1
  O2-  O539  1  0.08322072  0.90836528  0.69256557  1
  O2-  O540  1  0.33381346  0.15946316  0.02213616  1
  O2-  O541  1  0.35494018  0.18063072  0.34901647  1
  O2-  O542  1  0.34221027  0.17443443  0.68584690  1
  O2-  O543  1  0.35822685  0.43296038  0.00738208  1
  O2-  O544  1  0.33320702  0.42544062  0.34150336  1
  O2-  O545  1  0.32233033  0.41521301  0.69083532  1
  O2-  O546  1  0.34582093  0.65230502  0.02862805  1
  O2-  O547  1  0.32390624  0.67137018  0.36150452  1
  O2-  O548  1  0.31447264  0.65551098  0.69400850  1
  O2-  O549  1  0.33313295  0.90239903  0.02848043  1
  O2-  O550  1  0.33988654  0.92905746  0.35396683  1
  O2-  O551  1  0.32022383  0.90662389  0.69457037  1
  O2-  O552  1  0.57786675  0.15406765  0.04033216  1
  O2-  O553  1  0.58176443  0.19021953  0.33312267  1
  O2-  O554  1  0.58307998  0.15102540  0.68081744  1
  O2-  O555  1  0.56340331  0.41352874  0.03869644  1
  O2-  O556  1  0.57642577  0.42691409  0.35755716  1
  O2-  O557  1  0.56934124  0.41272822  0.67936919  1
  O2-  O558  1  0.68531449  0.71108416  -0.00078459  1
  O2-  O559  1  0.58051782  0.66964179  0.35626815  1
  O2-  O560  1  0.56410096  0.67259626  0.68453151  1
  O2-  O561  1  0.57726670  0.89077079  0.02656116  1
  O2-  O562  1  0.60834531  0.92819821  0.36050306  1
  O2-  O563  1  0.56649355  0.89844256  0.68661310  1
  O2-  O564  1  0.83876056  0.17043132  0.01849208  1
  O2-  O565  1  0.84500545  0.18297596  0.34184854  1
  O2-  O566  1  0.82590568  0.15452178  0.68482508  1
  O2-  O567  1  0.81752296  0.41523016  -0.00510809  1
  O2-  O568  1  0.85605049  0.45360450  0.34356019  1
  O2-  O569  1  0.84863336  0.42774033  0.68347031  1
  O2-  O570  1  0.81326502  0.67995807  0.03177432  1
  O2-  O571  1  0.83446820  0.65337851  0.36219380  1
  O2-  O572  1  0.82987020  0.65375130  0.64868427  1
  O2-  O573  1  0.84814016  0.93419282  0.02279497  1
  O2-  O574  1  0.83894581  0.91345480  0.30358478  1
  O2-  O575  1  0.82511058  0.89677908  0.69399609  1
