# generated using pymatgen
data_H2O
_symmetry_space_group_name_H-M   'P 1'
_cell_length_a   17.98688385
_cell_length_b   17.98787490
_cell_length_c   21.99677242
_cell_angle_alpha   90.00896713
_cell_angle_beta   90.00557653
_cell_angle_gamma   120.00472757
_symmetry_Int_Tables_number   1
_chemical_formula_structural   H2O
_chemical_formula_sum   'H384 O192'
_cell_volume   6163.17751566
_cell_formula_units_Z   192
loop_
 _symmetry_equiv_pos_site_id
 _symmetry_equiv_pos_as_xyz
  1  'x, y, z'
loop_
 _atom_type_symbol
 _atom_type_oxidation_number
  H+  1.0
  O2-  -2.0
loop_
 _atom_site_type_symbol
 _atom_site_label
 _atom_site_symmetry_multiplicity
 _atom_site_fract_x
 _atom_site_fract_y
 _atom_site_fract_z
 _atom_site_occupancy
  H+  H0  1  0.36348511  0.13484336  0.16724069  1
  H+  H1  1  0.36215780  0.37624453  0.48039708  1
  H+  H2  1  0.38026133  0.01654936  0.99382897  1
  H+  H3  1  0.14766117  0.27385100  0.17249604  1
  H+  H4  1  0.38427549  0.12042934  0.64329649  1
  H+  H5  1  0.23831234  0.11874334  0.18041677  1
  H+  H6  1  0.21961884  0.60604688  0.65634829  1
  H+  H7  1  0.98452793  0.86649198  0.17696767  1
  H+  H8  1  0.00097241  0.45532735  0.85037182  1
  H+  H9  1  0.49183594  0.63388130  0.65970908  1
  H+  H10  1  0.47568158  0.86523893  0.83537186  1
  H+  H11  1  0.86122858  0.88078144  0.67314507  1
  H+  H12  1  0.12482398  0.34454717  0.32057688  1
  H+  H13  1  0.61905960  0.38714176  0.66999757  1
  H+  H14  1  0.88441796  0.85308230  0.98916769  1
  H+  H15  1  0.32192921  0.14598609  0.41521017  1
  H+  H16  1  0.40580818  0.62461356  0.17256942  1
  H+  H17  1  0.74030726  0.12651111  0.68649926  1
  H+  H18  1  0.39617316  0.62260162  0.66127587  1
  H+  H19  1  1.00819016  0.13069970  0.81989366  1
  H+  H20  1  0.78549230  0.63854441  0.82883525  1
  H+  H21  1  0.88740357  0.61039982  0.32187268  1
  H+  H22  1  0.36781829  0.88222951  0.01313115  1
  H+  H23  1  0.62743673  0.63586934  0.82407440  1
  H+  H24  1  0.12981466  1.02145009  0.32607740  1
  H+  H25  1  0.23169842  0.30696918  0.77220137  1
  H+  H26  1  0.60930926  0.23088266  0.81966938  1
  H+  H27  1  0.86454549  0.47709190  0.81747733  1
  H+  H28  1  0.65613649  0.03654661  0.97106500  1
  H+  H29  1  0.51127809  0.12248082  0.33894891  1
  H+  H30  1  0.12196189  -0.01845000  0.82306601  1
  H+  H31  1  0.12829423  -0.02690189  0.17009469  1
  H+  H32  1  0.64625511  0.11330600  1.08543807  1
  H+  H33  1  0.76989752  0.63278884  0.67266044  1
  H+  H34  1  0.09237157  0.66862170  0.72210654  1
  H+  H35  1  0.85993798  0.12371942  1.02195263  1
  H+  H36  1  0.74001650  0.12236664  0.98993338  1
  H+  H37  1  0.36893517  0.22727227  0.16505862  1
  H+  H38  1  0.41476466  0.51696180  0.82875427  1
  H+  H39  1  0.88409946  0.01262958  1.08007845  1
  H+  H40  1  0.71741916  0.60415620  0.50871139  1
  H+  H41  1  0.27671836  0.87819178  0.16547718  1
  H+  H42  1  0.26547786  0.13488025  0.64935482  1
  H+  H43  1  0.89248054  0.36564091  0.33470021  1
  H+  H44  1  0.13478202  0.77863129  0.65832333  1
  H+  H45  1  0.13918451  0.76699607  0.98350222  1
  H+  H46  1  0.14931593  0.82451734  0.35388928  1
  H+  H47  1  0.60437698  0.97828801  0.82434819  1
  H+  H48  1  0.39671042  0.64489523  0.50159414  1
  H+  H49  1  0.74761436  0.16918425  0.67573228  1
  H+  H50  1  0.42616489  0.59265744  0.26521923  1
  H+  H51  1  0.17596172  0.58116177  0.89861629  1
  H+  H52  1  0.10896638  0.24795126  0.85795788  1
  H+  H53  1  0.76914586  0.38425245  0.66266174  1
  H+  H54  1  0.88879537  0.02060424  0.66306001  1
  H+  H55  1  0.38264843  0.86803761  0.49846089  1
  H+  H56  1  0.89857127  0.77469783  0.84088906  1
  H+  H57  1  0.58986325  0.20925333  0.14600718  1
  H+  H58  1  0.59517195  0.12937914  0.66286867  1
  H+  H59  1  0.90427175  0.24322004  0.67380897  1
  H+  H60  1  0.97251655  0.85700731  0.66631342  1
  H+  H61  1  0.22981567  0.12529444  0.83232411  1
  H+  H62  1  0.15541781  0.06950394  0.60438556  1
  H+  H63  1  0.84858220  0.71427803  0.50293700  1
  H+  H64  1  0.63600520  0.76775280  0.32971781  1
  H+  H65  1  0.38513939  0.10388794  0.33912549  1
  H+  H66  1  -0.02900204  0.85387626  0.50929311  1
  H+  H67  1  -0.01836808  0.36338569  0.33097951  1
  H+  H68  1  0.13136372  0.10281834  0.66640016  1
  H+  H69  1  0.26783463  0.12169668  0.49914749  1
  H+  H70  1  0.62296128  0.48629229  0.16508837  1
  H+  H71  1  0.33352073  0.91159425  0.06986202  1
  H+  H72  1  0.10327452  0.21484842  0.34617898  1
  H+  H73  1  0.65081914  0.52443353  0.84167323  1
  H+  H74  1  0.65401833  0.57293424  0.56559821  1
  H+  H75  1  0.64122269  0.36736549  0.83686552  1
  H+  H76  1  0.83195099  0.16234777  0.43968137  1
  H+  H77  1  0.85291521  0.34330066  0.84566749  1
  H+  H78  1  0.22256579  0.87124160  0.66006174  1
  H+  H79  1  0.28336471  0.87295628  0.34107549  1
  H+  H80  1  0.39756887  0.86472189  0.32863027  1
  H+  H81  1  0.63939681  0.85832458  0.65708810  1
  H+  H82  1  0.38922332  0.26494926  0.50600393  1
  H+  H83  1  0.17464437  0.09788199  0.77095392  1
  H+  H84  1  0.29081864  0.63188546  0.83334761  1
  H+  H85  1  0.12864491  0.61964396  0.49531962  1
  H+  H86  1  0.52927135  0.38251677  0.31816437  1
  H+  H87  1  0.39486998  0.76763276  1.00565197  1
  H+  H88  1  0.85172024  0.62798300  0.50316781  1
  H+  H89  1  0.52820911  0.88425450  0.67255840  1
  H+  H90  1  0.11932490  0.37682054  0.83003671  1
  H+  H91  1  0.82902537  0.90220593  0.76496834  1
  H+  H92  1  0.88400435  0.27165932  0.50285370  1
  H+  H93  1  0.86791024  0.48383303  1.01043877  1
  H+  H94  1  0.10994907  0.40190148  0.65946907  1
  H+  H95  1  0.80578564  0.28392033  0.21628220  1
  H+  H96  1  0.60779670  0.62739587  0.00986786  1
  H+  H97  1  0.35433083  0.62530883  1.01464931  1
  H+  H98  1  0.37951691  0.02217083  0.17694136  1
  H+  H99  1  0.86822964  0.88281168  0.82509403  1
  H+  H100  1  0.63938463  0.81512039  -0.05658022  1
  H+  H101  1  0.23355798  0.85328769  -0.00564152  1
  H+  H102  1  0.53639424  0.39192191  0.83075089  1
  H+  H103  1  0.13245574  0.63166498  0.81421586  1
  H+  H104  1  0.87219893  0.99547982  0.01111496  1
  H+  H105  1  0.77384388  0.38337839  0.35218613  1
  H+  H106  1  0.13820551  0.11191093  0.51028255  1
  H+  H107  1  0.13571309  0.11160561  0.01196557  1
  H+  H108  1  0.78356547  0.87060543  -0.06090898  1
  H+  H109  1  0.02147887  0.39076142  0.01248821  1
  H+  H110  1  0.76635653  0.87198581  0.48957800  1
  H+  H111  1  0.13476024  0.52432964  0.99697404  1
  H+  H112  1  0.57388445  0.15008593  0.04479960  1
  H+  H113  1  0.39328035  0.61864834  0.32542772  1
  H+  H114  1  0.34167572  0.45231608  0.03749741  1
  H+  H115  1  0.63697863  0.61105545  0.66157415  1
  H+  H116  1  0.87908977  0.64707618  0.16200074  1
  H+  H117  1  0.73952905  0.38416527  0.17392391  1
  H+  H118  1  0.60811345  0.63169919  0.49129949  1
  H+  H119  1  0.26815432  0.88632078  0.49230688  1
  H+  H120  1  0.64097135  0.52501278  0.99802151  1
  H+  H121  1  0.77252751  0.14030063  0.34399317  1
  H+  H122  1  0.91218889  0.12088064  0.66681703  1
  H+  H123  1  0.35836854  0.23493126  0.85438976  1
  H+  H124  1  0.89415977  0.77992907  0.17374394  1
  H+  H125  1  0.82550299  0.90242644  0.40282466  1
  H+  H126  1  0.13247201  0.01895066  0.50817414  1
  H+  H127  1  0.77866045  0.39212654  0.00834344  1
  H+  H128  1  0.33000261  0.92103571  0.72801614  1
  H+  H129  1  0.35663952  0.12923526  0.00934065  1
  H+  H130  1  0.86495359  0.63014421  0.01234480  1
  H+  H131  1  1.01579426  0.12830838  0.35612904  1
  H+  H132  1  0.26975538  0.63465591  0.00808699  1
  H+  H133  1  0.36585038  0.47898780  0.32468343  1
  H+  H134  1  0.85408539  0.86951927  0.49074418  1
  H+  H135  1  0.08796739  0.16663488  0.44293223  1
  H+  H136  1  0.88277307  0.31719612  0.90706618  1
  H+  H137  1  0.26355882  0.64248445  0.48376609  1
  H+  H138  1  0.10701526  0.38463713  0.01735104  1
  H+  H139  1  0.35474496  0.85428913  0.81957400  1
  H+  H140  1  0.65557390  0.31533064  0.41719398  1
  H+  H141  1  0.28574908  0.63744870  0.16362922  1
  H+  H142  1  1.00376799  0.89424496  0.33628515  1
  H+  H143  1  0.52779468  0.92346911  0.02918784  1
  H+  H144  1  0.46628810  0.10700335  0.98565987  1
  H+  H145  1  0.38677173  1.01538730  0.33389662  1
  H+  H146  1  0.90383671  0.12123351  0.18170832  1
  H+  H147  1  0.13432948  0.77016161  0.51102878  1
  H+  H148  1  0.35205909  0.73308407  0.48737494  1
  H+  H149  1  0.49676758  0.37418024  0.18507600  1
  H+  H150  1  0.91678653  0.58666224  0.59913490  1
  H+  H151  1  0.85992453  0.63339546  0.67171568  1
  H+  H152  1  0.38238577  0.74791182  0.65889644  1
  H+  H153  1  0.10474512  0.41310266  0.76659168  1
  H+  H154  1  0.63533184  0.02115728  0.33159053  1
  H+  H155  1  0.58379183  0.83027231  0.99465838  1
  H+  H156  1  0.62483734  0.39873075  0.16695615  1
  H+  H157  1  0.52930959  0.88542237  0.33684257  1
  H+  H158  1  0.64892205  0.85430816  0.18153477  1
  H+  H159  1  0.10929121  0.47666668  0.48954310  1
  H+  H160  1  0.40597158  0.76247093  0.68858773  1
  H+  H161  1  0.88262735  0.36185257  0.65111323  1
  H+  H162  1  0.61278089  0.96779964  0.67091051  1
  H+  H163  1  1.00071840  0.62627894  0.99354516  1
  H+  H164  1  0.60780635  0.47694251  0.49135915  1
  H+  H165  1  0.86342669  0.39341993  0.16075755  1
  H+  H166  1  0.84297986  0.67151867  0.10349887  1
  H+  H167  1  0.14649232  0.75157139  0.18380252  1
  H+  H168  1  0.10244574  0.51652541  0.17605969  1
  H+  H169  1  0.88518077  0.52479363  0.65732112  1
  H+  H170  1  0.62424568  0.72944000  0.67129476  1
  H+  H171  1  0.12160103  0.88056317  0.16698259  1
  H+  H172  1  0.84262909  0.21438995  0.82959057  1
  H+  H173  1  0.09475725  0.43504158  0.10164900  1
  H+  H174  1  0.54035980  0.64302330  0.82189926  1
  H+  H175  1  0.29625281  0.37872710  0.08855623  1
  H+  H176  1  0.77145415  0.39160301  0.82089199  1
  H+  H177  1  0.02405297  0.64115710  0.66659479  1
  H+  H178  1  0.90289400  0.62457390  0.82734723  1
  H+  H179  1  0.01522715  0.11466577  0.03476503  1
  H+  H180  1  0.72832620  0.36682945  0.49482844  1
  H+  H181  1  0.10398735  0.48759921  0.65690441  1
  H+  H182  1  0.12477973  0.22876786  0.50128390  1
  H+  H183  1  0.86926398  0.72246989  1.00990909  1
  H+  H184  1  0.12726208  1.00985041  0.01336985  1
  H+  H185  1  0.21934070  0.34115718  0.77434196  1
  H+  H186  1  0.61022867  0.96799575  0.49003376  1
  H+  H187  1  0.10237361  0.13550419  0.82507647  1
  H+  H188  1  0.72572424  0.85782141  0.33259034  1
  H+  H189  1  0.65624828  0.75988946  0.85478172  1
  H+  H190  1  0.87521095  0.10422675  0.81494594  1
  H+  H191  1  0.27846108  0.63977160  0.33375608  1
  H+  H192  1  0.49232352  0.62133093  0.17710250  1
  H+  H193  1  0.15671941  0.57665885  0.27068913  1
  H+  H194  1  0.54097948  -0.00097553  0.62299516  1
  H+  H195  1  0.60720226  0.21793989  0.35662823  1
  H+  H196  1  0.85985139  0.47441749  0.33731226  1
  H+  H197  1  0.73614156  0.85281823  0.84982684  1
  H+  H198  1  0.74096055  0.61776498  0.17683398  1
  H+  H199  1  0.98233418  0.12828510  0.51226812  1
  H+  H200  1  0.98135513  0.62158955  0.50769551  1
  H+  H201  1  0.89748333  0.52958511  0.16834271  1
  H+  H202  1  0.63255673  0.26808169  0.64743945  1
  H+  H203  1  0.59209275  0.70853362  0.01145090  1
  H+  H204  1  0.90064515  1.03104407  0.18351813  1
  H+  H205  1  0.52520482  0.38972255  1.01501024  1
  H+  H206  1  0.23669485  0.86329114  0.84063462  1
  H+  H207  1  0.14583973  0.36528116  0.50505916  1
  H+  H208  1  0.35335148  0.14338887  0.85065080  1
  H+  H209  1  0.73063384  0.10999164  0.50330880  1
  H+  H210  1  0.09048800  0.89340672  0.32746720  1
  H+  H211  1  0.99465416  0.47564075  0.87817613  1
  H+  H212  1  0.61019591  0.12429856  0.33511564  1
  H+  H213  1  0.83981397  0.42435769  0.09785000  1
  H+  H214  1  0.63481179  0.76653520  0.50281236  1
  H+  H215  1  0.72967760  0.61435857  -0.00089207  1
  H+  H216  1  0.40093115  0.90693242  0.64861603  1
  H+  H217  1  0.41994378  0.38820409  0.84717797  1
  H+  H218  1  0.13312646  0.73375490  0.33604772  1
  H+  H219  1  0.87700979  0.86520317  0.32891542  1
  H+  H220  1  0.20646843  0.34330412  1.01610247  1
  H+  H221  1  0.22883574  0.11101552  0.00845453  1
  H+  H222  1  0.38027783  0.35619787  0.01103397  1
  H+  H223  1  0.63797867  0.28001818  0.98860521  1
  H+  H224  1  0.04761387  0.63785806  0.81077716  1
  H+  H225  1  0.88331874  0.76761430  0.66322059  1
  H+  H226  1  0.38777564  0.27326692  1.00182883  1
  H+  H227  1  0.11745906  0.46854967  0.33975927  1
  H+  H228  1  0.37493795  0.50489817  0.66857092  1
  H+  H229  1  0.37473350  0.40046983  0.30525476  1
  H+  H230  1  0.15219587  0.88250442  0.84636070  1
  H+  H231  1  0.15790504  0.52167378  0.83944913  1
  H+  H232  1  0.77813951  0.63263277  0.33315301  1
  H+  H233  1  0.02411445  0.89628507  0.01382723  1
  H+  H234  1  0.11156583  0.88183764  0.49290784  1
  H+  H235  1  0.13461225  0.59723273  0.33444406  1
  H+  H236  1  0.36056860  0.11929290  0.49696444  1
  H+  H237  1  0.65626575  0.00255555  0.18747895  1
  H+  H238  1  0.17504841  0.35066690  0.60193087  1
  H+  H239  1  0.39360243  0.77880591  0.17370069  1
  H+  H240  1  1.01080867  0.61006335  0.34133543  1
  H+  H241  1  0.59487641  0.16114064  0.13354482  1
  H+  H242  1  0.10747684  0.88218414  0.67700522  1
  H+  H243  1  0.61445620  0.47051502  0.33239565  1
  H+  H244  1  0.87815016  0.90171384  0.16032339  1
  H+  H245  1  0.23381894  0.36381700  0.50023100  1
  H+  H246  1  0.23054776  0.10572414  0.33285969  1
  H+  H247  1  0.63801547  0.52159513  0.66262123  1
  H+  H248  1  0.39794775  0.28978560  0.65929890  1
  H+  H249  1  0.52667825  0.63496898  0.33708813  1
  H+  H250  1  0.39374675  0.77065578  0.83644608  1
  H+  H251  1  0.77261749  0.88158227  0.67087283  1
  H+  H252  1  0.10671313  -0.02982154  0.67917450  1
  H+  H253  1  0.13098473  0.61129403  -0.00956970  1
  H+  H254  1  0.02349889  0.38487857  0.49223399  1
  H+  H255  1  0.26926618  0.80425739  0.77964219  1
  H+  H256  1  0.97732125  0.37418766  0.64871014  1
  H+  H257  1  0.86379922  0.22769763  0.34483268  1
  H+  H258  1  0.41710051  1.08109892  0.59224709  1
  H+  H259  1  0.61871978  0.88568246  0.33852052  1
  H+  H260  1  0.35437820  0.20907654  0.35868272  1
  H+  H261  1  0.46659685  0.59247225  1.01434414  1
  H+  H262  1  0.58077368  0.90930380  0.43107103  1
  H+  H263  1  0.37003024  0.88902038  0.16361303  1
  H+  H264  1  0.87992110  0.10740718  0.33592354  1
  H+  H265  1  0.85420752  0.96871270  0.34496216  1
  H+  H266  1  0.53131497  0.38944584  0.67385909  1
  H+  H267  1  0.02503707  0.12037964  0.67480757  1
  H+  H268  1  0.51629354  0.14352067  0.66561870  1
  H+  H269  1  0.63061960  0.85353295  0.50415519  1
  H+  H270  1  0.86466972  0.72339093  0.33129720  1
  H+  H271  1  0.86032002  0.22064037  0.16817060  1
  H+  H272  1  0.18249490  0.84483431  0.91475549  1
  H+  H273  1  0.62580487  0.11876931  0.82671039  1
  H+  H274  1  0.28977631  0.54044928  0.70483643  1
  H+  H275  1  0.33046964  0.18566421  0.59714979  1
  H+  H276  1  0.46420095  0.11800090  0.83412341  1
  H+  H277  1  0.88982343  0.27671050  0.00180681  1
  H+  H278  1  0.13713039  0.41705516  0.15967742  1
  H+  H279  1  0.32932098  0.42067141  0.82148639  1
  H+  H280  1  0.63671876  0.60574204  0.32832315  1
  H+  H281  1  0.58579734  0.89229466  0.11339056  1
  H+  H282  1  0.87899320  0.01518281  0.81738822  1
  H+  H283  1  0.35823578  -0.00859574  0.67252310  1
  H+  H284  1  1.03539462  0.13665606  0.17851693  1
  H+  H285  1  0.38000660  0.29067823  0.27282736  1
  H+  H286  1  0.86467412  0.38644116  0.49485340  1
  H+  H287  1  0.52622727  0.87413352  0.17071651  1
  H+  H288  1  0.66160118  0.32593908  0.58719671  1
  H+  H289  1  0.78927844  0.89943541  0.16477998  1
  H+  H290  1  0.98737979  0.86414445  0.84321200  1
  H+  H291  1  0.33323644  0.40153529  0.41915442  1
  H+  H292  1  0.58911739  0.42116657  0.07167636  1
  H+  H293  1  0.57611324  0.41869816  0.43026028  1
  H+  H294  1  0.07725861  0.91225903  0.43544452  1
  H+  H295  1  0.83324762  0.16454228  0.07314096  1
  H+  H296  1  0.76076232  0.12875061  0.81089037  1
  H+  H297  1  0.91528785  0.33344523  0.56102307  1
  H+  H298  1  0.08466741  0.41034750  0.39972540  1
  H+  H299  1  0.68198852  0.82845295  0.23977717  1
  H+  H300  1  0.47008578  0.86293302  0.49913653  1
  H+  H301  1  0.57663790  0.17261846  0.75915785  1
  H+  H302  1  0.40672896  0.07894295  0.89285573  1
  H+  H303  1  0.87423203  0.18698377  0.73487949  1
  H+  H304  1  0.62615774  0.34625164  0.35819971  1
  H+  H305  1  0.88736742  0.36514168  1.00180570  1
  H+  H306  1  0.43479919  0.35020341  0.90950769  1
  H+  H307  1  0.91631359  0.08150259  0.27843478  1
  H+  H308  1  0.52804856  0.65046505  0.48883417  1
  H+  H309  1  0.64580425  0.07987919  0.16949314  1
  H+  H310  1  0.39234263  0.77303891  0.32530007  1
  H+  H311  1  0.12589353  0.62294083  0.12471393  1
  H+  H312  1  0.16714220  0.81013313  0.24132780  1
  H+  H313  1  0.84228914  0.42318620  0.43612835  1
  H+  H314  1  0.59738918  0.67255820  0.73277599  1
  H+  H315  1  0.47662658  0.35554497  0.50335829  1
  H+  H316  1  0.66761120  0.82842468  0.59633250  1
  H+  H317  1  0.64038056  0.36950011  0.99390583  1
  H+  H318  1  0.92609278  0.09707593  0.93146937  1
  H+  H319  1  0.40793712  0.07948049  0.23672649  1
  H+  H320  1  0.14191243  0.31013592  0.95840027  1
  H+  H321  1  0.08490969  0.92163480  0.07483110  1
  H+  H322  1  0.67030961  0.57955397  0.26908601  1
  H+  H323  1  0.16367428  0.59295398  0.55297011  1
  H+  H324  1  0.39554436  0.54180179  0.96384211  1
  H+  H325  1  0.45677956  0.61370211  0.88730670  1
  H+  H326  1  0.52142792  0.17491558  0.50544353  1
  H+  H327  1  0.88203122  0.56434931  0.94715294  1
  H+  H328  1  0.43587762  0.62704672  0.56258981  1
  H+  H329  1  0.58637184  0.66288591  0.39687445  1
  H+  H330  1  0.67146106  0.33689367  0.89556443  1
  H+  H331  1  0.43276190  0.34797049  0.60262486  1
  H+  H332  1  0.19936149  0.32788154  0.87416452  1
  H+  H333  1  0.06185789  0.70871156  0.44907016  1
  H+  H334  1  0.91388057  0.82824881  0.56952530  1
  H+  H335  1  0.63849879  0.36845427  0.49359101  1
  H+  H336  1  0.91374762  0.84122586  0.26822296  1
  H+  H337  1  0.09062326  0.15856310  0.11729495  1
  H+  H338  1  0.92114041  0.09303757  0.56985368  1
  H+  H339  1  0.86611178  0.13935731  0.50154218  1
  H+  H340  1  0.08801765  0.91072815  0.77202739  1
  H+  H341  1  0.62953984  0.06033815  0.58828819  1
  H+  H342  1  0.33309683  0.16177903  0.07128405  1
  H+  H343  1  0.83748134  0.66836858  0.76582157  1
  H+  H344  1  0.59151453  0.41863928  0.76777826  1
  H+  H345  1  0.65176194  0.61841832  0.17580837  1
  H+  H346  1  0.95272765  0.60738011  0.88010722  1
  H+  H347  1  0.31610414  0.62534787  0.74299410  1
  H+  H348  1  0.17867552  0.08360260  0.26028325  1
  H+  H349  1  0.08283703  0.16144715  0.73413177  1
  H+  H350  1  0.20991033  0.34362600  0.30795982  1
  H+  H351  1  0.06703710  0.67237439  0.04820997  1
  H+  H352  1  0.66851264  0.10055947  0.88422418  1
  H+  H353  1  0.89315396  0.52811486  0.50900443  1
  H+  H354  1  0.89621315  0.32363741  0.24601349  1
  H+  H355  1  0.42378135  0.83582856  0.23473091  1
  H+  H356  1  0.59367159  0.66514114  0.10630078  1
  H+  H357  1  0.65247424  0.29646602  0.18215281  1
  H+  H358  1  0.67770107  0.58396812  0.90151563  1
  H+  H359  1  0.92970480  0.83200880  0.93662930  1
  H+  H360  1  0.66747398  0.07772539  0.27096501  1
  H+  H361  1  0.14304765  0.62836563  0.64888073  1
  H+  H362  1  0.61163693  0.14208876  0.98382183  1
  H+  H363  1  0.14494797  0.11432462  0.18392351  1
  H+  H364  1  0.58259430  0.91245583  0.77072465  1
  H+  H365  1  0.33564823  0.91303099  0.40247285  1
  H+  H366  1  0.38512132  0.63782231  0.82632589  1
  H+  H367  1  0.63263211  0.72849077  0.16467892  1
  H+  H368  1  0.82630870  0.41309547  0.72378806  1
  H+  H369  1  0.22673044  0.39164311  0.66272885  1
  H+  H370  1  0.99121009  0.60909420  0.17476820  1
  H+  H371  1  0.92048257  0.57852247  0.26510539  1
  H+  H372  1  0.33350389  0.66874875  0.09995769  1
  H+  H373  1  0.16626742  0.83805829  0.56690207  1
  H+  H374  1  0.75072317  0.86270584  0.00346881  1
  H+  H375  1  0.35813915  0.45328100  0.73065190  1
  H+  H376  1  0.42884181  0.87408506  0.58856603  1
  H+  H377  1  0.96797250  0.09770031  0.93301036  1
  H+  H378  1  0.33379540  0.67312330  0.39463693  1
  H+  H379  1  0.64038080  0.10648835  0.49384230  1
  H+  H380  1  0.35839271  0.97779889  0.49080023  1
  H+  H381  1  0.06698242  0.63403301  0.40407158  1
  H+  H382  1  0.78295018  0.12483143  0.16798912  1
  H+  H383  1  0.09820965  0.21119207  0.02623362  1
  O2-  O384  1  0.09611337  0.16332553  0.16273567  1
  O2-  O385  1  0.09292896  0.16687132  0.48891411  1
  O2-  O386  1  0.07409945  0.16999387  0.81749405  1
  O2-  O387  1  0.10463481  0.44489812  0.14658861  1
  O2-  O388  1  0.08418449  0.41537827  0.47720066  1
  O2-  O389  1  0.11511093  0.42387544  0.81028907  1
  O2-  O390  1  0.10647303  0.63341330  0.16384092  1
  O2-  O391  1  0.07241220  0.67494286  0.47869953  1
  O2-  O392  1  0.10704915  0.66432881  0.79547032  1
  O2-  O393  1  0.09468110  0.91408964  0.15318401  1
  O2-  O394  1  0.07965174  0.91196577  0.48023211  1
  O2-  O395  1  0.09417904  0.91751772  0.81765670  1
  O2-  O396  1  0.33388998  0.16705600  0.15104996  1
  O2-  O397  1  0.32836520  0.15184075  0.48278891  1
  O2-  O398  1  0.31848838  0.17233279  0.85761864  1
  O2-  O399  1  0.26400323  0.36019973  0.15843554  1
  O2-  O400  1  0.32944417  0.40234389  0.46383129  1
  O2-  O401  1  0.39036425  0.45108940  0.81238449  1
  O2-  O402  1  0.34169374  0.67486063  0.14545906  1
  O2-  O403  1  0.32460737  0.67428423  0.46922218  1
  O2-  O404  1  0.34760124  0.66289988  0.81240233  1
  O2-  O405  1  0.33502454  0.91432578  0.14830220  1
  O2-  O406  1  0.32766928  0.91655694  0.47453186  1
  O2-  O407  1  0.30525398  0.86099312  0.79778498  1
  O2-  O408  1  0.59748225  0.09606876  0.11228000  1
  O2-  O409  1  0.49351916  0.11747696  0.48749749  1
  O2-  O410  1  0.57504686  0.17058796  0.80458301  1
  O2-  O411  1  0.58973675  0.42447342  0.15159105  1
  O2-  O412  1  0.57930170  0.41575203  0.47500501  1
  O2-  O413  1  0.59600949  0.42193107  0.81330862  1
  O2-  O414  1  0.59935382  0.66702134  0.15145544  1
  O2-  O415  1  0.58762184  0.66846528  0.47202526  1
  O2-  O416  1  0.60398588  0.67208345  0.80894724  1
  O2-  O417  1  0.58813690  0.89769440  0.15754670  1
  O2-  O418  1  0.57627911  0.90709863  0.47645911  1
  O2-  O419  1  0.57610114  0.91603868  0.81507445  1
  O2-  O420  1  0.84161046  0.16283350  0.15040709  1
  O2-  O421  1  0.82833310  0.16337378  0.48476505  1
  O2-  O422  1  0.82404528  0.16072243  0.80495914  1
  O2-  O423  1  0.84136450  0.42980201  0.14393729  1
  O2-  O424  1  0.83594410  0.41950806  0.48121388  1
  O2-  O425  1  0.83046742  0.41726759  0.80285207  1
  O2-  O426  1  0.84636148  0.67566145  0.14922565  1
  O2-  O427  1  0.81521504  0.65274375  0.49156952  1
  O2-  O428  1  0.84497115  0.67035566  0.81125802  1
  O2-  O429  1  0.84959458  0.93537083  0.14976050  1
  O2-  O430  1  0.82425267  0.89691819  0.47085121  1
  O2-  O431  1  0.83109255  0.90553877  0.81071765  1
  O2-  O432  1  0.17783742  0.08439768  0.19785585  1
  O2-  O433  1  0.16649397  0.07816622  0.52497666  1
  O2-  O434  1  0.16776407  0.08884966  0.81480181  1
  O2-  O435  1  0.17997221  0.33815132  0.16651221  1
  O2-  O436  1  0.17649284  0.33653563  0.52123461  1
  O2-  O437  1  0.13863499  0.30563073  0.88191880  1
  O2-  O438  1  0.10010740  0.56425009  0.20327739  1
  O2-  O439  1  0.15928455  0.58862881  0.50758470  1
  O2-  O440  1  0.18412419  0.58280506  0.85394947  1
  O2-  O441  1  0.16731775  0.81159782  0.19627362  1
  O2-  O442  1  0.16694576  0.83408764  0.52142426  1
  O2-  O443  1  0.18422778  0.85456148  0.86471860  1
  O2-  O444  1  0.40520002  0.08205538  0.19201615  1
  O2-  O445  1  0.40766111  0.07574599  0.51712599  1
  O2-  O446  1  0.40400866  0.08729241  0.84866430  1
  O2-  O447  1  0.43346284  0.33771541  0.19752391  1
  O2-  O448  1  0.41723565  0.32510864  0.52065934  1
  O2-  O449  1  0.43856527  0.34819562  0.86456235  1
  O2-  O450  1  0.43200941  0.59375858  0.19162120  1
  O2-  O451  1  0.44428688  0.63847235  0.51823288  1
  O2-  O452  1  0.44614105  0.60217609  0.84416040  1
  O2-  O453  1  0.42610974  0.83914314  0.18893268  1
  O2-  O454  1  0.41040969  0.83641436  0.51580249  1
  O2-  O455  1  0.41337195  0.83117518  0.84831467  1
  O2-  O456  1  0.68124485  0.06453490  0.19746985  1
  O2-  O457  1  0.66606631  0.07590513  0.51306930  1
  O2-  O458  1  0.65701243  0.08831018  0.84064137  1
  O2-  O459  1  0.68205245  0.35719485  0.19419572  1
  O2-  O460  1  0.66400985  0.33025691  0.49759914  1
  O2-  O461  1  0.67048964  0.33471273  0.85028025  1
  O2-  O462  1  0.68018285  0.58613206  0.19139486  1
  O2-  O463  1  0.65361729  0.57255231  0.52024309  1
  O2-  O464  1  0.68246637  0.58535827  0.85627458  1
  O2-  O465  1  0.68658489  0.83104853  0.19396608  1
  O2-  O466  1  0.66308600  0.82638494  0.52028561  1
  O2-  O467  1  0.69018524  0.81423831  0.87868414  1
  O2-  O468  1  0.93284498  0.09150502  0.19976501  1
  O2-  O469  1  0.92187620  0.10447445  0.52541926  1
  O2-  O470  1  0.91270705  0.07866888  0.82061452  1
  O2-  O471  1  0.86612674  0.30960641  0.20489065  1
  O2-  O472  1  0.91597806  0.33370130  0.51485273  1
  O2-  O473  1  0.84991402  0.29489546  0.86901678  1
  O2-  O474  1  0.93103831  0.58961773  0.18526345  1
  O2-  O475  1  0.91970590  0.58748963  0.52527880  1
  O2-  O476  1  0.93555010  0.59376941  0.83767789  1
  O2-  O477  1  0.92332136  0.84084834  0.18892536  1
  O2-  O478  1  0.91093732  0.82437155  0.52422119  1
  O2-  O479  1  0.92702219  0.83385628  0.85861358  1
  O2-  O480  1  0.17408599  0.08048405  0.30979774  1
  O2-  O481  1  0.16175584  0.07098853  0.64964256  1
  O2-  O482  1  0.16497049  0.07951877  0.99651581  1
  O2-  O483  1  0.14719264  0.30856849  0.30352367  1
  O2-  O484  1  0.16813008  0.35981708  0.64553452  1
  O2-  O485  1  0.14431271  0.31403939  1.00394940  1
  O2-  O486  1  0.17114375  0.57679284  0.31429304  1
  O2-  O487  1  0.16919379  0.59550012  0.63116342  1
  O2-  O488  1  0.16694395  0.58480146  0.98125507  1
  O2-  O489  1  0.16761494  0.79700923  0.32398336  1
  O2-  O490  1  0.16192151  0.84031554  0.64488118  1
  O2-  O491  1  0.17643011  0.82918953  0.97367628  1
  O2-  O492  1  0.41739349  0.07758792  0.32097586  1
  O2-  O493  1  0.41572699  0.08794695  0.63801249  1
  O2-  O494  1  0.40345098  0.07583204  0.97766360  1
  O2-  O495  1  0.43271376  0.34489576  0.26444093  1
  O2-  O496  1  0.43596434  0.35017081  0.64766579  1
  O2-  O497  1  0.41725415  0.33557785  0.99218770  1
  O2-  O498  1  0.42375366  0.58844009  0.31126477  1
  O2-  O499  1  0.43467901  0.60740344  0.63886169  1
  O2-  O500  1  0.40245713  0.56144618  1.00585999  1
  O2-  O501  1  0.42626679  0.83467467  0.31053063  1
  O2-  O502  1  0.44920553  0.90420588  0.62851999  1
  O2-  O503  1  0.42758656  0.83059947  0.99494143  1
  O2-  O504  1  0.66162008  0.08223375  0.31627138  1
  O2-  O505  1  0.60151638  0.04732471  0.62891244  1
  O2-  O506  1  0.68171019  0.09878841  0.97049662  1
  O2-  O507  1  0.65430414  0.31265400  0.37153810  1
  O2-  O508  1  0.66431012  0.32898391  0.63203804  1
  O2-  O509  1  0.67190890  0.34148548  0.97686879  1
  O2-  O510  1  0.66628718  0.57386980  0.31442442  1
  O2-  O511  1  0.66737815  0.58112515  0.64545105  1
  O2-  O512  1  0.66982129  0.58532470  0.98232221  1
  O2-  O513  1  0.66561559  0.82907799  0.31502107  1
  O2-  O514  1  0.67106839  0.82944396  0.64206765  1
  O2-  O515  1  0.62486219  0.81003490  0.98778480  1
  O2-  O516  1  0.90765988  0.07381650  0.32324428  1
  O2-  O517  1  0.92658548  0.07891865  0.64636781  1
  O2-  O518  1  0.90018511  0.04329416  1.04072697  1
  O2-  O519  1  0.91912520  0.33262323  0.31806715  1
  O2-  O520  1  0.91589796  0.33582888  0.63445338  1
  O2-  O521  1  0.91950768  0.33639149  0.98655901  1
  O2-  O522  1  0.91554893  0.57493132  0.31027704  1
  O2-  O523  1  0.91602167  0.58665899  0.64532709  1
  O2-  O524  1  0.90751248  0.57739148  0.98749228  1
  O2-  O525  1  0.91403448  0.84037615  0.31361222  1
  O2-  O526  1  0.91348403  0.82860262  0.64852546  1
  O2-  O527  1  0.92628385  0.83325102  0.98225703  1
  O2-  O528  1  0.07851263  0.15081035  0.04075637  1
  O2-  O529  1  0.07645294  0.15970410  0.36946616  1
  O2-  O530  1  0.08507255  0.14596720  0.69134533  1
  O2-  O531  1  0.08281008  0.42278759  0.02683016  1
  O2-  O532  1  0.08174970  0.40820034  0.35405078  1
  O2-  O533  1  0.07495713  0.42861521  0.67422976  1
  O2-  O534  1  0.06791625  0.66154965  0.00493388  1
  O2-  O535  1  0.07108084  0.63481773  0.35845963  1
  O2-  O536  1  0.08668275  0.67453006  0.67693848  1
  O2-  O537  1  0.08423289  0.93120646  0.03023833  1
  O2-  O538  1  0.06880196  0.92572772  0.34934886  1
  O2-  O539  1  0.07662719  0.91018239  0.69602812  1
  O2-  O540  1  0.32745094  0.16023554  0.02601743  1
  O2-  O541  1  0.32265477  0.14770003  0.36729299  1
  O2-  O542  1  0.32910379  0.17306953  0.64043450  1
  O2-  O543  1  0.31055807  0.38935685  0.04329067  1
  O2-  O544  1  0.33898791  0.41536811  0.33036638  1
  O2-  O545  1  0.32954776  0.45798131  0.69368803  1
  O2-  O546  1  0.32989530  0.66279970  0.02478862  1
  O2-  O547  1  0.33878742  0.67355104  0.34884963  1
  O2-  O548  1  0.29853366  0.59904199  0.70101456  1
  O2-  O549  1  0.33383586  0.90995932  0.02428557  1
  O2-  O550  1  0.34162808  0.91314728  0.35632259  1
  O2-  O551  1  0.32735749  0.92884938  0.68353034  1
  O2-  O552  1  0.57739934  0.16625105  0.00146771  1
  O2-  O553  1  0.57516746  0.15129329  0.35250608  1
  O2-  O554  1  0.57759089  0.17037219  0.67952495  1
  O2-  O555  1  0.58742488  0.42017074  0.02615983  1
  O2-  O556  1  0.57987848  0.40803229  0.34500437  1
  O2-  O557  1  0.59259211  0.41787958  0.68993439  1
  O2-  O558  1  0.57126562  0.64935451  0.02810070  1
  O2-  O559  1  0.58811014  0.66324039  0.35097821  1
  O2-  O560  1  0.59197574  0.66904128  0.68714073  1
  O2-  O561  1  0.50794332  0.86184560  0.02985279  1
  O2-  O562  1  0.58957264  0.91803448  0.35282550  1
  O2-  O563  1  0.58794973  0.90834346  0.68731970  1
  O2-  O564  1  0.83429230  0.16080045  0.02761175  1
  O2-  O565  1  0.83219773  0.16684912  0.35946326  1
  O2-  O566  1  0.90912503  0.19901253  0.69742918  1
  O2-  O567  1  0.83829464  0.42012274  0.02468263  1
  O2-  O568  1  0.83692487  0.41617234  0.35662842  1
  O2-  O569  1  0.82917444  0.41567360  0.67836522  1
  O2-  O570  1  0.83532350  0.66355891  0.02685068  1
  O2-  O571  1  0.84127416  0.66163877  0.33896893  1
  O2-  O572  1  0.83037261  0.66372243  0.68880245  1
  O2-  O573  1  0.80543185  0.88667496  -0.01891501  1
  O2-  O574  1  0.82517534  0.90625191  0.35561666  1
  O2-  O575  1  0.83137483  0.91092435  0.68945287  1
