# generated using pymatgen
data_H2O
_symmetry_space_group_name_H-M   'P 1'
_cell_length_a   17.98114836
_cell_length_b   17.99002037
_cell_length_c   22.00422524
_cell_angle_alpha   90.02216181
_cell_angle_beta   89.97236366
_cell_angle_gamma   119.99394369
_symmetry_Int_Tables_number   1
_chemical_formula_structural   H2O
_chemical_formula_sum   'H384 O192'
_cell_volume   6164.70411494
_cell_formula_units_Z   192
loop_
 _symmetry_equiv_pos_site_id
 _symmetry_equiv_pos_as_xyz
  1  'x, y, z'
loop_
 _atom_type_symbol
 _atom_type_oxidation_number
  H+  1.0
  O2-  -2.0
loop_
 _atom_site_type_symbol
 _atom_site_label
 _atom_site_symmetry_multiplicity
 _atom_site_fract_x
 _atom_site_fract_y
 _atom_site_fract_z
 _atom_site_occupancy
  H+  H0  1  0.70987463  0.59069722  0.18194376  1
  H+  H1  1  0.96179062  1.11148385  0.83907186  1
  H+  H2  1  0.88025671  0.26781421  0.49636494  1
  H+  H3  1  0.45725099  0.08959105  0.85298873  1
  H+  H4  1  0.86136922  0.73026876  0.48673340  1
  H+  H5  1  0.39197645  1.02147623  0.15739124  1
  H+  H6  1  0.03647234  0.39776151  0.00801987  1
  H+  H7  1  0.16056958  0.29791955  1.00872419  1
  H+  H8  1  0.16925435  0.29949181  0.17506246  1
  H+  H9  1  0.52657208  0.62200574  0.83519234  1
  H+  H10  1  0.57355016  0.67715129  0.39258672  1
  H+  H11  1  0.93325242  0.62696796  0.99088146  1
  H+  H12  1  0.16740262  1.01622709  0.82521335  1
  H+  H13  1  0.52227262  0.38176129  0.67376883  1
  H+  H14  1  0.36588447  0.47789757  0.34103661  1
  H+  H15  1  0.84859891  0.98061804  0.49178124  1
  H+  H16  1  0.76263638  0.37802348  0.33486319  1
  H+  H17  1  0.12462178  0.00667449  0.17440862  1
  H+  H18  1  0.39216280  0.35889093  0.84389823  1
  H+  H19  1  0.60526764  0.72911563  0.48780881  1
  H+  H20  1  0.08741530  0.92027824  0.39736344  1
  H+  H21  1  0.86009361  0.10453553  1.00434179  1
  H+  H22  1  0.13040993  0.12026111  0.97981394  1
  H+  H23  1  0.22070958  0.85966985  0.66514287  1
  H+  H24  1  0.47089981  0.61183035  0.32869466  1
  H+  H25  1  0.15253074  0.38178459  1.00430349  1
  H+  H26  1  0.11182020  0.46938786  0.82912114  1
  H+  H27  1  0.84629628  0.71936668  0.15947211  1
  H+  H28  1  0.83942949  0.17290734  0.40327599  1
  H+  H29  1  0.98083071  0.85667326  0.84131504  1
  H+  H30  1  0.54664042  0.88645398  0.34439285  1
  H+  H31  1  0.87163213  0.88883848  0.15697748  1
  H+  H32  1  0.93480296  0.08251636  0.45942949  1
  H+  H33  1  0.64177140  0.09061779  0.99431846  1
  H+  H34  1  0.86438462  0.37751163  0.82811245  1
  H+  H35  1  0.13438230  0.52247745  0.67106501  1
  H+  H36  1  0.62307071  0.75128335  0.31769971  1
  H+  H37  1  0.36716019  0.72133681  0.82979419  1
  H+  H38  1  0.91790360  0.12660115  0.13366997  1
  H+  H39  1  0.12705537  0.39987119  0.16546767  1
  H+  H40  1  0.26415351  0.89093855  0.48061795  1
  H+  H41  1  0.10525729  0.72016753  0.68070472  1
  H+  H42  1  0.87186162  0.13626665  0.48574312  1
  H+  H43  1  0.86247293  0.72299376  0.82052667  1
  H+  H44  1  0.96875781  0.60022865  0.66260271  1
  H+  H45  1  0.64173498  0.38237029  0.49761577  1
  H+  H46  1  0.23486255  0.86820972  0.98244923  1
  H+  H47  1  0.13347694  0.60117236  0.83346147  1
  H+  H48  1  0.01212717  0.63790374  0.50197858  1
  H+  H49  1  0.86368986  0.38896764  0.48745010  1
  H+  H50  1  0.14754604  0.10549965  0.16825698  1
  H+  H51  1  0.72719766  0.84415168  1.00505855  1
  H+  H52  1  -0.03862366  0.05620602  -0.03143603  1
  H+  H53  1  0.37446859  0.27919847  0.65929548  1
  H+  H54  1  0.61149187  0.24316842  0.49491325  1
  H+  H55  1  0.93307263  0.84829075  0.53809536  1
  H+  H56  1  0.36910142  0.23878785  -0.00298428  1
  H+  H57  1  0.01685823  0.38525502  0.49176686  1
  H+  H58  1  0.52652769  0.38000040  0.82858491  1
  H+  H59  1  0.13254456  0.76742503  0.17282181  1
  H+  H60  1  0.52540976  0.40080453  0.49176633  1
  H+  H61  1  0.87007482  0.97933457  -0.01261168  1
  H+  H62  1  0.47392812  0.86780210  0.65715456  1
  H+  H63  1  0.52787858  0.63332707  0.67790626  1
  H+  H64  1  0.10086387  0.87595932  0.67370429  1
  H+  H65  1  0.64412501  0.59801905  0.84328219  1
  H+  H66  1  0.38454574  0.78633256  0.50570336  1
  H+  H67  1  0.40295513  0.51866973  1.00721335  1
  H+  H68  1  0.03873897  0.18734553  0.00006685  1
  H+  H69  1  0.39147889  0.52647640  0.66590195  1
  H+  H70  1  0.17628409  0.34834449  0.60771574  1
  H+  H71  1  0.27666518  0.15385177  0.98691953  1
  H+  H72  1  0.64085399  1.03004139  0.66777923  1
  H+  H73  1  0.86915997  0.64449983  0.49601470  1
  H+  H74  1  0.14121008  0.84928919  0.51045037  1
  H+  H75  1  0.39349084  0.86839128  0.16849749  1
  H+  H76  1  0.52553146  0.12525045  1.01563164  1
  H+  H77  1  0.15253957  0.77995794  0.99604294  1
  H+  H78  1  0.26052735  0.62686566  0.50710022  1
  H+  H79  1  0.88288567  0.85258083  0.65363004  1
  H+  H80  1  0.74246101  0.12335297  0.16654642  1
  H+  H81  1  0.63741510  0.36281066  0.84438745  1
  H+  H82  1  0.30252938  0.40846412  0.15885620  1
  H+  H83  1  0.89363628  0.25230642  0.65697346  1
  H+  H84  1  0.81744891  0.39563706  0.20684474  1
  H+  H85  1  0.86733184  0.52671945  -0.00405436  1
  H+  H86  1  0.64449557  0.02667503  0.50050410  1
  H+  H87  1  0.08104834  0.13827360  0.68722422  1
  H+  H88  1  -0.01874559  0.86482060  -0.00904430  1
  H+  H89  1  0.61192982  0.83105508  0.77938674  1
  H+  H90  1  0.39378219  0.61576958  0.65127850  1
  H+  H91  1  0.93072574  0.34356408  0.93493430  1
  H+  H92  1  0.99949641  0.12662944  0.16199223  1
  H+  H93  1  0.10099340  1.00572389  0.67647081  1
  H+  H94  1  0.32465951  0.65718309  0.41032008  1
  H+  H95  1  0.43525076  0.13730554  0.72689001  1
  H+  H96  1  0.30448746  0.40300822  0.01700232  1
  H+  H97  1  0.35033949  0.62330109  0.35095872  1
  H+  H98  1  0.47722954  0.35144029  0.17683269  1
  H+  H99  1  0.23159318  0.37012696  0.33089139  1
  H+  H100  1  0.58289349  0.16708372  0.53940878  1
  H+  H101  1  0.85276085  0.63278451  0.15488398  1
  H+  H102  1  0.87897186  0.78847618  0.33406851  1
  H+  H103  1  0.09564779  0.22377764  0.84428503  1
  H+  H104  1  0.21510486  0.10252221  0.53824495  1
  H+  H105  1  0.58433235  0.40497317  0.76748846  1
  H+  H106  1  0.42800171  0.33579106  0.90288293  1
  H+  H107  1  0.37276145  0.09383803  0.30275831  1
  H+  H108  1  0.72839471  0.63175616  0.33196237  1
  H+  H109  1  0.39177605  0.11075812  0.16768457  1
  H+  H110  1  0.64073486  0.48543006  0.04118768  1
  H+  H111  1  0.10688854  0.97906055  0.33897479  1
  H+  H112  1  0.13647912  0.03716565  0.96996471  1
  H+  H113  1  0.60435815  0.22834665  0.87372238  1
  H+  H114  1  0.72970271  0.61106894  0.50501789  1
  H+  H115  1  0.78047079  0.39319946  0.01032959  1
  H+  H116  1  0.39840385  0.37053501  0.17167971  1
  H+  H117  1  0.22845523  0.36151659  0.84831915  1
  H+  H118  1  0.80158572  0.60933255  1.00867584  1
  H+  H119  1  0.64836329  0.51327150  0.83978750  1
  H+  H120  1  0.47430452  0.12667566  0.49376541  1
  H+  H121  1  0.86160783  0.86228107  1.00509928  1
  H+  H122  1  0.27641413  0.12458654  0.17572103  1
  H+  H123  1  0.89537615  0.86201019  0.83972664  1
  H+  H124  1  0.37886414  0.63432877  1.01180795  1
  H+  H125  1  0.53754984  0.14103568  0.64306543  1
  H+  H126  1  0.34434539  0.86367804  0.82858289  1
  H+  H127  1  0.36782216  0.46996480  0.83864174  1
  H+  H128  1  0.61196252  0.38206496  0.66935465  1
  H+  H129  1  0.02568362  0.38944337  0.34030679  1
  H+  H130  1  0.22400571  0.60413346  0.83303190  1
  H+  H131  1  0.48452495  0.62816320  0.18565667  1
  H+  H132  1  0.37126038  0.88702297  -0.00257637  1
  H+  H133  1  0.01711850  0.63179867  0.15876259  1
  H+  H134  1  0.14030127  0.12084279  0.32927634  1
  H+  H135  1  0.27320309  0.39307264  0.49631933  1
  H+  H136  1  0.72274642  0.12173467  0.83698744  1
  H+  H137  1  0.13836305  0.61538750  0.18041000  1
  H+  H138  1  0.78011039  0.13993184  0.48694030  1
  H+  H139  1  0.61092959  0.28249589  0.16449842  1
  H+  H140  1  0.39875621  0.78328489  0.16956222  1
  H+  H141  1  0.87090826  0.48139014  0.48658393  1
  H+  H142  1  0.84268217  0.15846695  0.09036885  1
  H+  H143  1  0.36262534  0.73200053  0.64651102  1
  H+  H144  1  0.37053727  0.64196914  0.16515631  1
  H+  H145  1  0.10671817  0.63193562  0.68117785  1
  H+  H146  1  0.09505918  0.70830520  0.83191848  1
  H+  H147  1  0.65782081  0.13199336  0.16920499  1
  H+  H148  1  0.65306846  0.73904154  0.85074914  1
  H+  H149  1  0.39124235  0.37896009  0.50933713  1
  H+  H150  1  0.39248163  0.29141832  0.51463565  1
  H+  H151  1  0.33108499  0.66737005  0.59273325  1
  H+  H152  1  0.88590731  0.36158689  0.32092246  1
  H+  H153  1  0.13696049  -0.02551667  0.49680177  1
  H+  H154  1  0.00798440  0.63004953  0.33681233  1
  H+  H155  1  0.42836763  0.57829221  0.91340480  1
  H+  H156  1  0.08219184  0.41907149  0.40135010  1
  H+  H157  1  0.14739502  0.37566693  0.66881810  1
  H+  H158  1  0.62230694  0.72012577  1.02859301  1
  H+  H159  1  0.39038257  0.76718009  0.99493603  1
  H+  H160  1  0.88145203  0.49977508  0.84108464  1
  H+  H161  1  0.65438793  0.87273733  0.77948908  1
  H+  H162  1  0.19366684  0.94855290  0.45608795  1
  H+  H163  1  0.72547271  0.35883441  0.84591558  1
  H+  H164  1  0.58541691  0.91294943  1.05828633  1
  H+  H165  1  0.62999317  0.14871280  0.33535029  1
  H+  H166  1  0.48915784  0.61195420  1.00803407  1
  H+  H167  1  0.34077508  -0.01139273  0.47077340  1
  H+  H168  1  -0.00784796  0.36765975  0.17099976  1
  H+  H169  1  0.87332907  0.52239070  0.16629972  1
  H+  H170  1  0.65865795  0.82749339  0.85911593  1
  H+  H171  1  0.38675329  0.26988235  0.31959679  1
  H+  H172  1  0.96730449  0.87593048  0.33016320  1
  H+  H173  1  0.71319927  0.85068799  0.31063751  1
  H+  H174  1  0.21776013  0.61529877  0.33686188  1
  H+  H175  1  0.14220369  0.37093183  0.33018457  1
  H+  H176  1  0.89891578  0.35587445  0.16275432  1
  H+  H177  1  0.36803270  0.39579598  0.67977001  1
  H+  H178  1  0.83959415  -0.02536454  0.34102716  1
  H+  H179  1  0.72926932  0.36318534  0.65376502  1
  H+  H180  1  0.73821618  0.84367614  0.51688877  1
  H+  H181  1  0.62822869  0.63470266  0.04121272  1
  H+  H182  1  0.21069368  0.83800348  0.83572913  1
  H+  H183  1  0.17665750  0.10302792  0.68066001  1
  H+  H184  1  0.11772945  0.76977756  0.32377863  1
  H+  H185  1  0.52745491  0.14068077  0.15355491  1
  H+  H186  1  0.42105103  0.57955974  0.56706119  1
  H+  H187  1  0.63176247  0.27025257  0.32617730  1
  H+  H188  1  0.67574201  0.34350489  0.94082251  1
  H+  H189  1  0.72553539  0.60767233  0.66050087  1
  H+  H190  1  0.13013399  0.52692739  0.33224382  1
  H+  H191  1  0.46119915  0.86652031  0.83955708  1
  H+  H192  1  0.88141512  0.22356996  0.14900162  1
  H+  H193  1  0.35627489  0.14785438  0.49838429  1
  H+  H194  1  0.62112688  -0.01036704  0.14642433  1
  H+  H195  1  0.50902593  0.65029911  0.48333655  1
  H+  H196  1  0.12122068  0.23557616  0.34245885  1
  H+  H197  1  0.29670897  0.12757467  0.66615637  1
  H+  H198  1  0.15753250  0.65302512  0.02081396  1
  H+  H199  1  0.62102268  -0.01660127  0.34415835  1
  H+  H200  1  0.24129754  0.61525842  1.00146048  1
  H+  H201  1  0.97599614  0.35719979  0.83893382  1
  H+  H202  1  0.63561609  0.51951629  0.66117216  1
  H+  H203  1  0.10333810  0.87025896  0.16010529  1
  H+  H204  1  0.02937843  0.38408788  0.68125309  1
  H+  H205  1  0.63228710  0.76845311  0.67061774  1
  H+  H206  1  0.88432951  0.26938593  0.83907587  1
  H+  H207  1  0.84572698  0.89018803  0.33826523  1
  H+  H208  1  0.86521454  0.50624973  0.31803574  1
  H+  H209  1  0.97957388  0.60125641  0.84079286  1
  H+  H210  1  0.14192299  0.28898959  0.51413345  1
  H+  H211  1  0.22119858  0.61163971  0.65487475  1
  H+  H212  1  0.10583709  0.86887605  0.82443423  1
  H+  H213  1  0.11275148  0.38031595  0.83449713  1
  H+  H214  1  0.76967341  0.87899190  0.67317746  1
  H+  H215  1  0.12090104  0.48579512  0.16724005  1
  H+  H216  1  0.88209458  0.86879602  0.48918607  1
  H+  H217  1  0.39537219  0.60605425  0.85406711  1
  H+  H218  1  0.59130977  0.91444216  0.81884478  1
  H+  H219  1  0.73055210  0.37960493  0.49584900  1
  H+  H220  1  0.52545230  0.90162811  0.49486129  1
  H+  H221  1  0.28251465  0.64362461  0.16454671  1
  H+  H222  1  0.89555966  -0.01543860  0.13753943  1
  H+  H223  1  0.34718423  0.66731770  0.06905346  1
  H+  H224  1  0.77644117  0.11195568  0.00417088  1
  H+  H225  1  0.13023042  0.89395744  0.99886358  1
  H+  H226  1  0.16357716  0.82191050  0.60558158  1
  H+  H227  1  0.35170703  -0.01847665  0.31304069  1
  H+  H228  1  0.37039280  0.97689876  -0.00405765  1
  H+  H229  1  0.87427512  1.01571293  0.64241863  1
  H+  H230  1  0.77305720  0.13774183  0.67803433  1
  H+  H231  1  0.59090760  0.92478088  0.43989045  1
  H+  H232  1  0.43192515  0.81909005  0.27178202  1
  H+  H233  1  0.73636040  0.12228297  0.32560152  1
  H+  H234  1  0.11469295  0.23810528  0.68665900  1
  H+  H235  1  0.25078862  0.88061874  0.32249806  1
  H+  H236  1  0.37692630  0.12509409  -0.01252512  1
  H+  H237  1  0.26812244  0.12991126  0.32678225  1
  H+  H238  1  0.64815382  0.28094269  0.99857304  1
  H+  H239  1  0.60759357  0.14111728  0.86967912  1
  H+  H240  1  0.62116100  0.22972132  0.62831818  1
  H+  H241  1  0.89884629  0.68691664  0.35038176  1
  H+  H242  1  0.18252708  0.35091649  0.23698485  1
  H+  H243  1  0.85602365  0.62546811  0.67212253  1
  H+  H244  1  0.64650330  0.11765024  0.64701650  1
  H+  H245  1  0.00763026  0.86864150  0.67167234  1
  H+  H246  1  0.86200127  0.37925246  0.67312632  1
  H+  H247  1  0.11967098  0.86086981  0.32263578  1
  H+  H248  1  0.16993871  0.58898161  0.23996202  1
  H+  H249  1  0.82849457  0.41301249  0.39144213  1
  H+  H250  1  0.40375672  0.38094918  0.00253866  1
  H+  H251  1  1.03048239  0.15928857  0.50212113  1
  H+  H252  1  0.85630808  0.12706970  0.66641724  1
  H+  H253  1  0.14692199  0.53294611  0.00504449  1
  H+  H254  1  0.91891372  0.08921619  0.28120420  1
  H+  H255  1  0.35212394  0.62734525  0.50615963  1
  H+  H256  1  0.14162606  0.37736219  0.51215833  1
  H+  H257  1  0.31113194  0.92076278  0.38147043  1
  H+  H258  1  0.12234549  0.60662519  0.51138570  1
  H+  H259  1  0.38419152  0.86800526  0.66263203  1
  H+  H260  1  0.63892208  0.49347023  0.19157124  1
  H+  H261  1  0.90678440  0.38142817  0.99155549  1
  H+  H262  1  0.48872284  0.37168365  1.00175553  1
  H+  H263  1  0.03263812  0.14665448  0.34715632  1
  H+  H264  1  0.36116608  0.21795603  0.17308499  1
  H+  H265  1  0.59476498  1.00203402  0.82326346  1
  H+  H266  1  0.42098804  0.33679498  0.26477234  1
  H+  H267  1  0.88151038  0.76321906  0.65382787  1
  H+  H268  1  0.63343402  0.39308626  0.02415100  1
  H+  H269  1  0.40468907  0.53369020  0.17315195  1
  H+  H270  1  0.86476016  0.46955043  0.67063052  1
  H+  H271  1  -0.03590829  0.84514373  0.17818410  1
  H+  H272  1  0.38530326  0.52215438  0.50656484  1
  H+  H273  1  0.86257042  0.97176587  0.82132632  1
  H+  H274  1  0.60438549  0.37379935  0.34293023  1
  H+  H275  1  0.87034573  0.23074999  0.34119856  1
  H+  H276  1  0.23182523  0.23471126  0.12380466  1
  H+  H277  1  0.60696765  0.88368800  0.67082198  1
  H+  H278  1  0.36172791  -0.01869764  0.68720103  1
  H+  H279  1  0.10357683  0.47651046  0.49712963  1
  H+  H280  1  0.89006175  0.12359327  0.33786366  1
  H+  H281  1  0.65042839  0.11723365  0.49109710  1
  H+  H282  1  0.60989147  0.63866174  0.33871495  1
  H+  H283  1  0.85024099  0.13071272  0.82580110  1
  H+  H284  1  0.36273241  0.13858255  0.81163104  1
  H+  H285  1  0.50923343  0.37343137  0.34034682  1
  H+  H286  1  0.58571058  0.16167269  -0.04034137  1
  H+  H287  1  0.13543732  0.75802148  0.51051820  1
  H+  H288  1  0.67128972  0.07955395  0.89961418  1
  H+  H289  1  0.67010166  0.80057719  0.94771268  1
  H+  H290  1  0.83798362  0.91246562  0.72663628  1
  H+  H291  1  0.60242012  0.39669117  0.11166124  1
  H+  H292  1  0.90403274  0.58099458  0.22389206  1
  H+  H293  1  0.89851843  0.07332016  0.58265296  1
  H+  H294  1  0.47985649  0.85510566  0.99020166  1
  H+  H295  1  0.06927325  0.65821261  0.43867338  1
  H+  H296  1  0.63780674  -0.00007603  0.98760261  1
  H+  H297  1  0.80800946  0.91512831  0.43504839  1
  H+  H298  1  0.59938630  0.17499031  0.39545529  1
  H+  H299  1  0.34143426  0.14846409  0.37547240  1
  H+  H300  1  0.82999549  0.66184324  0.73062801  1
  H+  H301  1  0.57389848  0.92279163  0.72352907  1
  H+  H302  1  0.45799764  0.13298059  0.95099787  1
  H+  H303  1  0.66646590  0.82008359  0.60933454  1
  H+  H304  1  0.84204191  0.57957334  0.31133081  1
  H+  H305  1  0.34385963  0.95250131  0.82810660  1
  H+  H306  1  0.09119585  0.42480290  0.07085506  1
  H+  H307  1  0.41770459  0.13669614  0.65854040  1
  H+  H308  1  0.82958324  0.16541422  0.76535367  1
  H+  H309  1  0.68039273  0.09570578  0.26441555  1
  H+  H310  1  0.17605883  0.34365789  0.90999885  1
  H+  H311  1  0.90249752  0.82582088  0.23574272  1
  H+  H312  1  0.62496289  0.18442958  0.74616759  1
  H+  H313  1  0.84319662  0.42721554  0.06706043  1
  H+  H314  1  0.34849598  0.65986214  0.77319430  1
  H+  H315  1  0.09933317  0.63530628  0.33927511  1
  H+  H316  1  0.32420613  0.90786053  0.73701870  1
  H+  H317  1  0.40405272  0.23900291  0.81134730  1
  H+  H318  1  0.74571863  0.38794899  0.16450467  1
  H+  H319  1  0.77453435  0.00354537  0.23224790  1
  H+  H320  1  0.83751342  0.90070705  0.06525600  1
  H+  H321  1  0.33195650  0.41780272  0.43526572  1
  H+  H322  1  0.41835652  0.34529001  0.60367412  1
  H+  H323  1  0.58390719  0.65199420  0.77336182  1
  H+  H324  1  0.16134199  0.83186638  0.22875858  1
  H+  H325  1  0.08434944  0.41311574  0.74349612  1
  H+  H326  1  0.32552227  0.17635389  0.72922760  1
  H+  H327  1  0.06917553  0.17322221  0.78226145  1
  H+  H328  1  0.07389677  0.90047779  0.76699190  1
  H+  H329  1  0.15648316  0.97431645  0.04058951  1
  H+  H330  1  0.40939396  0.82349301  0.90138071  1
  H+  H331  1  0.66877598  0.57762127  0.56402189  1
  H+  H332  1  0.01883689  0.13792875  0.06235480  1
  H+  H333  1  0.71272769  0.75358349  0.54587185  1
  H+  H334  1  0.91428998  0.57880317  0.60045958  1
  H+  H335  1  0.15901044  0.08037423  0.26886865  1
  H+  H336  1  0.40911054  0.06158132  0.24674280  1
  H+  H337  1  0.66308140  0.57970455  0.27934579  1
  H+  H338  1  0.27928423  0.39629094  0.68058948  1
  H+  H339  1  0.67708281  0.35114845  0.59128508  1
  H+  H340  1  0.29444077  0.17450062  0.46373041  1
  H+  H341  1  0.83884516  0.67581433  0.40695540  1
  H+  H342  1  0.59523794  0.18052557  0.09931070  1
  H+  H343  1  0.96006765  0.67897050  0.55287571  1
  H+  H344  1  0.53200676  0.90160014  0.14985980  1
  H+  H345  1  0.90722158  0.32626045  0.55636579  1
  H+  H346  1  0.09327640  0.66851003  0.10760534  1
  H+  H347  1  0.64658005  0.33270216  0.26763525  1
  H+  H348  1  0.13934937  0.05451626  0.58552121  1
  H+  H349  1  0.61674263  0.63292679  0.67658357  1
  H+  H350  1  0.90115927  0.57013308  0.89998029  1
  H+  H351  1  0.06335753  0.65114623  0.77052289  1
  H+  H352  1  0.37715426  0.05513449  0.89434070  1
  H+  H353  1  0.40893179  0.58066690  0.27168261  1
  H+  H354  1  0.39861079  0.76007312  0.33096493  1
  H+  H355  1  0.33741653  0.41715361  0.77649616  1
  H+  H356  1  0.09245997  0.18675039  0.44532892  1
  H+  H357  1  0.92137520  0.82616625  0.93360673  1
  H+  H358  1  0.36520804  0.38787621  0.34047281  1
  H+  H359  1  0.65435825  0.79691739  0.24425831  1
  H+  H360  1  0.40865433  0.07342493  0.54513711  1
  H+  H361  1  0.83287480  0.40947034  0.76950117  1
  H+  H362  1  0.60216725  0.68798767  0.12365082  1
  H+  H363  1  0.33010618  0.91373447  0.09030846  1
  H+  H364  1  0.92244862  0.33341363  0.26415037  1
  H+  H365  1  0.61769554  0.49015451  0.48841540  1
  H+  H366  1  0.14800191  0.57525573  0.57262142  1
  H+  H367  1  0.14263459  0.20023073  0.09219861  1
  H+  H368  1  0.78780809  0.87334317  0.82758746  1
  H+  H369  1  0.57499205  0.41396948  0.40592479  1
  H+  H370  1  0.19805746  0.09702451  0.86547216  1
  H+  H371  1  0.77667018  0.63133446  0.82165782  1
  H+  H372  1  0.41236495  0.84729075  0.56161725  1
  H+  H373  1  0.27130053  0.88591859  0.15090448  1
  H+  H374  1  0.59427202  0.19961736  0.75469574  1
  H+  H375  1  0.80083225  -0.01504757  0.22019005  1
  H+  H376  1  0.20529943  0.73786524  0.06155452  1
  H+  H377  1  0.36148432  0.43009112  0.09474499  1
  H+  H378  1  0.89159239  0.06204114  0.89110895  1
  H+  H379  1  0.15602045  0.81577161  0.89686793  1
  H+  H380  1  0.79116775  0.64465692  0.08015112  1
  H+  H381  1  0.06370827  0.89358712  0.10315175  1
  H+  H382  1  0.61304697  0.86983973  1.00431912  1
  H+  H383  1  0.97469035  0.29053120  0.61497028  1
  O2-  O384  1  0.17026185  0.20775424  0.13223429  1
  O2-  O385  1  0.09179518  0.19281631  0.48988539  1
  O2-  O386  1  0.06089978  0.16526391  0.82750401  1
  O2-  O387  1  0.09179629  0.42541750  0.15097045  1
  O2-  O388  1  0.07850735  0.41731625  0.47924754  1
  O2-  O389  1  0.07957132  0.40645788  0.81679900  1
  O2-  O390  1  0.08045419  0.66268548  0.15236098  1
  O2-  O391  1  0.07364972  0.65748735  0.48336692  1
  O2-  O392  1  0.06174889  0.64693069  0.81651111  1
  O2-  O393  1  0.06861689  0.89811198  0.14770603  1
  O2-  O394  1  0.13346365  0.93010313  0.46674142  1
  O2-  O395  1  0.08073256  0.90498247  0.81235518  1
  O2-  O396  1  0.33601578  0.15703685  0.16080728  1
  O2-  O397  1  0.32567438  0.18145856  0.50140305  1
  O2-  O398  1  0.39237788  0.18921268  0.78489371  1
  O2-  O399  1  0.36209084  0.43085113  0.14493567  1
  O2-  O400  1  0.33392512  0.41971012  0.48072602  1
  O2-  O401  1  0.33612735  0.41053264  0.82163032  1
  O2-  O402  1  0.34171678  0.67270335  0.14777271  1
  O2-  O403  1  0.32357059  0.66245720  0.49931841  1
  O2-  O404  1  0.34129833  0.65956921  0.81708391  1
  O2-  O405  1  0.33137290  0.91647712  0.13556360  1
  O2-  O406  1  0.29272208  0.93837899  0.45051296  1
  O2-  O407  1  0.31331193  0.89241665  0.81161159  1
  O2-  O408  1  0.58963233  0.18264472  0.14343342  1
  O2-  O409  1  0.57877092  0.17886432  0.49522043  1
  O2-  O410  1  0.57216011  0.16605599  0.88583831  1
  O2-  O411  1  0.59120024  0.38354614  0.16033248  1
  O2-  O412  1  0.58329694  0.42774135  0.47165203  1
  O2-  O413  1  0.58673508  0.40456036  0.81285990  1
  O2-  O414  1  0.59939101  0.69323029  0.16969545  1
  O2-  O415  1  0.56017029  0.69010257  0.45928030  1
  O2-  O416  1  0.58646222  0.64958364  0.81872110  1
  O2-  O417  1  0.58767581  0.93226189  0.12781895  1
  O2-  O418  1  0.58745832  0.92791264  0.48526416  1
  O2-  O419  1  0.55812056  0.94145215  0.80694281  1
  O2-  O420  1  0.85022532  0.16231234  0.13666976  1
  O2-  O421  1  0.84227639  0.17400603  0.47303714  1
  O2-  O422  1  0.82437565  0.16579170  0.81081598  1
  O2-  O423  1  0.80910328  0.40858251  0.16515305  1
  O2-  O424  1  0.83731076  0.42294776  0.47053306  1
  O2-  O425  1  0.83365636  0.40963925  0.81492243  1
  O2-  O426  1  0.81744251  0.65921884  0.14240259  1
  O2-  O427  1  0.83286219  0.66733822  0.47594548  1
  O2-  O428  1  0.83432403  0.66534007  0.80153331  1
  O2-  O429  1  0.85188492  0.92349691  0.13433416  1
  O2-  O430  1  0.81901222  0.91706150  0.47934964  1
  O2-  O431  1  0.84299688  0.91161348  0.80704788  1
  O2-  O432  1  0.15848066  0.06538411  0.19208555  1
  O2-  O433  1  0.15763959  0.05256860  0.54294863  1
  O2-  O434  1  0.21687167  0.07452695  0.83208782  1
  O2-  O435  1  0.18711651  0.35692295  0.19149669  1
  O2-  O436  1  0.17502650  0.35117045  0.52848492  1
  O2-  O437  1  0.16917810  0.33694752  0.86506296  1
  O2-  O438  1  0.17178612  0.58806573  0.19444387  1
  O2-  O439  1  0.15220575  0.57580025  0.52735174  1
  O2-  O440  1  0.16291888  0.56929824  0.84422242  1
  O2-  O441  1  0.16339622  0.83022689  0.18339236  1
  O2-  O442  1  0.16930652  0.81809090  0.52729250  1
  O2-  O443  1  0.15028402  0.80808859  0.85178486  1
  O2-  O444  1  0.42556513  0.08008512  0.17584432  1
  O2-  O445  1  0.41022564  0.09139592  0.50310400  1
  O2-  O446  1  0.39397248  0.05440130  0.85166956  1
  O2-  O447  1  0.41810469  0.33158352  0.19105205  1
  O2-  O448  1  0.42607573  0.35323863  0.52545037  1
  O2-  O449  1  0.42577113  0.33122983  0.85747454  1
  O2-  O450  1  0.42214675  0.59046250  0.19317536  1
  O2-  O451  1  0.41242604  0.58226721  0.52251052  1
  O2-  O452  1  0.42543944  0.57543504  0.86740539  1
  O2-  O453  1  0.42824221  0.84383398  0.18398641  1
  O2-  O454  1  0.41135187  0.84744715  0.51666175  1
  O2-  O455  1  0.40404058  0.82243105  0.85566849  1
  O2-  O456  1  0.68333067  0.09767856  0.18357380  1
  O2-  O457  1  0.68153318  0.09111375  0.50897349  1
  O2-  O458  1  0.66373670  0.09234852  0.85620771  1
  O2-  O459  1  0.64020251  0.34278106  0.18215315  1
  O2-  O460  1  0.67115725  0.35111528  0.51277458  1
  O2-  O461  1  0.66848563  0.33591428  0.86581493  1
  O2-  O462  1  0.65836721  0.55240007  0.20561369  1
  O2-  O463  1  0.66868541  0.57838041  0.51877467  1
  O2-  O464  1  0.68034699  0.57314680  0.85475032  1
  O2-  O465  1  0.64699837  0.78088203  0.18164384  1
  O2-  O466  1  0.69076649  0.79275706  0.53945797  1
  O2-  O467  1  0.68946686  0.79786018  0.87027679  1
  O2-  O468  1  0.96052872  0.10537309  0.12739672  1
  O2-  O469  1  0.90954275  0.08465495  0.49811098  1
  O2-  O470  1  0.89682919  0.07344989  0.84672176  1
  O2-  O471  1  0.92928636  0.33041484  0.18288503  1
  O2-  O472  1  0.90662726  0.33044175  0.51156197  1
  O2-  O473  1  0.91482474  0.33044183  0.85352438  1
  O2-  O474  1  0.90771373  0.58371359  0.17847720  1
  O2-  O475  1  0.93269986  0.62235864  0.53362235  1
  O2-  O476  1  0.91394828  0.56262916  0.85680257  1
  O2-  O477  1  0.90278130  0.81806054  0.19075293  1
  O2-  O478  1  0.91406489  0.83731130  0.49567135  1
  O2-  O479  1  0.92025203  0.82797085  0.85707176  1
  O2-  O480  1  0.16669148  0.08632054  0.31401232  1
  O2-  O481  1  0.12080882  0.06540383  0.66132147  1
  O2-  O482  1  0.16571555  0.09902912  0.96107676  1
  O2-  O483  1  0.17157877  0.34010213  0.31417045  1
  O2-  O484  1  0.17893581  0.34707361  0.65310908  1
  O2-  O485  1  0.18588975  0.35378454  0.98906956  1
  O2-  O486  1  0.15864398  0.58827420  0.31865297  1
  O2-  O487  1  0.15730531  0.58092917  0.65248493  1
  O2-  O488  1  0.17944798  0.59475316  0.99318421  1
  O2-  O489  1  0.14876864  0.82941907  0.30672893  1
  O2-  O490  1  0.16027264  0.82487218  0.65096324  1
  O2-  O491  1  0.17176763  0.83507532  0.97333114  1
  O2-  O492  1  0.39638112  0.05578897  0.29230655  1
  O2-  O493  1  0.43564183  0.10882054  0.68841631  1
  O2-  O494  1  0.40837999  0.09152712  0.97455027  1
  O2-  O495  1  0.41955240  0.33253037  0.31100083  1
  O2-  O496  1  0.41614338  0.34000582  0.64905612  1
  O2-  O497  1  0.43147085  0.34701503  0.98323712  1
  O2-  O498  1  0.40839752  0.57776022  0.31714605  1
  O2-  O499  1  0.42635619  0.58479586  0.64672665  1
  O2-  O500  1  0.43103801  0.58182993  0.98956895  1
  O2-  O501  1  0.44663637  0.81327839  0.31393720  1
  O2-  O502  1  0.41194929  0.83717276  0.64465505  1
  O2-  O503  1  0.41768642  0.82699939  0.97758709  1
  O2-  O504  1  0.67665243  0.09669608  0.30952325  1
  O2-  O505  1  0.67231949  0.09293407  0.67412227  1
  O2-  O506  1  0.67070290  0.06278114  0.97456243  1
  O2-  O507  1  0.65534952  0.33319607  0.31209480  1
  O2-  O508  1  0.67060919  0.33788454  0.63581427  1
  O2-  O509  1  0.67976704  0.34198610  0.98667521  1
  O2-  O510  1  0.66709304  0.59543911  0.32332089  1
  O2-  O511  1  0.66439646  0.57935239  0.64526110  1
  O2-  O512  1  0.67976133  0.58055354  1.02648789  1
  O2-  O513  1  0.65588492  0.80938404  0.29241040  1
  O2-  O514  1  0.65925491  0.82795056  0.65348258  1
  O2-  O515  1  0.66536493  0.81300950  0.99115434  1
  O2-  O516  1  0.92035288  0.09015798  0.32541354  1
  O2-  O517  1  0.89142284  0.07366835  0.62700168  1
  O2-  O518  1  0.90087405  0.03975906  0.96800027  1
  O2-  O519  1  0.92117506  0.33526187  0.30936030  1
  O2-  O520  1  0.93762635  0.30840705  0.63491721  1
  O2-  O521  1  0.93988208  0.35396566  0.97928705  1
  O2-  O522  1  0.88734543  0.56625349  0.30156390  1
  O2-  O523  1  0.90929444  0.56617647  0.64629445  1
  O2-  O524  1  0.87805946  0.58186171  0.97542364  1
  O2-  O525  1  0.90689475  0.84639213  0.31468799  1
  O2-  O526  1  0.91418365  0.82348888  0.63832889  1
  O2-  O527  1  0.92178061  0.82541574  0.97934649  1
  O2-  O528  1  0.06302329  0.16370659  0.02878780  1
  O2-  O529  1  0.09428402  0.17566889  0.35888898  1
  O2-  O530  1  0.07440716  0.18375487  0.70705357  1
  O2-  O531  1  0.09653250  0.42629539  0.02577447  1
  O2-  O532  1  0.08583479  0.42111165  0.35574098  1
  O2-  O533  1  0.08818040  0.42031655  0.69755033  1
  O2-  O534  1  0.14953620  0.70225568  0.04225910  1
  O2-  O535  1  0.06695669  0.66492506  0.35228754  1
  O2-  O536  1  0.07357313  0.65964789  0.69604191  1
  O2-  O537  1  0.10852561  0.93152559  0.01662429  1
  O2-  O538  1  0.07469953  0.91799784  0.35261895  1
  O2-  O539  1  0.06687036  0.90087251  0.69082978  1
  O2-  O540  1  0.33444592  0.17541468  0.00462918  1
  O2-  O541  1  0.33293418  0.15667719  0.33284658  1
  O2-  O542  1  0.29868179  0.17528521  0.68838197  1
  O2-  O543  1  0.36393711  0.42963201  0.03160343  1
  O2-  O544  1  0.33478656  0.41680188  0.35684092  1
  O2-  O545  1  0.33987467  0.42706506  0.69677590  1
  O2-  O546  1  0.34803318  0.66616596  0.02360299  1
  O2-  O547  1  0.31930322  0.65303667  0.36557935  1
  O2-  O548  1  0.33277554  0.66827504  0.63757672  1
  O2-  O549  1  0.33861741  0.91660245  0.00991685  1
  O2-  O550  1  0.31319002  0.91360745  0.33587028  1
  O2-  O551  1  0.32939437  0.91848185  0.69183766  1
  O2-  O552  1  0.58714183  0.15843245  0.00584633  1
  O2-  O553  1  0.60028540  0.17999134  0.35128960  1
  O2-  O554  1  0.58870244  0.16729810  0.61672267  1
  O2-  O555  1  0.60641630  0.41947229  0.04898727  1
  O2-  O556  1  0.57039979  0.40177305  0.35863072  1
  O2-  O557  1  0.58288352  0.41102036  0.68852111  1
  O2-  O558  1  0.59392252  0.66386760  0.05091555  1
  O2-  O559  1  0.57604383  0.66922651  0.34656647  1
  O2-  O560  1  0.58737446  0.66264219  0.69508716  1
  O2-  O561  1  0.58368712  0.90382533  0.01221285  1
  O2-  O562  1  0.60240014  0.92752336  0.36348264  1
  O2-  O563  1  0.57691424  0.91700592  0.67914854  1
  O2-  O564  1  0.83602773  0.13945455  0.02011241  1
  O2-  O565  1  0.84008631  0.17056764  0.35620305  1
  O2-  O566  1  0.83695733  0.16487822  0.68724612  1
  O2-  O567  1  0.84222637  0.43190837  0.02285036  1
  O2-  O568  1  0.82498066  0.40888695  0.34602791  1
  O2-  O569  1  0.83244637  0.40872809  0.68817741  1
  O2-  O570  1  0.77401274  0.63675290  0.03249861  1
  O2-  O571  1  0.84516673  0.68518075  0.36023311  1
  O2-  O572  1  0.82745956  0.65835855  0.68391630  1
  O2-  O573  1  0.82959459  0.89224368  0.01928327  1
  O2-  O574  1  0.80670364  0.91245249  0.35036166  1
  O2-  O575  1  0.83257252  0.90867035  0.68148769  1
