# generated using pymatgen
data_H2O
_symmetry_space_group_name_H-M   'P 1'
_cell_length_a   17.99382974
_cell_length_b   17.99427867
_cell_length_c   22.01755340
_cell_angle_alpha   90.02857114
_cell_angle_beta   90.00278724
_cell_angle_gamma   120.05229006
_symmetry_Int_Tables_number   1
_chemical_formula_structural   H2O
_chemical_formula_sum   'H384 O192'
_cell_volume   6170.61689559
_cell_formula_units_Z   192
loop_
 _symmetry_equiv_pos_site_id
 _symmetry_equiv_pos_as_xyz
  1  'x, y, z'
loop_
 _atom_type_symbol
 _atom_type_oxidation_number
  H+  1.0
  O2-  -2.0
loop_
 _atom_site_type_symbol
 _atom_site_label
 _atom_site_symmetry_multiplicity
 _atom_site_fract_x
 _atom_site_fract_y
 _atom_site_fract_z
 _atom_site_occupancy
  H+  H0  1  0.86557856  0.76707606  0.19371978  1
  H+  H1  1  1.02477678  0.13698139  0.52640363  1
  H+  H2  1  0.62938413  0.61289375  0.65787997  1
  H+  H3  1  0.21390369  0.11128046  0.17688017  1
  H+  H4  1  0.38786534  0.02517165  0.84052455  1
  H+  H5  1  0.92398029  0.09281176  0.27728532  1
  H+  H6  1  0.55258963  0.42212911  0.76201376  1
  H+  H7  1  0.03478390  0.74080037  0.28795016  1
  H+  H8  1  0.37469939  0.02791784  0.99936599  1
  H+  H9  1  0.11088172  0.36165329  0.47591204  1
  H+  H10  1  0.98493610  0.12039682  0.68327872  1
  H+  H11  1  0.10947065  0.26258835  0.99081181  1
  H+  H12  1  0.35898985  0.22901764  0.49007269  1
  H+  H13  1  0.09729031  0.73495807  0.00199020  1
  H+  H14  1  0.61329289  0.46598546  0.34025398  1
  H+  H15  1  0.37805752  0.51850929  0.50417628  1
  H+  H16  1  0.52112375  0.13690202  0.48466212  1
  H+  H17  1  0.22656611  0.10600621  0.83909684  1
  H+  H18  1  0.87157948  0.61680968  0.65369586  1
  H+  H19  1  0.38016920  0.60289634  0.99561739  1
  H+  H20  1  0.59613010  0.39024157  0.67814856  1
  H+  H21  1  0.11973965  0.72267728  0.49345414  1
  H+  H22  1  0.51601979  0.62640036  0.49250615  1
  H+  H23  1  0.35903466  0.26459056  0.98911465  1
  H+  H24  1  0.04027534  0.38826243  0.45585578  1
  H+  H25  1  0.86228167  0.23010082  0.69308670  1
  H+  H26  1  0.02612243  0.64196454  0.83667263  1
  H+  H27  1  0.13851690  0.51066926  1.00084580  1
  H+  H28  1  0.50116430  0.61500595  0.15396964  1
  H+  H29  1  0.27172979  0.63978848  0.34104463  1
  H+  H30  1  0.24452232  0.36865572  0.31777335  1
  H+  H31  1  0.99892690  0.37083742  0.84405862  1
  H+  H32  1  0.40563955  0.08591007  0.55865354  1
  H+  H33  1  0.87708148  0.23471023  0.35453982  1
  H+  H34  1  0.89210935  0.11615230  0.68682814  1
  H+  H35  1  0.33060384  0.88568426  0.02044008  1
  H+  H36  1  0.37896275  0.48377351  0.33151416  1
  H+  H37  1  0.38608198  0.86639642  0.51021107  1
  H+  H38  1  0.34994528  0.62631191  0.35687388  1
  H+  H39  1  0.88857360  0.77127294  0.49936976  1
  H+  H40  1  0.10197105  0.71224954  0.34305903  1
  H+  H41  1  0.76321679  0.63773084  0.66464662  1
  H+  H42  1  0.08908484  0.83412796  0.31861261  1
  H+  H43  1  0.86009900  0.36325945  0.83658382  1
  H+  H44  1  0.60894811  0.70421839  -0.00519006  1
  H+  H45  1  0.62411916  0.73161684  0.82101325  1
  H+  H46  1  0.26445274  0.14187406  0.67814333  1
  H+  H47  1  -0.02122447  0.61470415  0.31736774  1
  H+  H48  1  0.75168134  0.87569785  0.18270854  1
  H+  H49  1  0.85733909  0.39129903  0.00468706  1
  H+  H50  1  0.35817447  0.59467864  0.83966686  1
  H+  H51  1  0.83395631  0.91393332  0.42900725  1
  H+  H52  1  0.83592959  0.47941411  0.16031871  1
  H+  H53  1  0.59351959  0.38189818  0.14043562  1
  H+  H54  1  0.89907050  1.02634938  0.82317665  1
  H+  H55  1  0.63200135  0.60830578  0.50450086  1
  H+  H56  1  0.34070260  0.13216525  0.00245916  1
  H+  H57  1  0.47850292  0.35537847  0.32444211  1
  H+  H58  1  0.25167950  0.84382431  0.35689000  1
  H+  H59  1  0.77875701  0.88806870  0.82784611  1
  H+  H60  1  0.48484235  0.39086464  0.82365022  1
  H+  H61  1  0.15658219  0.07931171  0.27118254  1
  H+  H62  1  0.46424643  0.19010076  0.21398573  1
  H+  H63  1  0.92988382  0.09168661  0.77030961  1
  H+  H64  1  0.39023045  0.64720185  0.16059497  1
  H+  H65  1  0.92221092  0.35454951  0.53988771  1
  H+  H66  1  0.44176035  0.64712628  0.29728351  1
  H+  H67  1  0.88937229  0.01633729  0.50938707  1
  H+  H68  1  0.05361845  0.15977776  0.81645029  1
  H+  H69  1  0.86405877  0.88555061  0.66836539  1
  H+  H70  1  0.88225547  0.76717104  0.83332550  1
  H+  H71  1  0.63760742  0.04244412  0.98356549  1
  H+  H72  1  0.38501925  0.11871133  0.49763749  1
  H+  H73  1  0.04658454  0.39565241  0.34662846  1
  H+  H74  1  0.58909921  0.16869794  0.39417611  1
  H+  H75  1  0.84210482  0.39582672  0.49343211  1
  H+  H76  1  0.63143443  0.28197981  0.66274185  1
  H+  H77  1  0.61198916  0.48219766  0.49369468  1
  H+  H78  1  0.21455775  0.87808839  -0.00093391  1
  H+  H79  1  0.18314914  0.59349557  0.26220367  1
  H+  H80  1  0.60957773  0.13756839  0.48795250  1
  H+  H81  1  0.97339384  0.10795841  0.18537620  1
  H+  H82  1  0.49299171  0.87273144  0.81663218  1
  H+  H83  1  0.73221219  0.85604946  0.98209097  1
  H+  H84  1  0.50600598  0.38959738  0.67216738  1
  H+  H85  1  0.35716623  0.48242039  0.67613937  1
  H+  H86  1  0.91242496  0.48044390  0.73179341  1
  H+  H87  1  0.88538454  0.11051889  0.18853811  1
  H+  H88  1  0.39526205  0.77268428  0.17973981  1
  H+  H89  1  0.75790431  0.62760091  0.16365249  1
  H+  H90  1  0.62965886  0.27594328  -0.00201513  1
  H+  H91  1  0.72474072  0.11540869  0.51047905  1
  H+  H92  1  1.01126571  0.88434870  0.34533191  1
  H+  H93  1  0.07951002  0.91253585  0.39908271  1
  H+  H94  1  0.97429155  0.86063120  0.65393895  1
  H+  H95  1  0.60897573  0.14027493  0.82117934  1
  H+  H96  1  0.52100212  0.13139530  0.16310737  1
  H+  H97  1  0.61152052  0.72794908  0.66527110  1
  H+  H98  1  0.24792541  0.61661321  0.17501850  1
  H+  H99  1  0.15875287  0.07703024  0.89469005  1
  H+  H100  1  0.85766624  0.99460855  0.33828855  1
  H+  H101  1  0.77006043  0.13871320  0.17065230  1
  H+  H102  1  0.79512694  0.38832042  0.34820888  1
  H+  H103  1  0.82136556  0.38008415  0.15368486  1
  H+  H104  1  0.59098010  0.67250858  0.76164127  1
  H+  H105  1  0.60846524  -0.01592197  0.18741639  1
  H+  H106  1  0.51995791  0.64097562  0.66871620  1
  H+  H107  1  0.36513635  0.13719302  0.82821404  1
  H+  H108  1  0.14004125  0.61352498  0.85163170  1
  H+  H109  1  0.27829881  0.88937828  0.82675724  1
  H+  H110  1  0.42278689  0.91899225  0.34822547  1
  H+  H111  1  0.34710820  0.70857092  1.01673045  1
  H+  H112  1  0.50766274  0.88192249  0.18821991  1
  H+  H113  1  0.84219145  0.96574172  0.18269453  1
  H+  H114  1  0.89415600  0.62455188  0.83463401  1
  H+  H115  1  0.72207955  0.11967708  0.66352618  1
  H+  H116  1  0.61642390  0.37952752  0.34803458  1
  H+  H117  1  0.37502461  0.36576303  0.66331819  1
  H+  H118  1  0.11198536  0.48326481  0.68334486  1
  H+  H119  1  0.63576748  0.59379467  0.32372363  1
  H+  H120  1  0.89903050  0.27298616  0.19150731  1
  H+  H121  1  0.88152129  0.53210598  0.65830175  1
  H+  H122  1  0.13155906  0.62154014  0.66475082  1
  H+  H123  1  0.09538862  0.37283848  0.00957394  1
  H+  H124  1  0.91117717  0.37416656  0.34544113  1
  H+  H125  1  0.10213345  0.21588417  0.16370107  1
  H+  H126  1  0.13491156  0.11494574  0.65669957  1
  H+  H127  1  0.37634272  0.27703754  0.66317243  1
  H+  H128  1  0.58582417  0.90980289  0.04748306  1
  H+  H129  1  0.91002066  0.82254673  0.92711753  1
  H+  H130  1  0.40717247  0.52923226  0.15613356  1
  H+  H131  1  0.11389432  0.88985780  0.66678507  1
  H+  H132  1  0.62661801  0.38545825  0.50875690  1
  H+  H133  1  0.60192830  0.47578810  0.14808946  1
  H+  H134  1  0.71327819  0.59612799  0.98434021  1
  H+  H135  1  -0.01552074  0.61627479  0.50552640  1
  H+  H136  1  0.20230535  0.11170477  0.98868999  1
  H+  H137  1  0.35207552  0.14140074  0.15667583  1
  H+  H138  1  0.34681319  0.08833032  0.31969611  1
  H+  H139  1  0.61610985  0.15546556  0.66974764  1
  H+  H140  1  0.36096788  0.73258704  0.67229271  1
  H+  H141  1  0.13535377  0.78159500  0.65279825  1
  H+  H142  1  0.23489568  0.36501893  0.16281341  1
  H+  H143  1  0.40624837  0.33491038  0.56639143  1
  H+  H144  1  0.35164647  1.00761445  0.65189472  1
  H+  H145  1  0.46943149  0.36546068  0.50926298  1
  H+  H146  1  0.87441709  0.85399363  0.34498499  1
  H+  H147  1  0.86284372  0.89089561  -0.00801652  1
  H+  H148  1  0.92614333  0.32560304  0.62974708  1
  H+  H149  1  0.34650540  0.42585154  0.39224474  1
  H+  H150  1  0.86201242  0.60018273  0.16987748  1
  H+  H151  1  0.98510449  0.12314926  0.33735049  1
  H+  H152  1  0.11551824  0.14406127  0.34645841  1
  H+  H153  1  0.11756531  0.23304874  0.66406738  1
  H+  H154  1  0.25178597  0.88463934  0.34962525  1
  H+  H155  1  0.86728015  0.21392583  0.50785952  1
  H+  H156  1  0.30070237  0.46655550  0.83007366  1
  H+  H157  1  0.13290302  0.36305793  0.66287845  1
  H+  H158  1  0.87792955  0.76929699  -0.01097340  1
  H+  H159  1  0.90000335  0.63256529  0.31412480  1
  H+  H160  1  0.87182605  0.98217319  -0.01505117  1
  H+  H161  1  0.19826071  0.28750363  0.82563261  1
  H+  H162  1  0.36891706  -0.01518771  0.49585738  1
  H+  H163  1  0.37927926  1.01963899  0.32027101  1
  H+  H164  1  0.13197909  0.39020257  0.15878413  1
  H+  H165  1  0.13217588  1.02364557  0.66103067  1
  H+  H166  1  0.87240068  0.13440758  0.83747475  1
  H+  H167  1  0.46422322  0.59543555  -0.01397813  1
  H+  H168  1  0.23104377  0.61868792  0.84344992  1
  H+  H169  1  0.51624726  0.88915441  0.50060925  1
  H+  H170  1  0.12933787  0.01865630  0.17599832  1
  H+  H171  1  0.39643551  0.83659349  0.96444330  1
  H+  H172  1  0.27060318  0.63597600  0.50433802  1
  H+  H173  1  0.60386389  0.14494519  0.00102535  1
  H+  H174  1  0.10332058  0.89421893  0.00177810  1
  H+  H175  1  0.84940993  0.61390700  0.00572311  1
  H+  H176  1  0.36539814  0.88955951  0.67240130  1
  H+  H177  1  0.61394302  0.38658342  -0.00033547  1
  H+  H178  1  0.73267340  0.86860501  0.65531566  1
  H+  H179  1  1.01250028  0.88893120  1.00388025  1
  H+  H180  1  0.98054402  0.10478058  -0.07668404  1
  H+  H181  1  0.62625997  0.25887656  0.84365301  1
  H+  H182  1  0.68180655  0.94354640  0.06503763  1
  H+  H183  1  0.12780487  1.02036922  0.33060357  1
  H+  H184  1  0.58918924  0.48918052  0.82457982  1
  H+  H185  1  0.15243158  0.53212519  0.32100792  1
  H+  H186  1  0.85258628  0.71745795  0.34000144  1
  H+  H187  1  0.34858267  0.13796702  0.67275138  1
  H+  H188  1  0.22714927  0.11138603  0.50577320  1
  H+  H189  1  0.11431491  0.13848624  0.52059567  1
  H+  H190  1  0.22916375  0.86474680  0.65585492  1
  H+  H191  1  0.97488990  0.62547282  0.99268293  1
  H+  H192  1  0.26815973  0.61419508  0.01787437  1
  H+  H193  1  0.13696587  0.27580668  0.42189494  1
  H+  H194  1  0.63198309  0.60511678  0.15962996  1
  H+  H195  1  0.64367594  0.86860609  0.83451988  1
  H+  H196  1  0.86546851  0.63622587  0.49082144  1
  H+  H197  1  0.46340196  0.11691291  0.99545810  1
  H+  H198  1  0.51826569  0.13815835  0.82884089  1
  H+  H199  1  0.41242066  0.08298111  0.90131308  1
  H+  H200  1  0.88372030  0.10049089  0.51342371  1
  H+  H201  1  0.86305991  0.49392013  0.49826365  1
  H+  H202  1  0.13718218  0.51779253  0.51534452  1
  H+  H203  1  0.86586653  0.24196126  0.98104980  1
  H+  H204  1  0.61960428  0.89701002  0.66285462  1
  H+  H205  1  0.53600112  0.62184740  0.33315713  1
  H+  H206  1  0.86132548  0.87756803  0.48621043  1
  H+  H207  1  0.39137613  0.32576881  -0.06836097  1
  H+  H208  1  0.26987831  0.64419865  0.67251869  1
  H+  H209  1  0.91155878  0.27972688  0.84938300  1
  H+  H210  1  0.61096529  0.48045540  -0.00824668  1
  H+  H211  1  0.22057144  0.86067689  0.18003232  1
  H+  H212  1  0.62981713  0.14528959  0.33758056  1
  H+  H213  1  0.80290329  0.90701589  0.30329804  1
  H+  H214  1  0.39744826  0.77430454  0.33825287  1
  H+  H215  1  0.61984197  -0.01812199  0.81435340  1
  H+  H216  1  0.37483959  0.26781148  0.83507402  1
  H+  H217  1  0.46668232  0.36186183  0.16370040  1
  H+  H218  1  -0.01507129  0.36731619  0.68716089  1
  H+  H219  1  0.97338309  0.36878748  1.00161576  1
  H+  H220  1  0.26078842  0.13456492  0.33928511  1
  H+  H221  1  0.65032989  0.27029472  0.33504731  1
  H+  H222  1  0.14144335  0.86510296  0.83633092  1
  H+  H223  1  0.11151697  0.97112500  0.82257413  1
  H+  H224  1  0.04331111  0.72291043  0.72285629  1
  H+  H225  1  0.47898354  0.86777152  0.66099591  1
  H+  H226  1  0.72610832  0.12919415  0.97580918  1
  H+  H227  1  0.36972447  0.89266689  0.82155180  1
  H+  H228  1  0.72323810  0.59305523  0.31751321  1
  H+  H229  1  0.38251610  0.60959296  0.50756144  1
  H+  H230  1  0.92201828  0.37019378  0.19632224  1
  H+  H231  1  0.30782346  0.41990449  0.73210869  1
  H+  H232  1  0.73020664  0.34275946  0.84676385  1
  H+  H233  1  0.61557495  0.98524333  0.66592401  1
  H+  H234  1  0.63331904  0.02947942  0.51225292  1
  H+  H235  1  0.76456484  0.62985866  0.81782213  1
  H+  H236  1  0.34707005  0.33942668  0.83969109  1
  H+  H237  1  0.72269112  0.85651565  0.48735379  1
  H+  H238  1  0.88805684  0.53062490  0.98723655  1
  H+  H239  1  0.36402023  0.39058211  0.15209593  1
  H+  H240  1  0.00208724  0.65023438  0.67423221  1
  H+  H241  1  0.15031288  0.41037414  0.82222363  1
  H+  H242  1  0.12234738  0.23283829  0.33040351  1
  H+  H243  1  0.23300425  0.86430329  0.49810657  1
  H+  H244  1  0.85475901  0.72749506  0.66320663  1
  H+  H245  1  0.12145770  0.63490989  0.34134245  1
  H+  H246  1  0.26524272  0.37667543  0.47109467  1
  H+  H247  1  0.36123989  -0.02440294  0.18054550  1
  H+  H248  1  0.63231376  0.10949972  0.17948868  1
  H+  H249  1  0.34064222  0.46196391  0.00163666  1
  H+  H250  1  0.12178956  0.72456916  0.14969683  1
  H+  H251  1  0.91643466  0.83345330  0.59337900  1
  H+  H252  1  0.13269072  0.64246235  0.14736129  1
  H+  H253  1  0.88574717  0.40047056  0.68956024  1
  H+  H254  1  0.71567538  0.37680643  0.66654662  1
  H+  H255  1  0.72454168  0.38757831  0.51335415  1
  H+  H256  1  0.13108420  0.48621603  0.83602331  1
  H+  H257  1  0.99954220  0.34007270  0.53829224  1
  H+  H258  1  0.62097096  0.74217230  0.17681959  1
  H+  H259  1  0.83649648  0.16640569  0.44324528  1
  H+  H260  1  0.13316898  0.60542562  0.51061473  1
  H+  H261  1  0.34897504  0.22718944  0.15477422  1
  H+  H262  1  0.63897760  0.83535767  0.99962597  1
  H+  H263  1  0.35552568  0.38490290  0.48867804  1
  H+  H264  1  0.07858161  0.66884566  0.05616980  1
  H+  H265  1  0.67482935  0.84092374  0.59550704  1
  H+  H266  1  0.60482466  0.71563566  0.48513967  1
  H+  H267  1  0.62384937  0.59918809  -0.01688840  1
  H+  H268  1  0.11673222  1.02025843  -0.01243310  1
  H+  H269  1  0.65810400  0.02979432  0.33208793  1
  H+  H270  1  0.86021601  0.85368114  0.19539203  1
  H+  H271  1  1.04533224  0.38979730  0.17075255  1
  H+  H272  1  0.20048430  0.34893779  0.99605939  1
  H+  H273  1  0.77461267  0.63308620  0.49195496  1
  H+  H274  1  0.72289355  0.36533451  -0.00613900  1
  H+  H275  1  0.64756082  0.83584089  0.44270025  1
  H+  H276  1  0.72707686  0.11682354  0.83685392  1
  H+  H277  1  0.49380418  0.85449012  0.33360372  1
  H+  H278  1  0.60667477  -0.10856464  0.49749196  1
  H+  H279  1  0.83714633  0.16500658  0.89317767  1
  H+  H280  1  0.38259645  0.61790103  0.65963385  1
  H+  H281  1  0.63028660  0.61546441  0.82930641  1
  H+  H282  1  0.35467771  0.21981003  0.33471054  1
  H+  H283  1  0.41697530  0.82636025  0.24398250  1
  H+  H284  1  0.86690534  0.97504142  0.68279669  1
  H+  H285  1  0.70096897  0.36086325  0.15913566  1
  H+  H286  1  0.90730571  0.57614614  0.22233462  1
  H+  H287  1  0.36834391  0.72894621  0.81902135  1
  H+  H288  1  0.15719675  0.58569467  0.60671934  1
  H+  H289  1  0.30990674  0.16046366  0.06156236  1
  H+  H290  1  0.58259395  0.18272228  0.72763633  1
  H+  H291  1  0.15751240  0.37154171  0.31681487  1
  H+  H292  1  0.87488137  0.14467321  0.34975706  1
  H+  H293  1  0.41638378  0.83674404  0.60361327  1
  H+  H294  1  0.17384672  0.83514894  0.55729348  1
  H+  H295  1  0.40995593  0.58250225  0.60178169  1
  H+  H296  1  0.58855981  0.92497540  0.41108603  1
  H+  H297  1  0.17746426  0.57385336  0.94379246  1
  H+  H298  1  0.12774424  0.43499972  0.39239420  1
  H+  H299  1  0.58314183  0.64673836  0.05565711  1
  H+  H300  1  0.66778151  0.70881505  0.11656332  1
  H+  H301  1  0.66682173  0.83283528  0.89494524  1
  H+  H302  1  0.62680257  0.32527701  0.21081567  1
  H+  H303  1  0.66125238  0.57921689  0.56460117  1
  H+  H304  1  0.65134844  0.56448592  0.22403776  1
  H+  H305  1  0.85555515  0.43868911  0.40132817  1
  H+  H306  1  0.29191612  0.02814266  0.61296895  1
  H+  H307  1  0.11609399  0.88609161  0.49047656  1
  H+  H308  1  0.67151245  0.08833584  0.24082866  1
  H+  H309  1  0.44516794  0.83909340  0.87761892  1
  H+  H310  1  0.58422062  0.64420144  0.39681176  1
  H+  H311  1  0.38336645  0.77487639  0.51171683  1
  H+  H312  1  0.14093914  0.81748591  0.22666282  1
  H+  H313  1  0.86895646  0.15337970  -0.01252951  1
  H+  H314  1  0.65644547  0.08589988  0.88705438  1
  H+  H315  1  0.29842145  0.77642942  0.95199742  1
  H+  H316  1  0.32798358  0.16907993  0.43003963  1
  H+  H317  1  0.39483015  0.36388922  0.32189330  1
  H+  H318  1  0.94008441  0.33739607  0.28935295  1
  H+  H319  1  0.63653531  0.77749996  0.24356394  1
  H+  H320  1  0.11462017  0.89185388  0.15575380  1
  H+  H321  1  0.58365208  0.41509571  0.43541494  1
  H+  H322  1  0.66595819  0.09363030  0.60200217  1
  H+  H323  1  0.82343941  0.66413941  0.75876311  1
  H+  H324  1  0.66119793  0.32384351  0.90696481  1
  H+  H325  1  0.33309702  0.91945498  0.73102366  1
  H+  H326  1  0.14335143  0.77728472  0.84375594  1
  H+  H327  1  0.09882538  0.12649984  0.17033382  1
  H+  H328  1  0.33872296  0.37209078  0.00166803  1
  H+  H329  1  0.34707506  0.66989061  0.10629163  1
  H+  H330  1  0.10648745  0.18131160  0.72579860  1
  H+  H331  1  0.74475131  0.12093123  0.33153114  1
  H+  H332  1  0.44069816  0.58582428  0.24675757  1
  H+  H333  1  0.09553852  0.42760196  0.74441591  1
  H+  H334  1  0.70015985  0.90436748  0.35783808  1
  H+  H335  1  0.33008304  0.41656184  0.09181451  1
  H+  H336  1  0.32605193  0.66807744  0.44337208  1
  H+  H337  1  0.82005602  0.42081098  0.06092623  1
  H+  H338  1  0.82744290  0.65135747  0.39349906  1
  H+  H339  1  0.65417542  0.57464097  0.88804033  1
  H+  H340  1  0.17108071  0.07863300  0.56733062  1
  H+  H341  1  0.92026321  0.59797938  0.89665589  1
  H+  H342  1  0.12676429  0.25350525  0.49158973  1
  H+  H343  1  0.18038521  0.33567976  0.22406835  1
  H+  H344  1  0.97787945  0.86154613  0.50065616  1
  H+  H345  1  0.66183573  0.35453676  0.57587243  1
  H+  H346  1  0.81724796  0.16137507  0.74474613  1
  H+  H347  1  0.41509161  0.33321213  0.22720667  1
  H+  H348  1  0.89698637  0.82602745  0.28031258  1
  H+  H349  1  0.77318972  0.56637025  0.05158845  1
  H+  H350  1  0.92766026  0.35290634  0.93659993  1
  H+  H351  1  0.08400709  0.92656277  0.10005725  1
  H+  H352  1  0.16783152  0.84746749  0.93373852  1
  H+  H353  1  0.02321620  0.88090538  0.82307900  1
  H+  H354  1  0.37843059  0.55439097  0.89833205  1
  H+  H355  1  0.07637833  0.41022899  0.07085981  1
  H+  H356  1  0.32836657  0.66576255  0.76311155  1
  H+  H357  1  0.08059553  0.91199962  0.72834993  1
  H+  H358  1  0.36549433  0.89027844  0.17326538  1
  H+  H359  1  0.15746388  0.52802941  0.17312486  1
  H+  H360  1  0.59574203  0.90110088  0.14539164  1
  H+  H361  1  0.13095863  0.14133220  0.82166309  1
  H+  H362  1  0.59505669  0.92302649  0.75411547  1
  H+  H363  1  0.08912833  0.66226202  0.78045343  1
  H+  H364  1  0.57558567  0.42023418  0.05850186  1
  H+  H365  1  0.35975500  0.93124408  0.43746658  1
  H+  H366  1  0.83739987  0.17169620  0.11629744  1
  H+  H367  1  0.33092676  0.16481516  0.76910045  1
  H+  H368  1  0.57326279  0.16220149  0.06475861  1
  H+  H369  1  0.07356344  0.11513192  -0.01050362  1
  H+  H370  1  0.82544758  0.67134108  0.10997883  1
  H+  H371  1  0.11541499  0.97504644  0.49423681  1
  H+  H372  1  0.92107875  0.59139469  0.56420461  1
  H+  H373  1  0.47903453  1.01372403  0.37403678  1
  H+  H374  1  0.08754930  0.65795276  0.43673369  1
  H+  H375  1  0.60732842  0.21494641  0.15190788  1
  H+  H376  1  0.32074499  0.92858304  0.08012535  1
  H+  H377  1  0.62598372  0.52250364  0.65931471  1
  H+  H378  1  0.83360084  0.90789848  0.76696958  1
  H+  H379  1  0.81928270  0.38660852  0.77938914  1
  H+  H380  1  0.70159018  0.34443320  0.28512381  1
  H+  H381  1  0.22074114  0.36527792  0.65609015  1
  H+  H382  1  0.40671071  0.09582420  0.24001217  1
  H+  H383  1  0.88701255  0.85839163  0.83679459  1
  O2-  O384  1  0.06464304  0.15358178  0.15731878  1
  O2-  O385  1  0.08863405  0.17512441  0.52823390  1
  O2-  O386  1  0.11484278  0.18401819  0.80593129  1
  O2-  O387  1  0.10015488  0.42214922  0.14883020  1
  O2-  O388  1  0.08559861  0.40138063  0.48544866  1
  O2-  O389  1  0.10488798  0.42614763  0.81882363  1
  O2-  O390  1  0.09991655  0.66771280  0.13007614  1
  O2-  O391  1  0.08714006  0.66002903  0.48271798  1
  O2-  O392  1  0.08984900  0.66837297  0.82473515  1
  O2-  O393  1  0.08936134  0.92796898  0.14476685  1
  O2-  O394  1  0.08324174  0.91463390  0.47800870  1
  O2-  O395  1  0.08321112  0.91059115  0.80685923  1
  O2-  O396  1  0.31813630  0.16623398  0.14029261  1
  O2-  O397  1  0.33033533  0.16840012  0.47565588  1
  O2-  O398  1  0.33194319  0.16510317  0.81467310  1
  O2-  O399  1  0.33909997  0.42585383  0.13745927  1
  O2-  O400  1  0.32874794  0.41604369  0.46913661  1
  O2-  O401  1  0.25260301  0.41048497  0.80594468  1
  O2-  O402  1  0.35705411  0.67697661  0.15173782  1
  O2-  O403  1  0.33067087  0.66821547  0.48843259  1
  O2-  O404  1  0.32996173  0.66771211  0.80872589  1
  O2-  O405  1  0.33608002  0.92117476  0.15868239  1
  O2-  O406  1  0.34264756  0.92359639  0.48091566  1
  O2-  O407  1  0.33816689  0.92266886  0.80987978  1
  O2-  O408  1  0.57845511  0.15207899  0.14347961  1
  O2-  O409  1  0.57925449  0.16306876  0.46648707  1
  O2-  O410  1  0.57885188  0.17318145  0.81272911  1
  O2-  O411  1  0.56781406  0.41685909  0.12671869  1
  O2-  O412  1  0.58269143  0.41878796  0.48150762  1
  O2-  O413  1  0.54820360  0.42487093  0.80824579  1
  O2-  O414  1  0.61037063  0.66208169  0.12650723  1
  O2-  O415  1  0.57624555  0.65279773  0.47689820  1
  O2-  O416  1  0.59585621  0.67124931  0.80654633  1
  O2-  O417  1  0.57696289  0.91772518  0.18333330  1
  O2-  O418  1  0.57723660  0.92339830  0.48529966  1
  O2-  O419  1  0.59268898  0.92117948  0.80007973  1
  O2-  O420  1  0.83277330  0.17249157  0.16039491  1
  O2-  O421  1  0.82978578  0.15810398  0.48830372  1
  O2-  O422  1  0.84017209  0.16553618  0.84793900  1
  O2-  O423  1  0.79713437  0.41453386  0.13920821  1
  O2-  O424  1  0.81953718  0.43324718  0.48295561  1
  O2-  O425  1  0.81184364  0.37191870  0.82297023  1
  O2-  O426  1  0.82130627  0.66419417  0.15435547  1
  O2-  O427  1  0.83352025  0.66386540  0.47446993  1
  O2-  O428  1  0.82517654  0.66365082  0.80406578  1
  O2-  O429  1  0.81205503  0.90526491  0.16887079  1
  O2-  O430  1  0.82848329  0.90662425  0.47329973  1
  O2-  O431  1  0.83906198  0.91437661  0.81213091  1
  O2-  O432  1  0.15592871  0.07850261  0.19513845  1
  O2-  O433  1  0.16752820  0.07621899  0.52197822  1
  O2-  O434  1  0.16387685  0.07536154  0.84917631  1
  O2-  O435  1  0.17473730  0.33385454  0.17891973  1
  O2-  O436  1  0.15182388  0.30628482  0.46121953  1
  O2-  O437  1  0.25180441  0.33965675  0.84018354  1
  O2-  O438  1  0.18714801  0.58839677  0.18883344  1
  O2-  O439  1  0.16402202  0.57760706  0.53009097  1
  O2-  O440  1  0.17320016  0.58466676  0.86275476  1
  O2-  O441  1  0.15746625  0.82760167  0.18278247  1
  O2-  O442  1  0.17191321  0.83117245  0.51206773  1
  O2-  O443  1  0.17517778  0.83987297  0.85427435  1
  O2-  O444  1  0.43669121  0.13052817  0.20029744  1
  O2-  O445  1  0.41518287  0.08868278  0.51408488  1
  O2-  O446  1  0.41853861  0.08565228  0.85593256  1
  O2-  O447  1  0.40830191  0.33093320  0.18196159  1
  O2-  O448  1  0.40803770  0.33492193  0.52094949  1
  O2-  O449  1  0.39636406  0.32947943  0.84690498  1
  O2-  O450  1  0.44312248  0.58953748  0.17240269  1
  O2-  O451  1  0.41163391  0.57775657  0.52130469  1
  O2-  O452  1  0.36584186  0.54655586  0.85385485  1
  O2-  O453  1  0.41991714  0.83264083  0.19832703  1
  O2-  O454  1  0.41591689  0.83576969  0.52618817  1
  O2-  O455  1  0.43261234  0.84203100  0.83498408  1
  O2-  O456  1  0.66451698  0.08100476  0.19505829  1
  O2-  O457  1  0.66460712  0.09035464  0.52598919  1
  O2-  O458  1  0.66344957  0.08731457  0.84219225  1
  O2-  O459  1  0.63649955  0.32156980  0.16759692  1
  O2-  O460  1  0.66352246  0.35799033  0.52947588  1
  O2-  O461  1  0.66522690  0.32060733  0.86094756  1
  O2-  O462  1  0.65429004  0.56511242  0.17871458  1
  O2-  O463  1  0.66349907  0.57849412  0.51903025  1
  O2-  O464  1  0.65150592  0.57359121  0.84272249  1
  O2-  O465  1  0.63874054  0.79537651  0.20155364  1
  O2-  O466  1  0.65812816  0.82911691  0.48646138  1
  O2-  O467  1  0.67349443  0.83840085  0.84990088  1
  O2-  O468  1  0.91275116  0.07904271  0.20453961  1
  O2-  O469  1  0.91593326  0.07327980  0.52891259  1
  O2-  O470  1  0.93018314  0.08995700  0.81636790  1
  O2-  O471  1  0.93970247  0.32999779  0.21011921  1
  O2-  O472  1  0.93933269  0.31378810  0.55343058  1
  O2-  O473  1  0.93794560  0.34208082  0.85828354  1
  O2-  O474  1  0.88404867  0.56033021  0.18007565  1
  O2-  O475  1  0.92249184  0.58805686  0.51885213  1
  O2-  O476  1  0.92871307  0.60069567  0.85174739  1
  O2-  O477  1  0.88864581  0.82326603  0.21409759  1
  O2-  O478  1  0.91650057  0.83162966  0.51471712  1
  O2-  O479  1  0.91624727  0.82629167  0.85084904  1
  O2-  O480  1  0.15832323  0.08161752  0.31703388  1
  O2-  O481  1  0.16667600  0.08374484  0.64573971  1
  O2-  O482  1  0.14345933  0.08042743  0.97035464  1
  O2-  O483  1  0.18427095  0.33817663  0.30208649  1
  O2-  O484  1  0.15979666  0.33320994  0.64299577  1
  O2-  O485  1  0.14011245  0.32450896  0.98182551  1
  O2-  O486  1  0.18106123  0.59350993  0.30847450  1
  O2-  O487  1  0.15950777  0.58935880  0.65233638  1
  O2-  O488  1  0.17995252  0.57081143  0.98858327  1
  O2-  O489  1  0.09402279  0.78766663  0.29701890  1
  O2-  O490  1  0.17087590  0.84055298  0.63665009  1
  O2-  O491  1  0.15798369  0.84608297  0.97840205  1
  O2-  O492  1  0.35705543  0.04870272  0.29376150  1
  O2-  O493  1  0.35024935  0.05553062  0.62917485  1
  O2-  O494  1  0.40406528  0.08517266  0.97888357  1
  O2-  O495  1  0.41997265  0.32917736  0.30615315  1
  O2-  O496  1  0.40621908  0.33700368  0.64667727  1
  O2-  O497  1  0.38903117  0.32580243  0.97636543  1
  O2-  O498  1  0.43629115  0.59080180  0.29248535  1
  O2-  O499  1  0.41282399  0.58649658  0.64703099  1
  O2-  O500  1  0.40266535  0.56890272  0.97468299  1
  O2-  O501  1  0.43356414  0.83215145  0.31968943  1
  O2-  O502  1  0.41692820  0.83761840  0.64917860  1
  O2-  O503  1  0.34111785  0.80267513  0.98429943  1
  O2-  O504  1  0.68485657  0.08794482  0.31416942  1
  O2-  O505  1  0.66230550  0.09127406  0.64776241  1
  O2-  O506  1  0.66241212  0.10055144  0.96757376  1
  O2-  O507  1  0.68393647  0.33641433  0.32745339  1
  O2-  O508  1  0.65814148  0.34620075  0.64884192  1
  O2-  O509  1  0.66055249  0.33525165  0.97956247  1
  O2-  O510  1  0.66174189  0.56045366  0.30465731  1
  O2-  O511  1  0.65911525  0.58185445  0.64232188  1
  O2-  O512  1  0.65421275  0.56793515  0.96604235  1
  O2-  O513  1  0.63820785  0.86542211  0.36788044  1
  O2-  O514  1  0.67162935  0.84083787  0.63978836  1
  O2-  O515  1  0.66903494  0.81590982  0.97261771  1
  O2-  O516  1  0.92340687  0.09388502  0.32350436  1
  O2-  O517  1  0.92269820  0.08452530  0.69573749  1
  O2-  O518  1  0.95896521  0.09972383  0.96501580  1
  O2-  O519  1  0.94303035  0.34251110  0.33442958  1
  O2-  O520  1  0.92206104  0.33520197  0.67383314  1
  O2-  O521  1  0.91443575  0.34388594  0.98097668  1
  O2-  O522  1  0.94490738  0.62897405  0.28942512  1
  O2-  O523  1  0.90777049  0.59042361  0.64054782  1
  O2-  O524  1  0.91189807  0.59156494  0.97560887  1
  O2-  O525  1  0.90379231  0.82548852  0.32785557  1
  O2-  O526  1  0.91371115  0.83143917  0.63889599  1
  O2-  O527  1  0.90880428  0.82739019  0.97276392  1
  O2-  O528  1  0.03916729  0.14367634  0.00099665  1
  O2-  O529  1  0.09105887  0.18163022  0.35701532  1
  O2-  O530  1  0.09165061  0.17281596  0.68177113  1
  O2-  O531  1  0.06782460  0.40668089  0.02598052  1
  O2-  O532  1  0.11174997  0.42880740  0.34942726  1
  O2-  O533  1  0.08519869  0.42368095  0.69917264  1
  O2-  O534  1  0.06578829  0.67323020  0.01232331  1
  O2-  O535  1  0.08590103  0.65562468  0.36201745  1
  O2-  O536  1  0.05786567  0.68845366  0.69637547  1
  O2-  O537  1  0.07309895  0.92441843  0.01736282  1
  O2-  O538  1  0.07423841  0.91178082  0.35384101  1
  O2-  O539  1  0.07915029  0.91459607  0.68285359  1
  O2-  O540  1  0.30672227  0.15874523  0.01624163  1
  O2-  O541  1  0.32255229  0.16161388  0.35311057  1
  O2-  O542  1  0.32611532  0.17272447  0.69218292  1
  O2-  O543  1  0.30962414  0.40327936  0.01952892  1
  O2-  O544  1  0.34848818  0.42414454  0.34663512  1
  O2-  O545  1  0.32621671  0.42105603  0.68946673  1
  O2-  O546  1  0.33103984  0.65173534  0.03316860  1
  O2-  O547  1  0.32989770  0.66706904  0.36302683  1
  O2-  O548  1  0.33058515  0.67126468  0.68627462  1
  O2-  O549  1  0.31640622  0.92907759  0.03504052  1
  O2-  O550  1  0.42004210  0.96808274  0.36686612  1
  O2-  O551  1  0.33025874  0.91597605  0.68565818  1
  O2-  O552  1  0.57376997  0.17268510  0.02009386  1
  O2-  O553  1  0.59710761  0.17414676  0.34830920  1
  O2-  O554  1  0.58953451  0.18986289  0.68315385  1
  O2-  O555  1  0.58306596  0.41915158  0.01160960  1
  O2-  O556  1  0.58281451  0.40732726  0.36026251  1
  O2-  O557  1  0.56562450  0.42119191  0.69075897  1
  O2-  O558  1  0.57572336  0.64376126  0.00918612  1
  O2-  O559  1  0.59307874  0.64590470  0.35216529  1
  O2-  O560  1  0.58172842  0.66844815  0.68130903  1
  O2-  O561  1  0.62327533  0.89566442  0.07076873  1
  O2-  O562  1  0.59908754  0.92050166  0.36577311  1
  O2-  O563  1  0.58713194  0.92372363  0.68003561  1
  O2-  O564  1  0.83271890  0.17670789  -0.02595971  1
  O2-  O565  1  0.84158710  0.17253164  0.36492894  1
  O2-  O566  1  0.82594287  0.16677020  0.70081914  1
  O2-  O567  1  0.82263312  0.41909173  0.01569933  1
  O2-  O568  1  0.85692479  0.42226650  0.35892642  1
  O2-  O569  1  0.86533837  0.44020051  0.70575448  1
  O2-  O570  1  0.80097122  0.61914867  0.02771048  1
  O2-  O571  1  0.82781348  0.65451614  0.34833933  1
  O2-  O572  1  0.82457225  0.66681926  0.67878705  1
  O2-  O573  1  0.83191024  0.92303466  -0.00177644  1
  O2-  O574  1  0.81226767  0.93145963  0.34413224  1
  O2-  O575  1  0.83108008  0.91119970  0.68670151  1
