# generated using pymatgen
data_H2O
_symmetry_space_group_name_H-M   'P 1'
_cell_length_a   17.97597901
_cell_length_b   17.97054450
_cell_length_c   21.98840188
_cell_angle_alpha   89.94847411
_cell_angle_beta   90.01517150
_cell_angle_gamma   120.00488123
_symmetry_Int_Tables_number   1
_chemical_formula_structural   H2O
_chemical_formula_sum   'H384 O192'
_cell_volume   6151.15310598
_cell_formula_units_Z   192
loop_
 _symmetry_equiv_pos_site_id
 _symmetry_equiv_pos_as_xyz
  1  'x, y, z'
loop_
 _atom_type_symbol
 _atom_type_oxidation_number
  H+  1.0
  O2-  -2.0
loop_
 _atom_site_type_symbol
 _atom_site_label
 _atom_site_symmetry_multiplicity
 _atom_site_fract_x
 _atom_site_fract_y
 _atom_site_fract_z
 _atom_site_occupancy
  H+  H0  1  0.14355633  0.87373078  0.20673388  1
  H+  H1  1  0.02058793  0.61688688  0.34745761  1
  H+  H2  1  0.29314217  0.92898923  0.20755379  1
  H+  H3  1  0.47034584  0.59283603  0.98191911  1
  H+  H4  1  0.61948343  0.47912658  0.34367266  1
  H+  H5  1  0.74421933  0.88567686  0.34409133  1
  H+  H6  1  1.02665296  0.88592545  0.51463922  1
  H+  H7  1  0.37572674  0.85138630  0.17555402  1
  H+  H8  1  0.52465246  0.63209513  0.37165453  1
  H+  H9  1  0.22426970  0.11693070  0.66155154  1
  H+  H10  1  0.36883408  0.39842748  0.16592006  1
  H+  H11  1  0.63809760  0.10932020  0.50018320  1
  H+  H12  1  0.91265256  0.80643805  1.00279020  1
  H+  H13  1  0.84477151  0.13014119  0.68361184  1
  H+  H14  1  0.66402611  0.83286745  0.89218021  1
  H+  H15  1  0.36224709  0.47062714  1.00614045  1
  H+  H16  1  0.60489142  0.46827459  0.82200092  1
  H+  H17  1  0.85683124  0.47041065  0.81777914  1
  H+  H18  1  0.99279327  0.10677014  0.99982548  1
  H+  H19  1  0.38553748  0.89704091  0.67031710  1
  H+  H20  1  0.22486283  0.60774524  0.51246435  1
  H+  H21  1  0.14702429  0.12485580  0.84432336  1
  H+  H22  1  0.85498028  0.88136314  0.16073504  1
  H+  H23  1  0.60805557  0.71160380  0.82524900  1
  H+  H24  1  0.52245304  0.14727744  0.16001279  1
  H+  H25  1  0.39600355  1.01538921  0.33524993  1
  H+  H26  1  0.14894059  0.32596852  0.90771281  1
  H+  H27  1  0.85505410  0.72464947  0.33717485  1
  H+  H28  1  0.61251467  0.09571854  0.81935701  1
  H+  H29  1  0.22601475  0.60212741  0.99205546  1
  H+  H30  1  0.63088572  0.27031273  0.32449653  1
  H+  H31  1  0.15371456  0.06450090  0.29298303  1
  H+  H32  1  0.11235224  0.97513050  0.66043190  1
  H+  H33  1  0.48108014  0.60030135  0.66118152  1
  H+  H34  1  0.71484747  0.34672794  0.65284563  1
  H+  H35  1  0.38267965  0.37411099  1.00268691  1
  H+  H36  1  0.38832632  0.28628369  0.18024300  1
  H+  H37  1  0.59760458  0.96239219  0.00094065  1
  H+  H38  1  0.36435505  0.72734926  0.16625990  1
  H+  H39  1  0.86239853  0.13624767  0.48235844  1
  H+  H40  1  0.37955466  0.51466575  0.51466303  1
  H+  H41  1  0.51885646  0.86815722  0.00496116  1
  H+  H42  1  0.37081701  0.15198893  0.16780589  1
  H+  H43  1  0.55453644  0.13470804  0.70973121  1
  H+  H44  1  0.97445752  0.11188731  0.68644988  1
  H+  H45  1  0.10372043  0.46021509  0.67176075  1
  H+  H46  1  0.28110216  0.63970362  0.35679897  1
  H+  H47  1  -0.01119241  0.37105665  0.01447298  1
  H+  H48  1  0.61111495  0.39778336  0.00811037  1
  H+  H49  1  0.87885032  0.26823606  0.49814237  1
  H+  H50  1  0.13965888  0.35674402  0.18272405  1
  H+  H51  1  0.81610871  0.15170508  -0.00193640  1
  H+  H52  1  0.15593162  0.56628488  0.60039604  1
  H+  H53  1  0.51597565  0.62524360  0.82540413  1
  H+  H54  1  0.35973344  0.93153017  0.76453821  1
  H+  H55  1  0.90003640  0.88674205  0.99982435  1
  H+  H56  1  0.83338987  0.14754142  0.09621452  1
  H+  H57  1  0.75078425  0.13806359  0.82368238  1
  H+  H58  1  0.79203876  0.06345233  0.13515918  1
  H+  H59  1  0.14547550  0.62709879  0.17837127  1
  H+  H60  1  0.64373185  0.88211447  0.17457529  1
  H+  H61  1  0.60309575  0.10579210  -0.01544514  1
  H+  H62  1  0.08987253  0.48927860  0.48491619  1
  H+  H63  1  0.87881097  0.35018279  0.65431631  1
  H+  H64  1  0.11968754  0.98596180  0.34100688  1
  H+  H65  1  0.63088012  0.60603820  0.34744417  1
  H+  H66  1  0.47656290  0.35554663  0.83402173  1
  H+  H67  1  0.15557205  0.25323617  0.51019829  1
  H+  H68  1  0.21487151  0.98686112  0.28002693  1
  H+  H69  1  0.63618890  0.85679260  0.99000774  1
  H+  H70  1  0.50228434  0.12626223  0.80520648  1
  H+  H71  1  0.21698088  0.34731342  0.33700841  1
  H+  H72  1  0.68486618  0.53913499  1.00691924  1
  H+  H73  1  0.87302691  0.60547285  0.83679103  1
  H+  H74  1  0.72124319  0.36895633  0.17307304  1
  H+  H75  1  0.38054532  0.60499749  0.51784311  1
  H+  H76  1  0.75282171  0.62662872  0.85019131  1
  H+  H77  1  0.76803895  0.38409251  0.82211031  1
  H+  H78  1  0.61467767  0.01282228  0.32472275  1
  H+  H79  1  0.37152038  0.37997434  0.49441453  1
  H+  H80  1  0.61849501  0.22414366  0.48766229  1
  H+  H81  1  0.63045104  0.53169996  0.18148154  1
  H+  H82  1  0.62013879  0.38392355  0.33840200  1
  H+  H83  1  0.22624786  0.35824031  0.66314608  1
  H+  H84  1  0.09874346  0.73226165  0.16218291  1
  H+  H85  1  0.26577656  0.61584215  0.82410435  1
  H+  H86  1  0.28520759  0.13308072  0.49079813  1
  H+  H87  1  0.11191014  0.22376411  0.68057337  1
  H+  H88  1  0.36360892  0.72092998  0.51507638  1
  H+  H89  1  0.35246008  0.22697571  0.66868942  1
  H+  H90  1  0.61357053  0.13673634  0.33505702  1
  H+  H91  1  0.88424519  0.26917771  0.32679182  1
  H+  H92  1  0.12805479  0.79362418  0.32736949  1
  H+  H93  1  0.28465269  0.89784183  0.81471843  1
  H+  H94  1  0.08299253  0.65123857  0.40540277  1
  H+  H95  1  0.38832746  0.03787737  0.17684065  1
  H+  H96  1  0.12715554  0.13459095  0.16429554  1
  H+  H97  1  0.59401606  0.88595923  0.34773343  1
  H+  H98  1  0.99118813  0.12791872  0.47760410  1
  H+  H99  1  0.63499437  0.54603796  0.90571614  1
  H+  H100  1  -0.02671354  0.86178224  0.65189143  1
  H+  H101  1  0.14551225  0.02113880  0.17812530  1
  H+  H102  1  0.34541205  0.72957816  0.66518516  1
  H+  H103  1  0.08363518  0.41831065  0.22941391  1
  H+  H104  1  0.06070605  0.19491714  0.32595956  1
  H+  H105  1  -0.03978408  0.34615874  0.82864868  1
  H+  H106  1  0.59541089  0.59129192  -0.00348165  1
  H+  H107  1  0.12289930  0.85603502  0.65883252  1
  H+  H108  1  0.64525967  0.79812249  0.19791582  1
  H+  H109  1  0.91200789  0.12705214  0.32400764  1
  H+  H110  1  0.91164698  0.11993551  0.99909512  1
  H+  H111  1  0.38790731  0.27842938  0.00034518  1
  H+  H112  1  0.35957714  0.38109504  0.66643059  1
  H+  H113  1  0.83247805  0.42103071  0.07317344  1
  H+  H114  1  0.36863974  0.73220665  0.35620048  1
  H+  H115  1  0.24002285  0.86867754  0.51876875  1
  H+  H116  1  0.62245753  0.26027206  0.64648069  1
  H+  H117  1  0.11037141  0.34945570  0.84142965  1
  H+  H118  1  0.39002968  0.86242141  0.53811960  1
  H+  H119  1  0.86836123  0.47463517  0.01156226  1
  H+  H120  1  0.63207417  0.85313036  0.49052170  1
  H+  H121  1  0.76886136  0.63369942  0.34258804  1
  H+  H122  1  0.01632901  0.36979392  0.66954657  1
  H+  H123  1  0.77734702  0.89199233  0.00469908  1
  H+  H124  1  0.10906811  0.13342391  0.68009159  1
  H+  H125  1  0.78910947  0.66360888  0.01981797  1
  H+  H126  1  0.97506307  0.86668117  0.17160068  1
  H+  H127  1  0.88810658  0.60759309  0.49847199  1
  H+  H128  1  0.88498774  0.87167958  0.32166397  1
  H+  H129  1  0.59046578  0.20741083  0.78400319  1
  H+  H130  1  0.85076111  0.87346242  0.83441631  1
  H+  H131  1  0.35340031  0.16242625  0.43965762  1
  H+  H132  1  0.89913104  0.31760158  0.22922929  1
  H+  H133  1  0.22583311  0.35894860  -0.00713312  1
  H+  H134  1  0.68084137  0.84824268  0.57999195  1
  H+  H135  1  0.38813275  0.94297757  0.04089068  1
  H+  H136  1  0.70940819  0.10785817  0.65443233  1
  H+  H137  1  1.02745279  0.63821565  0.49648376  1
  H+  H138  1  0.13840667  0.60431847  0.99721955  1
  H+  H139  1  0.13967224  0.53426376  0.18260801  1
  H+  H140  1  0.87873951  0.26614253  0.16716131  1
  H+  H141  1  0.40401239  0.11124797  0.51801255  1
  H+  H142  1  0.87430180  0.35660174  0.82744487  1
  H+  H143  1  0.38257517  1.02567828  0.83286108  1
  H+  H144  1  0.39343736  0.26844580  0.50445314  1
  H+  H145  1  0.97782041  0.60612853  0.18440517  1
  H+  H146  1  0.85424923  0.38227588  0.16179985  1
  H+  H147  1  0.02861021  0.12917058  0.83485556  1
  H+  H148  1  0.17154451  0.32173235  0.23671850  1
  H+  H149  1  0.38058662  0.60726669  0.82909981  1
  H+  H150  1  0.68516941  0.10086933  0.97230310  1
  H+  H151  1  0.13876162  0.36065933  0.00163978  1
  H+  H152  1  0.46514110  0.61770577  0.19315207  1
  H+  H153  1  1.01350651  0.62590988  0.82016348  1
  H+  H154  1  0.91107451  0.11988086  0.17718594  1
  H+  H155  1  0.86379235  0.96924763  0.69232939  1
  H+  H156  1  0.25797934  0.64129828  0.67431903  1
  H+  H157  1  0.14027651  0.61643895  0.51115370  1
  H+  H158  1  0.16038744  0.03602720  0.99507042  1
  H+  H159  1  0.65855906  0.33267938  0.26504626  1
  H+  H160  1  0.26804339  0.63484970  0.16759327  1
  H+  H161  1  0.84835120  0.21947207  0.66936548  1
  H+  H162  1  0.42015571  0.33616247  0.89489747  1
  H+  H163  1  0.96049185  0.36514023  0.49866486  1
  H+  H164  1  0.45260175  0.08999065  0.57279701  1
  H+  H165  1  0.71608860  0.62234261  0.18884650  1
  H+  H166  1  0.35750427  0.13244879  0.82786811  1
  H+  H167  1  0.86630816  0.72300456  0.66009418  1
  H+  H168  1  0.32571183  0.66620712  0.76890270  1
  H+  H169  1  0.60584044  0.61912057  0.66844744  1
  H+  H170  1  0.11815079  0.14159709  0.46122068  1
  H+  H171  1  0.11784542  0.75715976  0.65986034  1
  H+  H172  1  0.61480900  0.47327900  0.48612371  1
  H+  H173  1  0.60140965  0.97657368  0.15845662  1
  H+  H174  1  0.38280413  0.59614958  0.98886731  1
  H+  H175  1  0.25713573  0.13188641  0.83715920  1
  H+  H176  1  0.60637034  0.64871338  0.18831824  1
  H+  H177  1  0.12796313  0.89441241  1.00652736  1
  H+  H178  1  0.38810832  0.61484131  0.35160784  1
  H+  H179  1  0.72280816  0.60353840  0.64372523  1
  H+  H180  1  0.87795964  0.51642579  0.33064186  1
  H+  H181  1  1.01012259  0.89602042  0.81792155  1
  H+  H182  1  0.89350957  0.24398719  0.01542619  1
  H+  H183  1  0.48050966  0.37776020  0.99772497  1
  H+  H184  1  0.48131337  0.35918313  0.50065995  1
  H+  H185  1  0.38744089  0.05193872  0.99244429  1
  H+  H186  1  0.24210633  0.87302068  1.01203755  1
  H+  H187  1  0.61486668  0.40003398  0.16378900  1
  H+  H188  1  1.04525216  0.90671530  1.00662623  1
  H+  H189  1  0.00020990  0.12087136  0.17422822  1
  H+  H190  1  0.10453299  0.71148348  0.81652855  1
  H+  H191  1  0.52282604  0.88240036  0.50521766  1
  H+  H192  1  0.29063248  0.88205389  0.36920223  1
  H+  H193  1  0.41378015  0.99636973  0.67632301  1
  H+  H194  1  0.34771524  0.37599460  0.34964737  1
  H+  H195  1  0.61609876  0.72046264  0.45998248  1
  H+  H196  1  0.60753640  0.37854515  0.66725469  1
  H+  H197  1  0.86402309  0.87920843  0.68342154  1
  H+  H198  1  0.10703440  0.20727476  0.41825439  1
  H+  H199  1  0.72434184  0.86277099  0.48247223  1
  H+  H200  1  0.17239898  0.39353987  0.45892012  1
  H+  H201  1  0.61698788  0.38285167  0.48824512  1
  H+  H202  1  0.36539831  0.70756748  0.99996119  1
  H+  H203  1  0.85342385  0.46125722  0.66035571  1
  H+  H204  1  0.28523025  0.15770846  0.00608984  1
  H+  H205  1  0.36338108  0.47427123  0.81500385  1
  H+  H206  1  0.36247862  0.62863088  0.17471765  1
  H+  H207  1  0.71175050  0.10782367  0.17088198  1
  H+  H208  1  0.61230523  0.23784868  0.00622973  1
  H+  H209  1  0.72612934  0.36246089  0.49962990  1
  H+  H210  1  0.17214678  0.07465710  0.41753660  1
  H+  H211  1  0.88827120  0.51811223  0.49554568  1
  H+  H212  1  0.06944291  0.84352955  0.35835225  1
  H+  H213  1  0.72633124  0.37540018  1.00302276  1
  H+  H214  1  0.12096686  0.25872139  0.84592881  1
  H+  H215  1  0.88504026  0.63644743  0.16503122  1
  H+  H216  1  0.85447228  0.37902880  0.49128906  1
  H+  H217  1  0.88397419  0.59884339  0.64134215  1
  H+  H218  1  0.37670267  0.16267354  0.00329330  1
  H+  H219  1  0.87758818  0.61365342  -0.00611083  1
  H+  H220  1  0.53134923  0.13344187  0.49124939  1
  H+  H221  1  0.11759779  0.72820497  0.49930924  1
  H+  H222  1  0.63359310  0.01691284  0.50344880  1
  H+  H223  1  0.99274767  0.86229551  0.34785554  1
  H+  H224  1  0.12381294  0.47748241  0.01792926  1
  H+  H225  1  0.86129832  0.47478763  0.16724733  1
  H+  H226  1  0.37849851  0.82721688  0.99065440  1
  H+  H227  1  0.72847340  0.86497461  0.64448589  1
  H+  H228  1  0.12067987  0.22327273  0.00926507  1
  H+  H229  1  0.12241412  0.58801425  0.83784019  1
  H+  H230  1  0.61925791  0.59630002  0.84916942  1
  H+  H231  1  0.13376287  0.35367395  0.65718440  1
  H+  H232  1  0.13519693  0.87503173  0.80070311  1
  H+  H233  1  0.38353447  0.50892576  0.66032981  1
  H+  H234  1  0.27779089  0.39302867  0.16378665  1
  H+  H235  1  0.01322156  0.62641351  0.66240299  1
  H+  H236  1  0.37464166  0.12907338  0.34493555  1
  H+  H237  1  0.36103143  0.22778186  0.83191627  1
  H+  H238  1  0.76588239  0.38008270  0.33610524  1
  H+  H239  1  0.09853160  0.98547334  0.81634103  1
  H+  H240  1  0.13040486  0.22580674  0.16087524  1
  H+  H241  1  0.36376080  0.38604924  0.81663036  1
  H+  H242  1  0.85146937  0.85263384  0.50627749  1
  H+  H243  1  0.12408067  0.72412072  1.01655715  1
  H+  H244  1  0.02086203  0.38837518  0.17455272  1
  H+  H245  1  0.12216081  0.59431514  0.65769166  1
  H+  H246  1  0.09621244  0.45393410  0.82529998  1
  H+  H247  1  0.37896560  0.52526862  0.18128866  1
  H+  H248  1  0.07322967  0.41690201  0.43783029  1
  H+  H249  1  0.37794956  0.87718731  0.35521984  1
  H+  H250  1  0.59867660  0.96357711  0.66152817  1
  H+  H251  1  0.37549616  0.26836393  0.33630146  1
  H+  H252  1  0.88357224  0.60907710  0.33117608  1
  H+  H253  1  0.33979938  0.67197006  0.45034555  1
  H+  H254  1  0.89385728  0.02244030  0.84446626  1
  H+  H255  1  0.48208729  0.10740165  0.32953555  1
  H+  H256  1  0.14970153  0.36876273  0.43075422  1
  H+  H257  1  0.23135622  0.11193912  0.18251555  1
  H+  H258  1  0.59555586  0.10723070  0.64901162  1
  H+  H259  1  0.63604089  0.28649195  0.86281982  1
  H+  H260  1  0.88981923  0.77714596  0.17234440  1
  H+  H261  1  0.89555440  0.36297171  1.01038655  1
  H+  H262  1  0.75330898  0.87223619  0.82905077  1
  H+  H263  1  0.61132535  0.96465105  0.80863916  1
  H+  H264  1  0.63358213  0.36977856  0.84017310  1
  H+  H265  1  0.47773432  0.85472467  0.63288097  1
  H+  H266  1  0.16027470  0.81399872  0.35336342  1
  H+  H267  1  0.15162214  0.12070873  0.99526811  1
  H+  H268  1  0.75636520  0.88464755  0.16565074  1
  H+  H269  1  0.21069344  0.90075477  0.29761041  1
  H+  H270  1  0.76896583  0.12831936  0.48770172  1
  H+  H271  1  0.47673179  0.37536622  0.18279861  1
  H+  H272  1  0.37669629  0.97617446  0.51175790  1
  H+  H273  1  0.63499931  0.85813589  0.82794419  1
  H+  H274  1  0.85306815  0.93217808  0.42395742  1
  H+  H275  1  0.87510226  0.77144844  0.85356175  1
  H+  H276  1  0.64329094  0.77174469  0.98413621  1
  H+  H277  1  0.49773537  0.87706508  0.34691864  1
  H+  H278  1  0.72280956  0.60393720  0.49359130  1
  H+  H279  1  0.60884718  0.14375061  0.15723186  1
  H+  H280  1  0.25869945  0.34567034  0.51494953  1
  H+  H281  1  0.86789560  0.98307502  0.01113558  1
  H+  H282  1  0.57794389  0.17443769  0.06360141  1
  H+  H283  1  0.40697308  0.88836430  0.84776069  1
  H+  H284  1  0.13705787  0.60202911  0.33801496  1
  H+  H285  1  0.87234986  0.98507130  0.48451064  1
  H+  H286  1  0.47323279  0.35907161  0.65688586  1
  H+  H287  1  0.63102606  0.28153667  0.16955880  1
  H+  H288  1  0.42119756  0.08731744  0.23947631  1
  H+  H289  1  0.79074167  0.04422193  0.35097457  1
  H+  H290  1  0.83397558  0.66442454  0.43012057  1
  H+  H291  1  0.09586388  0.91158767  0.10156899  1
  H+  H292  1  0.79930139  0.67165729  0.79079254  1
  H+  H293  1  0.07242762  0.39542851  0.76417353  1
  H+  H294  1  0.65406411  0.58240154  0.28167097  1
  H+  H295  1  0.82366763  0.91170519  0.09855855  1
  H+  H296  1  0.95267949  0.10839155  0.26490525  1
  H+  H297  1  0.09027855  0.16770155  0.77516259  1
  H+  H298  1  0.35032949  0.91363262  0.45459440  1
  H+  H299  1  0.81232707  0.62657579  0.07602656  1
  H+  H300  1  0.95748963  0.67943025  0.95692212  1
  H+  H301  1  0.33638788  0.65483206  0.06237234  1
  H+  H302  1  0.48763220  0.87381891  0.84053440  1
  H+  H303  1  0.47957271  0.13536312  0.98793479  1
  H+  H304  1  0.13266597  0.02177047  0.47736107  1
  H+  H305  1  0.58138823  0.41055217  0.76061216  1
  H+  H306  1  0.58461922  0.43419609  0.10700199  1
  H+  H307  1  0.32393520  0.40367685  0.44013326  1
  H+  H308  1  0.07039002  0.65525865  0.72425893  1
  H+  H309  1  0.78565398  0.77217375  0.54275937  1
  H+  H310  1  0.41762964  0.33090663  0.59580447  1
  H+  H311  1  0.56668709  0.91125627  0.43846433  1
  H+  H312  1  0.85515538  0.38025593  0.33582664  1
  H+  H313  1  0.11529241  0.47322372  0.31809873  1
  H+  H314  1  0.16330207  0.09195571  0.60274990  1
  H+  H315  1  0.58807974  0.16775237  0.39616842  1
  H+  H316  1  0.70964820  0.09162180  0.32083083  1
  H+  H317  1  0.82559098  0.90183888  0.76598259  1
  H+  H318  1  0.33556290  0.41603523  0.07024180  1
  H+  H319  1  0.34909963  0.46689728  0.35480490  1
  H+  H320  1  0.57620225  0.64375132  0.73040996  1
  H+  H321  1  0.65854745  0.57352792  0.58741600  1
  H+  H322  1  0.57779511  0.91363486  0.10039148  1
  H+  H323  1  0.91843181  0.84547640  0.90457715  1
  H+  H324  1  0.42661688  0.82941423  0.92956090  1
  H+  H325  1  0.33228290  0.41193114  0.72806348  1
  H+  H326  1  0.18284704  0.30843771  0.57854049  1
  H+  H327  1  0.08302065  0.66726351  0.10855653  1
  H+  H328  1  0.90808024  0.31893978  0.59589813  1
  H+  H329  1  0.05873298  0.89110417  0.44660354  1
  H+  H330  1  0.80997716  0.16764157  0.76211453  1
  H+  H331  1  0.91437379  0.57767309  0.24281440  1
  H+  H332  1  0.18263333  0.59498894  0.27783340  1
  H+  H333  1  0.33114430  0.95521229  0.08747004  1
  H+  H334  1  0.15243536  0.85700818  0.86496585  1
  H+  H335  1  0.28316302  0.12049438  0.35088809  1
  H+  H336  1  0.34093664  0.18123307  0.10824576  1
  H+  H337  1  0.15157015  0.55908707  0.89784607  1
  H+  H338  1  0.63105775  0.06690586  0.88344129  1
  H+  H339  1  0.17812597  0.09109408  0.90347003  1
  H+  H340  1  0.57845816  0.64046559  0.04687419  1
  H+  H341  1  0.57888753  0.89976176  0.75194008  1
  H+  H342  1  0.40266058  0.33242531  0.28001052  1
  H+  H343  1  0.89513147  0.82830974  0.60217347  1
  H+  H344  1  0.14893322  0.86832636  0.51459534  1
  H+  H345  1  0.81183263  0.12397383  0.39504425  1
  H+  H346  1  0.40797159  0.57199875  0.88762656  1
  H+  H347  1  0.63421899  0.60460440  0.48483477  1
  H+  H348  1  0.90676853  0.07359303  0.63368214  1
  H+  H349  1  0.41489060  0.57231479  0.59585000  1
  H+  H350  1  0.93079357  0.07744943  0.90498501  1
  H+  H351  1  0.65129234  0.07827484  0.23005041  1
  H+  H352  1  0.59009054  0.41299156  0.40620661  1
  H+  H353  1  0.91757601  0.56771309  0.58615443  1
  H+  H354  1  0.97079273  0.35728022  0.31381713  1
  H+  H355  1  0.65890488  0.07629319  0.58940514  1
  H+  H356  1  0.58011464  0.69365083  0.13785458  1
  H+  H357  1  0.10428686  0.42384049  0.08009441  1
  H+  H358  1  0.84412797  0.64993723  0.70903381  1
  H+  H359  1  0.03202858  0.64010144  0.01222586  1
  H+  H360  1  0.46860287  0.85860391  0.17047352  1
  H+  H361  1  0.94687992  0.10688110  0.54040788  1
  H+  H362  1  0.23972159  0.88497918  0.15213290  1
  H+  H363  1  0.66232501  0.32938288  0.55756222  1
  H+  H364  1  0.61323717  0.88517353  0.65397552  1
  H+  H365  1  0.40835612  0.82770866  0.28736301  1
  H+  H366  1  0.84937969  0.71517170  0.49316508  1
  H+  H367  1  0.82303253  0.40625666  0.72188339  1
  H+  H368  1  0.82784524  0.40974211  0.43020507  1
  H+  H369  1  0.32156853  0.17002667  0.72893234  1
  H+  H370  1  0.92973104  0.70921440  0.11663198  1
  H+  H371  1  0.41575096  0.58374955  0.29309045  1
  H+  H372  1  0.67147421  0.35560013  0.94211648  1
  H+  H373  1  0.19837684  0.83201765  0.95004342  1
  H+  H374  1  0.90801625  0.57607241  0.89170843  1
  H+  H375  1  0.09987221  0.16437738  0.06924702  1
  H+  H376  1  0.90910638  0.01247964  0.33366292  1
  H+  H377  1  0.61078003  0.46923580  0.66511989  1
  H+  H378  1  0.07354096  0.91869026  0.71978056  1
  H+  H379  1  0.85339860  0.24496417  0.82453386  1
  H+  H380  1  0.41825908  0.09340791  0.89021738  1
  H+  H381  1  0.16411159  0.82798616  0.59926452  1
  H+  H382  1  1.10678672  0.37804143  0.31795708  1
  H+  H383  1  0.91133283  0.83441637  0.26493952  1
  O2-  O384  1  0.10092921  0.16616266  0.14423707  1
  O2-  O385  1  0.09545605  0.18269037  0.46064102  1
  O2-  O386  1  0.09130014  0.16713182  0.82101994  1
  O2-  O387  1  0.08357786  0.42160995  0.18340211  1
  O2-  O388  1  0.04380397  0.44075836  0.46086995  1
  O2-  O389  1  0.06648845  0.39245372  0.81005095  1
  O2-  O390  1  0.08290953  0.67207680  0.15389503  1
  O2-  O391  1  0.08955019  0.66822267  0.48457667  1
  O2-  O392  1  0.07309984  0.65070844  0.80411886  1
  O2-  O393  1  0.08684371  0.90545718  0.14701489  1
  O2-  O394  1  0.07839027  0.90858103  0.48971881  1
  O2-  O395  1  0.06608789  0.92867882  0.79658409  1
  O2-  O396  1  0.33744161  0.17932031  0.15314067  1
  O2-  O397  1  0.34802375  0.16316553  0.48515552  1
  O2-  O398  1  0.32486355  0.16481805  0.81791537  1
  O2-  O399  1  0.33807172  0.42776567  0.14815422  1
  O2-  O400  1  0.33125712  0.40317184  0.48617041  1
  O2-  O401  1  0.33371541  0.41402520  0.79908212  1
  O2-  O402  1  0.33255665  0.66243033  0.15407135  1
  O2-  O403  1  0.33418386  0.66354442  0.49574977  1
  O2-  O404  1  0.32657797  0.65092497  0.81250263  1
  O2-  O405  1  0.30085474  0.91397298  0.16544600  1
  O2-  O406  1  0.34329381  0.91361837  0.49994261  1
  O2-  O407  1  0.34764666  0.93153831  0.81029506  1
  O2-  O408  1  0.58101840  0.17623521  0.14142519  1
  O2-  O409  1  0.59087110  0.16356106  0.47285842  1
  O2-  O410  1  0.55825095  0.14472752  0.78277903  1
  O2-  O411  1  0.58626155  0.43398805  0.15193911  1
  O2-  O412  1  0.58524804  0.41177493  0.47112233  1
  O2-  O413  1  0.57865059  0.40796242  0.80660214  1
  O2-  O414  1  0.57604345  0.68243321  0.18149492  1
  O2-  O415  1  0.58912223  0.65825101  0.44823889  1
  O2-  O416  1  0.57918660  0.64987032  0.81498990  1
  O2-  O417  1  0.57579453  0.91469667  0.14577835  1
  O2-  O418  1  0.57846058  0.91173149  0.48338294  1
  O2-  O419  1  0.58531397  0.90309261  0.79744231  1
  O2-  O420  1  0.81532177  0.12538566  0.13897975  1
  O2-  O421  1  0.82658583  0.16018773  0.46725180  1
  O2-  O422  1  0.81164230  0.17142780  0.80819317  1
  O2-  O423  1  0.82739563  0.41652119  0.14828141  1
  O2-  O424  1  0.82798101  0.41309511  0.47564276  1
  O2-  O425  1  0.82598091  0.40973299  0.80318793  1
  O2-  O426  1  0.87475199  0.67725986  0.13799639  1
  O2-  O427  1  0.83063869  0.65770892  0.47569365  1
  O2-  O428  1  0.81270035  0.66342805  0.83246402  1
  O2-  O429  1  0.82116126  0.90837666  0.14486150  1
  O2-  O430  1  0.84107122  0.92532833  0.46859109  1
  O2-  O431  1  0.82031569  0.90295373  0.81507508  1
  O2-  O432  1  0.17118398  0.07801066  0.19786128  1
  O2-  O433  1  0.16594822  0.08159177  0.46140467  1
  O2-  O434  1  0.17796093  0.09267785  0.85710470  1
  O2-  O435  1  0.17444432  0.32926996  0.19160393  1
  O2-  O436  1  0.20281772  0.29385156  0.53894632  1
  O2-  O437  1  0.14218766  0.32042885  0.86143729  1
  O2-  O438  1  0.17779440  0.59733439  0.19026244  1
  O2-  O439  1  0.16288155  0.57816854  0.52448259  1
  O2-  O440  1  0.14738304  0.55324198  0.85286414  1
  O2-  O441  1  0.12316401  0.84964925  0.16497231  1
  O2-  O442  1  0.17737467  0.83793073  0.53209301  1
  O2-  O443  1  0.16262274  0.84706098  0.82295325  1
  O2-  O444  1  0.42079794  0.09592709  0.19401191  1
  O2-  O445  1  0.43765050  0.08251868  0.52723520  1
  O2-  O446  1  0.41175175  0.08985962  0.84503598  1
  O2-  O447  1  0.41569580  0.34649070  0.19576461  1
  O2-  O448  1  0.42157028  0.33047198  0.51712007  1
  O2-  O449  1  0.41624835  0.32459088  0.85090467  1
  O2-  O450  1  0.40162704  0.58452688  0.19979403  1
  O2-  O451  1  0.40922798  0.57280175  0.53274174  1
  O2-  O452  1  0.41417120  0.57761375  0.84294094  1
  O2-  O453  1  0.40773364  0.82152935  0.18478807  1
  O2-  O454  1  0.42069395  0.83079288  0.55147679  1
  O2-  O455  1  0.44699868  0.87528619  0.87020833  1
  O2-  O456  1  0.65106683  0.08103219  0.18408499  1
  O2-  O457  1  0.66720617  0.07839610  0.51749768  1
  O2-  O458  1  0.64573508  0.07202990  0.83945851  1
  O2-  O459  1  0.65999856  0.34113679  0.18678000  1
  O2-  O460  1  0.66375457  0.33093537  0.51216996  1
  O2-  O461  1  0.66961376  0.34910733  0.86256524  1
  O2-  O462  1  0.65575991  0.59065328  0.20104022  1
  O2-  O463  1  0.66110217  0.57490630  0.50664396  1
  O2-  O464  1  0.64960270  0.56410920  0.86295201  1
  O2-  O465  1  0.68128784  0.86121708  0.19309020  1
  O2-  O466  1  0.66549970  0.82296467  0.49732963  1
  O2-  O467  1  0.66733530  0.83043175  0.84683627  1
  O2-  O468  1  0.94320527  0.09440530  0.19514456  1
  O2-  O469  1  0.93268265  0.09605706  0.49742226  1
  O2-  O470  1  0.93434640  0.08001332  0.85974171  1
  O2-  O471  1  0.90476405  0.32428057  0.18383881  1
  O2-  O472  1  0.90345123  0.32510236  0.51857042  1
  O2-  O473  1  0.89833502  0.31929307  0.84147475  1
  O2-  O474  1  0.91610323  0.57737610  0.19640028  1
  O2-  O475  1  0.92010371  0.57837646  0.51200356  1
  O2-  O476  1  0.90493106  0.57510050  0.84678804  1
  O2-  O477  1  0.91401422  0.83795984  0.18510739  1
  O2-  O478  1  0.84675956  0.80385403  0.53233605  1
  O2-  O479  1  0.90710265  0.83512694  0.85997924  1
  O2-  O480  1  0.16931638  0.04349215  0.32955034  1
  O2-  O481  1  0.16066055  0.08240239  0.64658605  1
  O2-  O482  1  0.18675176  0.09548404  0.97800271  1
  O2-  O483  1  0.15775611  0.31526758  0.31678784  1
  O2-  O484  1  0.16560206  0.32259105  0.64682396  1
  O2-  O485  1  0.16450172  0.32945910  0.98016815  1
  O2-  O486  1  0.17481791  0.57890311  0.32121173  1
  O2-  O487  1  0.15118578  0.56205394  0.64606152  1
  O2-  O488  1  0.16382209  0.57041862  0.98085477  1
  O2-  O489  1  0.22276888  0.94006000  0.26331130  1
  O2-  O490  1  0.15120711  0.82126027  0.64605667  1
  O2-  O491  1  0.18502546  0.83489650  0.99276168  1
  O2-  O492  1  0.42059585  0.07342865  0.31559456  1
  O2-  O493  1  0.46941005  0.09114426  0.64378609  1
  O2-  O494  1  0.41896775  0.10788601  0.97139838  1
  O2-  O495  1  0.39545510  0.32858030  0.32466482  1
  O2-  O496  1  0.41305476  0.33045337  0.64119594  1
  O2-  O497  1  0.41752743  0.34404307  0.98413386  1
  O2-  O498  1  0.41587272  0.58069405  0.33769362  1
  O2-  O499  1  0.41817694  0.57090457  0.64496836  1
  O2-  O500  1  0.40802969  0.56197514  0.97186883  1
  O2-  O501  1  0.41250637  0.82897501  0.33163182  1
  O2-  O502  1  0.41630456  0.83127153  0.61865177  1
  O2-  O503  1  0.41720463  0.80854022  0.97492084  1
  O2-  O504  1  0.65017071  0.07192302  0.30610087  1
  O2-  O505  1  0.65090806  0.07517483  0.63566154  1
  O2-  O506  1  0.62338074  0.06800061  0.96557348  1
  O2-  O507  1  0.66032882  0.33234521  0.31068135  1
  O2-  O508  1  0.65482976  0.32210659  0.63668493  1
  O2-  O509  1  0.66607431  0.34968601  0.98722195  1
  O2-  O510  1  0.65947393  0.57694488  0.32627799  1
  O2-  O511  1  0.66117103  0.57167759  0.63272537  1
  O2-  O512  1  0.62638862  0.51239184  0.98781631  1
  O2-  O513  1  0.78525200  0.94155083  0.32609913  1
  O2-  O514  1  0.69037705  0.87708714  0.61997935  1
  O2-  O515  1  0.67110227  0.83265643  0.97205012  1
  O2-  O516  1  0.95779056  0.11465043  0.31142963  1
  O2-  O517  1  0.91049111  0.07726208  0.67787681  1
  O2-  O518  1  0.93164715  0.07982082  0.98534087  1
  O2-  O519  1  0.90672710  0.32517453  0.30717745  1
  O2-  O520  1  0.90802832  0.31774708  0.64166855  1
  O2-  O521  1  0.92958701  0.33597356  0.99836224  1
  O2-  O522  1  0.91218168  0.57732666  0.31605039  1
  O2-  O523  1  0.91421470  0.56666912  0.63218844  1
  O2-  O524  1  0.92916846  0.62012006  0.97169968  1
  O2-  O525  1  0.90527672  0.83089600  0.31004227  1
  O2-  O526  1  0.90932261  0.82900547  0.64637705  1
  O2-  O527  1  0.93641430  0.86262287  0.98336340  1
  O2-  O528  1  0.09691454  0.16275653  0.02320656  1
  O2-  O529  1  0.12105675  0.22850385  0.34293254  1
  O2-  O530  1  0.08113085  0.16420642  0.69863315  1
  O2-  O531  1  0.09751822  0.41772044  0.03593665  1
  O2-  O532  1  0.07822125  0.41081944  0.30543249  1
  O2-  O533  1  0.07579434  0.39876613  0.68657657  1
  O2-  O534  1  0.08982161  0.66321239  0.03019646  1
  O2-  O535  1  0.08060569  0.64028352  0.36101969  1
  O2-  O536  1  0.07331212  0.66216502  0.67902380  1
  O2-  O537  1  0.10454201  0.92998051  0.02281603  1
  O2-  O538  1  0.04984250  0.88373939  0.36970135  1
  O2-  O539  1  0.07928982  0.91360669  0.67489287  1
  O2-  O540  1  0.34658202  0.19250685  0.02106672  1
  O2-  O541  1  0.34366412  0.15765407  0.36257951  1
  O2-  O542  1  0.31565990  0.16723197  0.68459351  1
  O2-  O543  1  0.33469754  0.41028167  0.02442001  1
  O2-  O544  1  0.31547369  0.40507121  0.36671446  1
  O2-  O545  1  0.32912827  0.41158465  0.68134759  1
  O2-  O546  1  0.33210083  0.64809267  0.01788971  1
  O2-  O547  1  0.34061186  0.67074087  0.37317585  1
  O2-  O548  1  0.30879932  0.68678662  0.69558340  1
  O2-  O549  1  0.33995107  0.95364885  0.04311274  1
  O2-  O550  1  0.35257635  0.91643080  0.37490755  1
  O2-  O551  1  0.37611152  0.93751623  0.69464822  1
  O2-  O552  1  0.57726274  0.17590793  0.01778104  1
  O2-  O553  1  0.58566560  0.16941544  0.35043600  1
  O2-  O554  1  0.56093117  0.13982895  0.66353141  1
  O2-  O555  1  0.57880562  0.42894459  0.02088308  1
  O2-  O556  1  0.59270801  0.41663974  0.35788065  1
  O2-  O557  1  0.58028239  0.41078576  0.68418339  1
  O2-  O558  1  0.58018231  0.63716275  0.00274351  1
  O2-  O559  1  0.58765298  0.66019978  0.38106251  1
  O2-  O560  1  0.57206179  0.64420474  0.68550386  1
  O2-  O561  1  0.57958962  0.90533759  0.01915880  1
  O2-  O562  1  0.56560627  0.91709501  0.36142048  1
  O2-  O563  1  0.57250588  0.90207535  0.67273037  1
  O2-  O564  1  0.86586513  0.17809096  0.02482628  1
  O2-  O565  1  0.80774620  0.10585216  0.35121239  1
  O2-  O566  1  0.81184087  0.16046650  0.68839737  1
  O2-  O567  1  0.83113620  0.41672866  0.02717677  1
  O2-  O568  1  0.82603693  0.41075516  0.35204849  1
  O2-  O569  1  0.82102475  0.40125365  0.67674752  1
  O2-  O570  1  0.79155454  0.61276833  0.03266762  1
  O2-  O571  1  0.83101926  0.66549568  0.35392774  1
  O2-  O572  1  0.83613224  0.65878881  0.66638240  1
  O2-  O573  1  0.83472046  0.92062189  0.02511654  1
  O2-  O574  1  0.86784334  0.95062062  0.34766384  1
  O2-  O575  1  0.83280227  0.90652298  0.70282679  1
