# generated using pymatgen
data_H2O
_symmetry_space_group_name_H-M   'P 1'
_cell_length_a   17.98013122
_cell_length_b   17.98266362
_cell_length_c   22.00229506
_cell_angle_alpha   89.99996606
_cell_angle_beta   90.00499977
_cell_angle_gamma   120.00615871
_symmetry_Int_Tables_number   1
_chemical_formula_structural   H2O
_chemical_formula_sum   'H384 O192'
_cell_volume   6160.53651446
_cell_formula_units_Z   192
loop_
 _symmetry_equiv_pos_site_id
 _symmetry_equiv_pos_as_xyz
  1  'x, y, z'
loop_
 _atom_type_symbol
 _atom_type_oxidation_number
  H+  1.0
  O2-  -2.0
loop_
 _atom_site_type_symbol
 _atom_site_label
 _atom_site_symmetry_multiplicity
 _atom_site_fract_x
 _atom_site_fract_y
 _atom_site_fract_z
 _atom_site_occupancy
  H+  H0  1  0.23400954  0.37587349  0.83282974  1
  H+  H1  1  0.85932156  -0.01665977  0.82343602  1
  H+  H2  1  0.86605626  0.62273983  0.15653946  1
  H+  H3  1  0.63740009  0.01710250  0.15712064  1
  H+  H4  1  0.77250962  0.88974507  0.15112352  1
  H+  H5  1  0.14908585  0.13023309  -0.04418918  1
  H+  H6  1  0.89602959  0.37241487  0.84671802  1
  H+  H7  1  0.37879205  0.23880928  0.50526831  1
  H+  H8  1  -0.02812017  0.11138991  0.15631600  1
  H+  H9  1  0.14441900  0.59344539  0.14317210  1
  H+  H10  1  0.85549228  0.72701505  0.15857848  1
  H+  H11  1  0.26105547  0.82090595  0.53180282  1
  H+  H12  1  0.82636227  0.92864518  0.76265491  1
  H+  H13  1  0.89633533  1.02768496  0.33145541  1
  H+  H14  1  0.51835913  0.63459644  1.00475432  1
  H+  H15  1  0.37056147  0.73171836  0.82166821  1
  H+  H16  1  0.38787215  0.28523854  0.81675788  1
  H+  H17  1  0.71390243  0.60986373  -0.01264984  1
  H+  H18  1  0.12433184  0.64252627  0.66834608  1
  H+  H19  1  0.39283533  0.36685197  0.51488177  1
  H+  H20  1  0.67383844  0.84717595  0.25087249  1
  H+  H21  1  0.61568540  0.38521845  0.82602663  1
  H+  H22  1  0.71267708  0.86422067  0.00652977  1
  H+  H23  1  0.04467498  0.91767552  -0.01382409  1
  H+  H24  1  0.18282150  0.59663013  0.59412381  1
  H+  H25  1  0.97481150  0.10962428  0.98990644  1
  H+  H26  1  0.61619207  0.98878924  0.81966829  1
  H+  H27  1  0.64228959  0.77558601  0.15993912  1
  H+  H28  1  0.69995735  0.26041223  0.03537148  1
  H+  H29  1  0.49338038  0.13784353  0.27933473  1
  H+  H30  1  0.13949575  0.62186501  0.49696765  1
  H+  H31  1  0.37730512  0.61268590  0.52230381  1
  H+  H32  1  0.21843664  0.10834244  0.15432301  1
  H+  H33  1  0.39784219  0.78180141  0.67005358  1
  H+  H34  1  0.33880695  0.50741942  0.30929315  1
  H+  H35  1  0.36874595  0.48836018  0.82420655  1
  H+  H36  1  0.61121810  -0.03051603  0.32963859  1
  H+  H37  1  0.86655094  0.23603204  0.82339777  1
  H+  H38  1  0.64126231  0.86495508  0.15530862  1
  H+  H39  1  0.77912002  0.38633209  0.64958810  1
  H+  H40  1  0.14108506  0.35974151  -0.01793590  1
  H+  H41  1  0.62947091  0.13306656  0.65728090  1
  H+  H42  1  0.63261165  0.53015170  0.50852936  1
  H+  H43  1  0.40094898  0.90071046  0.00086170  1
  H+  H44  1  0.50444602  0.11792046  0.13863399  1
  H+  H45  1  0.58345608  0.66715415  0.09984595  1
  H+  H46  1  0.23846541  0.12829785  0.52212698  1
  H+  H47  1  0.13888146  0.50504921  0.15749198  1
  H+  H48  1  0.24773965  0.87845012  0.98782898  1
  H+  H49  1  0.63043014  0.34097418  0.66637303  1
  H+  H50  1  1.03404337  0.39984211  0.82396391  1
  H+  H51  1  0.86056180  0.88491015  0.33693112  1
  H+  H52  1  0.63610713  0.62145439  0.51075594  1
  H+  H53  1  0.37160596  0.15610771  0.78473173  1
  H+  H54  1  0.86933754  0.61591755  0.82401873  1
  H+  H55  1  0.38593756  0.60850724  0.98371934  1
  H+  H56  1  0.76436854  0.62551281  0.34712724  1
  H+  H57  1  0.86748027  0.98187500  0.50749530  1
  H+  H58  1  0.96677637  0.85972868  0.18565432  1
  H+  H59  1  -0.01179532  0.37074889  -0.00898054  1
  H+  H60  1  0.35580677  0.39318225  0.67239166  1
  H+  H61  1  0.85242120  0.71400865  0.34422227  1
  H+  H62  1  0.60900816  0.64120284  0.16255984  1
  H+  H63  1  0.26424244  0.36487389  0.15642822  1
  H+  H64  1  0.39227125  0.78170035  0.16658622  1
  H+  H65  1  0.88843005  0.12426885  0.83690471  1
  H+  H66  1  0.97834707  0.62864064  0.99307110  1
  H+  H67  1  0.63433477  0.10323274  0.16299506  1
  H+  H68  1  0.35687825  0.37697920  0.99508910  1
  H+  H69  1  0.28166570  0.15373417  0.69319317  1
  H+  H70  1  0.50846802  0.37715535  0.15971809  1
  H+  H71  1  0.38534135  0.51830682  0.98723992  1
  H+  H72  1  0.62112885  0.51712312  0.17585903  1
  H+  H73  1  0.23039814  0.84524301  0.37567588  1
  H+  H74  1  0.87323370  0.48133422  0.34652134  1
  H+  H75  1  0.47736348  0.87505863  0.82946388  1
  H+  H76  1  0.37057285  -0.00369948  0.33285437  1
  H+  H77  1  0.22566248  0.36509936  0.66272891  1
  H+  H78  1  -0.02671455  0.61369445  0.33253045  1
  H+  H79  1  0.57173885  0.63569699  0.66858745  1
  H+  H80  1  0.12080469  0.73469348  0.34553874  1
  H+  H81  1  0.42899232  0.62795697  0.62026755  1
  H+  H82  1  0.07686738  0.85990416  0.50898323  1
  H+  H83  1  -0.00696390  0.12780354  0.50666123  1
  H+  H84  1  0.52300098  0.88924101  0.15269850  1
  H+  H85  1  0.85745804  0.48306700  0.84904973  1
  H+  H86  1  0.60062006  0.87966287  0.00102777  1
  H+  H87  1  0.87021696  0.38957223  0.64857514  1
  H+  H88  1  0.97541237  0.35525328  0.33168538  1
  H+  H89  1  0.68963481  0.92446044  0.29115603  1
  H+  H90  1  0.08060079  0.91810856  0.24757265  1
  H+  H91  1  0.87620444  0.77426773  0.52555511  1
  H+  H92  1  0.85633117  0.64567070  1.00528265  1
  H+  H93  1  0.19260321  1.06315317  0.39636256  1
  H+  H94  1  0.14585568  0.36855886  0.51132967  1
  H+  H95  1  0.37649096  0.01663354  0.15236979  1
  H+  H96  1  0.67138956  0.84178694  0.59758456  1
  H+  H97  1  0.16454817  0.88963537  -0.01576326  1
  H+  H98  1  0.14892306  0.05633642  0.40466459  1
  H+  H99  1  0.11445087  0.24113044  0.82593328  1
  H+  H100  1  0.90278325  0.88462025  0.67680498  1
  H+  H101  1  0.56027865  0.15531728  0.36839185  1
  H+  H102  1  0.71214913  0.60400510  0.17751247  1
  H+  H103  1  0.39514576  0.78842144  0.52600971  1
  H+  H104  1  0.88077977  0.27282731  0.17765913  1
  H+  H105  1  0.14989334  0.74441090  0.81678415  1
  H+  H106  1  0.14900964  0.53447989  0.65250892  1
  H+  H107  1  0.96234438  0.79880514  0.94449767  1
  H+  H108  1  0.87714090  0.11251767  0.15705961  1
  H+  H109  1  0.12908197  0.86914598  0.17936512  1
  H+  H110  1  0.30226550  0.65157770  0.39939613  1
  H+  H111  1  0.34758876  0.45613774  0.15228447  1
  H+  H112  1  0.64636998  0.88436598  0.50680468  1
  H+  H113  1  0.34079515  0.83620350  0.37427863  1
  H+  H114  1  0.13761465  0.36758347  0.65965831  1
  H+  H115  1  0.61567192  0.49148368  0.34926648  1
  H+  H116  1  0.46344592  0.86139632  0.32821205  1
  H+  H117  1  0.13626484  0.26956382  0.33615064  1
  H+  H118  1  0.28083317  0.64305098  0.98704694  1
  H+  H119  1  0.60854539  0.52938035  0.66738749  1
  H+  H120  1  0.12048637  0.15557787  0.33519745  1
  H+  H121  1  0.65210425  0.57437605  0.27584531  1
  H+  H122  1  0.75894396  0.56507312  0.67097986  1
  H+  H123  1  0.63593028  0.29303628  0.34870634  1
  H+  H124  1  0.83675066  0.42597756  0.90740614  1
  H+  H125  1  0.30158705  0.53423938  0.18909833  1
  H+  H126  1  0.11412436  0.46457676  0.33726492  1
  H+  H127  1  0.09581093  0.95941513  0.35269453  1
  H+  H128  1  0.02519285  0.14999553  0.82949993  1
  H+  H129  1  0.37493272  0.64395307  0.82445222  1
  H+  H130  1  0.76144324  0.13361518  0.55549660  1
  H+  H131  1  0.61460574  0.47594082  0.82298460  1
  H+  H132  1  0.24275042  0.62206999  0.82777194  1
  H+  H133  1  0.74146237  0.39588715  0.18820638  1
  H+  H134  1  0.14065888  0.62629086  0.97646537  1
  H+  H135  1  0.14215584  0.64662579  0.81409624  1
  H+  H136  1  0.11874603  0.22290023  -0.00153749  1
  H+  H137  1  0.18387331  0.87369614  0.83309155  1
  H+  H138  1  0.71588271  0.45523408  0.22278425  1
  H+  H139  1  0.88124034  0.60517685  0.33502979  1
  H+  H140  1  0.61923923  0.74314133  0.49984709  1
  H+  H141  1  0.63667766  0.25704267  0.65412520  1
  H+  H142  1  0.88744818  0.11378925  -0.00689580  1
  H+  H143  1  0.39486254  0.23375250  0.35082198  1
  H+  H144  1  0.87899460  0.14714644  0.67145319  1
  H+  H145  1  0.15368815  0.13285740  0.67602673  1
  H+  H146  1  0.60855856  0.63906278  0.00100329  1
  H+  H147  1  0.91597174  0.59614674  0.93596775  1
  H+  H148  1  0.76907972  0.63647956  0.50254003  1
  H+  H149  1  0.75016286  0.12783042  0.65059689  1
  H+  H150  1  0.89334044  0.11386236  0.33945675  1
  H+  H151  1  0.84399511  0.72506930  0.80595100  1
  H+  H152  1  0.86657427  -0.01062498  0.67018938  1
  H+  H153  1  0.62502506  0.24467907  0.51618935  1
  H+  H154  1  0.72299087  0.36094813  0.84865970  1
  H+  H155  1  0.14838442  0.53349712  0.82732559  1
  H+  H156  1  0.41217119  0.33280936  0.91878445  1
  H+  H157  1  0.11743656  0.37793222  0.34232220  1
  H+  H158  1  0.87979075  0.86110962  0.17069383  1
  H+  H159  1  0.77784734  0.89797221  0.66767003  1
  H+  H160  1  0.12203795  0.48179915  0.49000381  1
  H+  H161  1  0.12379397  0.23473580  0.49593429  1
  H+  H162  1  0.09592413  0.91896201  0.84591831  1
  H+  H163  1  0.36179814  0.33580725  0.32748739  1
  H+  H164  1  0.61280908  0.89872225  0.81717480  1
  H+  H165  1  0.57171322  0.91457245  0.08845952  1
  H+  H166  1  0.25862979  0.86076331  0.52690648  1
  H+  H167  1  0.71790908  0.60858646  0.82989549  1
  H+  H168  1  0.37751813  0.26066427  0.16424079  1
  H+  H169  1  0.38016212  0.28264256  0.66820151  1
  H+  H170  1  0.57684037  0.97976659  0.42305802  1
  H+  H171  1  0.87659541  0.52656964  0.16333924  1
  H+  H172  1  0.68536068  0.29056776  1.04685218  1
  H+  H173  1  0.36744388  0.39793887  0.82221410  1
  H+  H174  1  0.90364538  0.12838918  0.51384472  1
  H+  H175  1  0.47045926  0.36341951  0.66471684  1
  H+  H176  1  0.01725185  0.62829032  0.49361290  1
  H+  H177  1  0.90405139  0.52772784  0.64768792  1
  H+  H178  1  0.48617903  0.13271798  0.80895169  1
  H+  H179  1  0.58395816  0.09987207  0.30687624  1
  H+  H180  1  0.78570562  0.39735109  0.01443354  1
  H+  H181  1  0.77192984  0.13549630  0.15397251  1
  H+  H182  1  0.37685377  0.34817069  0.16858224  1
  H+  H183  1  0.35067982  0.12877316  0.13710646  1
  H+  H184  1  0.12400787  0.49293738  0.98150404  1
  H+  H185  1  0.57810181  0.67299931  0.76300904  1
  H+  H186  1  0.67298536  0.34142346  0.57265508  1
  H+  H187  1  0.28876626  0.65096207  0.13823435  1
  H+  H188  1  0.86524687  0.38902253  0.50036819  1
  H+  H189  1  0.38959754  0.13446785  0.51576660  1
  H+  H190  1  0.38852662  0.27064803  0.97614624  1
  H+  H191  1  0.13189842  0.34466835  0.18658115  1
  H+  H192  1  0.12341237  0.40002794  0.82297684  1
  H+  H193  1  0.61221505  0.14761935  0.51211294  1
  H+  H194  1  0.62114498  0.23028382  0.80984783  1
  H+  H195  1  -0.03494655  0.62330880  0.16328794  1
  H+  H196  1  0.95321053  0.60823736  0.81502946  1
  H+  H197  1  0.84323321  0.17541248  0.72941565  1
  H+  H198  1  0.73464615  0.87907883  0.50929922  1
  H+  H199  1  0.25276001  0.19662962  0.29725041  1
  H+  H200  1  0.60340435  0.39106228  0.16063685  1
  H+  H201  1  0.64716940  0.87646917  0.65613968  1
  H+  H202  1  0.62493604  0.11768090  0.32529023  1
  H+  H203  1  0.50966904  0.38822086  -0.00114620  1
  H+  H204  1  0.18346243  0.79513442  0.67070616  1
  H+  H205  1  0.42671586  0.03043970  0.99246427  1
  H+  H206  1  0.89985661  0.37092817  0.99555051  1
  H+  H207  1  0.15078122  0.12855570  0.52176625  1
  H+  H208  1  0.77940035  0.89589678  0.32720578  1
  H+  H209  1  0.86832578  0.39436004  0.16803004  1
  H+  H210  1  0.22925892  0.35634020  0.33739218  1
  H+  H211  1  0.22802641  0.35613533  -0.01327117  1
  H+  H212  1  0.74196792  0.07948547  0.31145501  1
  H+  H213  1  0.27780585  0.38924535  0.50678351  1
  H+  H214  1  0.48572504  0.13799922  0.53128218  1
  H+  H215  1  0.36748772  0.47807252  0.50730007  1
  H+  H216  1  0.41546894  1.00944727  0.34286360  1
  H+  H217  1  0.10383892  0.21521215  0.15928281  1
  H+  H218  1  0.85845224  0.88918158  0.51566129  1
  H+  H219  1  0.36144437  0.88353031  0.15326584  1
  H+  H220  1  0.32231225  0.86445814  0.83744940  1
  H+  H221  1  0.36183536  0.17967823  0.44510169  1
  H+  H222  1  0.11347712  0.88278283  0.34279184  1
  H+  H223  1  0.51501448  0.29297200  0.71251256  1
  H+  H224  1  0.40551176  0.04423294  0.51810803  1
  H+  H225  1  0.27195133  0.88223448  0.13978158  1
  H+  H226  1  0.52477964  0.38789100  0.50096555  1
  H+  H227  1  0.14355658  0.14681512  0.85710066  1
  H+  H228  1  0.88515628  0.61662594  0.50678325  1
  H+  H229  1  0.26408744  0.62760282  0.33402210  1
  H+  H230  1  0.62586429  0.51999662  -0.01273987  1
  H+  H231  1  0.63171349  0.73663193  0.34719048  1
  H+  H232  1  0.58619628  0.33746326  0.97823851  1
  H+  H233  1  0.41217427  0.09548838  0.20215105  1
  H+  H234  1  0.40383532  0.92217141  0.51351576  1
  H+  H235  1  0.88476166  0.52632948  0.50826451  1
  H+  H236  1  0.87014744  0.49042634  0.00918591  1
  H+  H237  1  0.88354007  0.26904647  0.51020726  1
  H+  H238  1  0.38455129  0.30506422  0.26401438  1
  H+  H239  1  0.08432454  0.65141337  0.19321415  1
  H+  H240  1  0.03347497  0.39935488  0.66841385  1
  H+  H241  1  0.09919412  0.75565264  0.53114051  1
  H+  H242  1  0.60404970  0.73583065  0.67186941  1
  H+  H243  1  0.73386952  0.37187494  0.51217553  1
  H+  H244  1  0.08711912  0.17551588  0.73835208  1
  H+  H245  1  0.84963072  0.72971291  -0.00098382  1
  H+  H246  1  0.48346763  0.62039730  0.83404472  1
  H+  H247  1  0.78376543  0.39308244  0.35077917  1
  H+  H248  1  0.34218998  0.41141526  0.41702025  1
  H+  H249  1  0.01208453  0.37197038  0.17283685  1
  H+  H250  1  0.54079566  0.90445160  0.66600884  1
  H+  H251  1  0.94245263  0.85931172  0.80479935  1
  H+  H252  1  0.81379814  0.65155164  0.75249944  1
  H+  H253  1  0.39609843  0.46761936  0.36136662  1
  H+  H254  1  0.87602982  0.01360472  0.15558859  1
  H+  H255  1  0.29117297  0.65102583  0.66679143  1
  H+  H256  1  0.80996518  0.16333762  0.39961676  1
  H+  H257  1  0.77603047  0.14670754  0.82092000  1
  H+  H258  1  0.37420883  0.65053105  0.14242144  1
  H+  H259  1  0.63909085  0.11895113  0.82739861  1
  H+  H260  1  0.63346644  0.61523017  0.33689102  1
  H+  H261  1  0.46241092  0.20817651  0.38110555  1
  H+  H262  1  0.18115737  0.08467247  0.86809270  1
  H+  H263  1  0.19449004  0.83095782  0.89268335  1
  H+  H264  1  0.58769138  0.88573499  0.36505578  1
  H+  H265  1  0.85462989  0.22445476  0.34309535  1
  H+  H266  1  0.37788352  0.60338187  0.32467742  1
  H+  H267  1  0.59475708  0.20310603  0.13137968  1
  H+  H268  1  0.62435353  0.77241201  1.00686024  1
  H+  H269  1  0.90119813  0.27968865  0.65996678  1
  H+  H270  1  0.52910669  0.10330327  0.66600823  1
  H+  H271  1  0.62464611  0.40071661  0.35234108  1
  H+  H272  1  0.39186091  0.14127708  -0.00564096  1
  H+  H273  1  0.40755532  0.87843757  0.67353626  1
  H+  H274  1  0.12717010  0.93878721  0.77631209  1
  H+  H275  1  0.41792945  0.15092133  0.30171619  1
  H+  H276  1  -0.03630718  0.86061641  0.52001965  1
  H+  H277  1  0.60369609  0.62604103  0.81520645  1
  H+  H278  1  0.47912331  0.36756117  0.83034432  1
  H+  H279  1  0.85245623  0.88414387  -0.00441941  1
  H+  H280  1  0.12313691  0.74546409  0.00133237  1
  H+  H281  1  1.02376416  0.14148624  0.34529750  1
  H+  H282  1  0.11509482  0.64422319  0.33560782  1
  H+  H283  1  0.38370740  0.76553362  0.32494017  1
  H+  H284  1  0.13234238  -0.00143981  0.69255315  1
  H+  H285  1  0.63278250  0.02307267  0.98068806  1
  H+  H286  1  0.66895381  0.73983143  0.86391210  1
  H+  H287  1  0.96209450  0.84450285  0.32256808  1
  H+  H288  1  0.06049330  0.36445315  0.11598946  1
  H+  H289  1  0.91506222  0.09044047  0.89598038  1
  H+  H290  1  0.39563388  0.99193179  0.72975580  1
  H+  H291  1  0.84055749  0.42095003  0.10559056  1
  H+  H292  1  0.32645495  0.16643529  0.08109225  1
  H+  H293  1  0.11898901  1.00782597  0.00531736  1
  H+  H294  1  0.54187878  0.13310055  0.04622490  1
  H+  H295  1  0.67265770  0.35048335  0.28632979  1
  H+  H296  1  0.26580030  0.88765213  0.66169020  1
  H+  H297  1  0.32612983  0.40111181  0.05710446  1
  H+  H298  1  0.91049679  0.32868883  0.24009195  1
  H+  H299  1  0.62475123  0.10592914  0.97858211  1
  H+  H300  1  0.86120468  0.97641042  -0.00000279  1
  H+  H301  1  0.93281199  0.84588004  0.62564457  1
  H+  H302  1  0.10927277  0.97861136  0.18892927  1
  H+  H303  1  0.07904549  0.16547102  0.09409862  1
  H+  H304  1  0.86477462  0.22868321  1.00255642  1
  H+  H305  1  0.22302430  0.87471765  0.31052883  1
  H+  H306  1  0.33960454  0.88643196  0.43348975  1
  H+  H307  1  0.85987254  0.86403122  0.82369736  1
  H+  H308  1  0.56938658  0.38353609  0.74337580  1
  H+  H309  1  0.30026811  0.12679875  -0.02159537  1
  H+  H310  1  0.18467706  0.12615126  0.25204111  1
  H+  H311  1  0.11651552  0.23394475  0.67757404  1
  H+  H312  1  0.97627989  0.35562458  0.50296758  1
  H+  H313  1  0.61723878  0.39163684  0.50002849  1
  H+  H314  1  0.32541615  0.42101098  0.73161471  1
  H+  H315  1  0.18140156  0.83342837  0.21308149  1
  H+  H316  1  0.68622993  0.05176371  0.24955449  1
  H+  H317  1  0.98808476  0.12266796  0.66459107  1
  H+  H318  1  0.83746594  0.91840522  0.09373968  1
  H+  H319  1  0.42319668  0.58791370  0.89416862  1
  H+  H320  1  0.06775769  0.53041354  0.28421482  1
  H+  H321  1  0.57329092  0.24174780  0.97262376  1
  H+  H322  1  0.47060889  0.98953679  0.47110468  1
  H+  H323  1  0.35634746  0.92113739  0.05544778  1
  H+  H324  1  0.66381672  0.04016236  0.63778484  1
  H+  H325  1  0.48632195  0.86664709  0.94282094  1
  H+  H326  1  0.66729685  0.08865290  0.88830190  1
  H+  H327  1  0.12033229  0.44939592  0.04299364  1
  H+  H328  1  0.04163231  0.91131153  0.69579936  1
  H+  H329  1  0.17348961  0.34053013  0.89175504  1
  H+  H330  1  0.25607568  0.71462575  0.46640892  1
  H+  H331  1  0.63527877  0.31399968  0.88791359  1
  H+  H332  1  0.38643546  0.56682645  0.22456126  1
  H+  H333  1  0.14053833  0.82303558  0.58428412  1
  H+  H334  1  1.04305272  0.67184829  0.89989324  1
  H+  H335  1  0.03392994  0.85177423  0.44540446  1
  H+  H336  1  0.16918563  0.31591879  0.24113025  1
  H+  H337  1  0.77382000  0.14100538  0.00055323  1
  H+  H338  1  0.17029768  0.33572943  0.57230362  1
  H+  H339  1  0.34684876  0.68098748  0.04169769  1
  H+  H340  1  0.82692547  0.66564864  0.44256871  1
  H+  H341  1  0.12752686  0.10532226  0.15935837  1
  H+  H342  1  0.07882859  0.66404057  0.43496380  1
  H+  H343  1  0.85924889  0.61431289  0.66731147  1
  H+  H344  1  0.41399356  0.09905160  0.85884422  1
  H+  H345  1  0.89060179  0.36433713  0.33392012  1
  H+  H346  1  0.83939011  0.41937909  0.44005567  1
  H+  H347  1  0.03283195  0.64039180  0.67199976  1
  H+  H348  1  0.83377747  0.17260021  0.09608790  1
  H+  H349  1  0.60302872  0.94197194  0.72115991  1
  H+  H350  1  0.76675804  0.09455658  0.49408414  1
  H+  H351  1  0.15239427  0.56907413  0.24651220  1
  H+  H352  1  0.08969950  0.41610621  0.43512855  1
  H+  H353  1  0.09966085  0.73291208  0.15792059  1
  H+  H354  1  0.59615403  0.16616359  0.75100862  1
  H+  H355  1  0.92906867  0.33645245  0.89789372  1
  H+  H356  1  0.10571770  0.67805532  0.75010401  1
  H+  H357  1  0.34863732  0.67314302  0.72602206  1
  H+  H358  1  0.93772697  0.59967623  0.59794026  1
  H+  H359  1  0.92940994  0.33529071  0.59877138  1
  H+  H360  1  0.09408856  0.68066966  0.05708094  1
  H+  H361  1  0.41337580  0.83538893  0.22906423  1
  H+  H362  1  0.53121721  0.65420623  0.50488201  1
  H+  H363  1  1.03272343  0.70681648  0.89510283  1
  H+  H364  1  0.93380184  0.09720016  0.60217224  1
  H+  H365  1  0.56669832  0.41235382  0.05991662  1
  H+  H366  1  0.79443275  0.34843520  0.75200335  1
  H+  H367  1  0.57371436  0.19764150  0.43260105  1
  H+  H368  1  0.91044642  0.82971674  0.90624008  1
  H+  H369  1  0.42583347  0.84339969  0.58864025  1
  H+  H370  1  0.65966001  0.57931673  0.89044377  1
  H+  H371  1  0.59891543  0.68124251  0.40762234  1
  H+  H372  1  0.89531392  0.81396441  0.26815060  1
  H+  H373  1  0.09384844  0.43259972  0.72726728  1
  H+  H374  1  0.17249267  0.59853141  0.91600124  1
  H+  H375  1  0.09387101  0.17386142  0.43674327  1
  H+  H376  1  0.58722962  0.42554916  0.41513534  1
  H+  H377  1  0.42168531  0.33725578  0.57440819  1
  H+  H378  1  0.82228619  0.67120162  0.09592721  1
  H+  H379  1  0.18939370  0.10723868  0.61806901  1
  H+  H380  1  0.79785146  0.30856780  0.75285170  1
  H+  H381  1  0.69016407  0.79862824  0.91955366  1
  H+  H382  1  0.52956849  0.90908703  0.51943269  1
  H+  H383  1  0.62038933  0.56687321  0.60073277  1
  O2-  O384  1  0.06942824  0.15789131  0.13910348  1
  O2-  O385  1  0.09252025  0.17361423  0.48228733  1
  O2-  O386  1  0.08646381  0.17860336  0.81552161  1
  O2-  O387  1  0.07195574  0.39402094  0.15502926  1
  O2-  O388  1  0.08935594  0.41977878  0.48034482  1
  O2-  O389  1  0.09398211  0.43183644  0.80808094  1
  O2-  O390  1  0.06890263  0.66775543  0.15489525  1
  O2-  O391  1  0.07921981  0.65784793  0.47977384  1
  O2-  O392  1  0.11463140  0.68243967  0.79937324  1
  O2-  O393  1  0.07815425  0.91608220  0.20229119  1
  O2-  O394  1  0.05644917  0.89012169  0.48012877  1
  O2-  O395  1  0.14688803  0.93839918  0.82087947  1
  O2-  O396  1  0.32129264  0.16181197  0.12604185  1
  O2-  O397  1  0.35182337  0.17712290  0.49030499  1
  O2-  O398  1  0.34052561  0.18783231  0.77300718  1
  O2-  O399  1  0.32279414  0.39581752  0.13809810  1
  O2-  O400  1  0.33941488  0.41848068  0.49171964  1
  O2-  O401  1  0.33472089  0.42697062  0.81027837  1
  O2-  O402  1  0.34997609  0.68630782  0.12790978  1
  O2-  O403  1  0.26326612  0.66424894  0.47394854  1
  O2-  O404  1  0.34204584  0.67147025  0.80720600  1
  O2-  O405  1  0.33409906  0.91296028  0.13113933  1
  O2-  O406  1  0.40987063  0.96731941  0.48399133  1
  O2-  O407  1  0.38299112  0.89524878  0.82366912  1
  O2-  O408  1  0.56553703  0.14177630  0.12256428  1
  O2-  O409  1  0.58408115  0.18130483  0.50481667  1
  O2-  O410  1  0.59174652  0.16877815  0.79647023  1
  O2-  O411  1  0.56855652  0.41429902  0.14352001  1
  O2-  O412  1  0.58451857  0.41863519  0.48275452  1
  O2-  O413  1  0.58281050  0.41317735  0.81057728  1
  O2-  O414  1  0.58731616  0.67688831  0.14467307  1
  O2-  O415  1  0.58938821  0.68086610  0.48727352  1
  O2-  O416  1  0.58046725  0.66516101  0.80834674  1
  O2-  O417  1  0.58090891  0.91644915  0.13339747  1
  O2-  O418  1  0.58999871  0.95077157  0.50560431  1
  O2-  O419  1  0.58260876  0.92796136  0.80324735  1
  O2-  O420  1  0.83449155  0.16924479  0.14175231  1
  O2-  O421  1  0.79650818  0.14771215  0.51745173  1
  O2-  O422  1  0.83743264  0.17616789  0.80743278  1
  O2-  O423  1  0.84035696  0.42610794  0.15073748  1
  O2-  O424  1  0.83450826  0.41870372  0.48543698  1
  O2-  O425  1  0.83398488  0.42192354  0.86318985  1
  O2-  O426  1  0.82489958  0.66615411  0.14159712  1
  O2-  O427  1  0.82977792  0.66631288  0.48779925  1
  O2-  O428  1  0.81846348  0.66209460  0.79775877  1
  O2-  O429  1  0.83643325  0.92200989  0.13933330  1
  O2-  O430  1  0.83018310  0.92036260  0.49837484  1
  O2-  O431  1  0.82472627  0.92389748  0.80809818  1
  O2-  O432  1  0.16226048  0.08144630  0.17658785  1
  O2-  O433  1  0.18364048  0.10621185  0.54365527  1
  O2-  O434  1  0.17828924  0.13282104  0.88599951  1
  O2-  O435  1  0.16311350  0.31368146  0.19559502  1
  O2-  O436  1  0.17606035  0.33850147  0.52619840  1
  O2-  O437  1  0.17204619  0.34651492  0.84683817  1
  O2-  O438  1  0.17237074  0.56807524  0.16669938  1
  O2-  O439  1  0.18335342  0.60193331  0.50686627  1
  O2-  O440  1  0.18000988  0.59595548  0.84040075  1
  O2-  O441  1  0.16021224  0.83503832  0.17252314  1
  O2-  O442  1  0.09303425  0.79891045  0.55421047  1
  O2-  O443  1  0.20220503  0.83141566  0.84798433  1
  O2-  O444  1  0.40673468  0.08043320  0.15777989  1
  O2-  O445  1  0.42127013  0.10259678  0.53663443  1
  O2-  O446  1  0.42313753  0.10977482  0.81536812  1
  O2-  O447  1  0.40660956  0.31793930  0.18496928  1
  O2-  O448  1  0.42520815  0.33768507  0.52830427  1
  O2-  O449  1  0.41653538  0.33875365  0.84134034  1
  O2-  O450  1  0.36261257  0.55579249  0.18214850  1
  O2-  O451  1  0.41674914  0.59247968  0.53433458  1
  O2-  O452  1  0.42147357  0.59114484  0.84884911  1
  O2-  O453  1  0.41772581  0.84094206  0.18400474  1
  O2-  O454  1  0.42724968  0.84687728  0.54155450  1
  O2-  O455  1  0.41919326  0.84360547  0.84930445  1
  O2-  O456  1  0.66904696  0.07686446  0.17504986  1
  O2-  O457  1  0.57790743  0.00745660  0.46313822  1
  O2-  O458  1  0.66970843  0.08852970  0.84301485  1
  O2-  O459  1  0.69366326  0.39513171  0.21171318  1
  O2-  O460  1  0.67229418  0.34300769  0.52649379  1
  O2-  O461  1  0.65952009  0.32725032  0.84495942  1
  O2-  O462  1  0.65487694  0.57406904  0.19665719  1
  O2-  O463  1  0.66312158  0.58832514  0.52670210  1
  O2-  O464  1  0.65777050  0.57319809  0.84524264  1
  O2-  O465  1  0.67537718  0.83954055  0.17126073  1
  O2-  O466  1  0.66940183  0.84721523  0.51896960  1
  O2-  O467  1  0.70950399  0.76374734  0.89812900  1
  O2-  O468  1  0.90790861  0.07915108  0.16822967  1
  O2-  O469  1  0.93344070  0.09744401  0.52519853  1
  O2-  O470  1  0.92003471  0.09485439  0.85103334  1
  O2-  O471  1  0.91242816  0.33272798  0.19414058  1
  O2-  O472  1  0.91718128  0.33073921  0.51982125  1
  O2-  O473  1  0.92819256  0.34130523  0.85288805  1
  O2-  O474  1  0.90116910  0.59042395  0.17209695  1
  O2-  O475  1  0.91886518  0.58826530  0.51952330  1
  O2-  O476  1  0.90222191  0.58764014  0.84061159  1
  O2-  O477  1  0.90272588  0.82456619  0.18698316  1
  O2-  O478  1  0.90659709  0.83384228  0.54118109  1
  O2-  O479  1  0.89210093  0.82989593  0.83098387  1
  O2-  O480  1  0.19437913  0.14603775  0.29476399  1
  O2-  O481  1  0.19024131  0.10765541  0.66406333  1
  O2-  O482  1  0.13891747  0.12335393  1.00183746  1
  O2-  O483  1  0.17186484  0.33120379  0.31861496  1
  O2-  O484  1  0.16388520  0.33290588  0.64616030  1
  O2-  O485  1  0.16666367  0.32416275  0.97096883  1
  O2-  O486  1  0.13027695  0.56204241  0.28900323  1
  O2-  O487  1  0.17981303  0.59620954  0.63894796  1
  O2-  O488  1  0.16829775  0.59392497  0.96164098  1
  O2-  O489  1  0.18671030  0.84538212  0.34540895  1
  O2-  O490  1  0.21674957  0.83992584  0.64096576  1
  O2-  O491  1  0.18638759  0.84962498  0.97560338  1
  O2-  O492  1  0.44893304  0.14929554  0.26486062  1
  O2-  O493  1  0.43547705  0.02436027  0.64647158  1
  O2-  O494  1  0.45350367  0.09299903  0.97975928  1
  O2-  O495  1  0.36346180  0.28785285  0.30651500  1
  O2-  O496  1  0.41189119  0.33998454  0.64752153  1
  O2-  O497  1  0.41079631  0.33156186  0.96443359  1
  O2-  O498  1  0.39085702  0.56283221  0.30299573  1
  O2-  O499  1  0.39650169  0.57223089  0.59917975  1
  O2-  O500  1  0.41897710  0.57853124  0.97280397  1
  O2-  O501  1  0.40340879  0.82557685  0.31284162  1
  O2-  O502  1  0.43217787  0.84449867  0.65640009  1
  O2-  O503  1  0.48182064  0.86659891  0.98755873  1
  O2-  O504  1  0.69600884  0.03015037  0.28862345  1
  O2-  O505  1  0.69725539  0.10135717  0.62432079  1
  O2-  O506  1  0.66460102  0.08478844  0.96832350  1
  O2-  O507  1  0.67294787  0.35204118  0.33156853  1
  O2-  O508  1  0.66509023  0.31995544  0.64446032  1
  O2-  O509  1  0.58832508  0.29504018  0.95052166  1
  O2-  O510  1  0.65456310  0.57503170  0.32136987  1
  O2-  O511  1  0.58433718  0.55169041  0.63810838  1
  O2-  O512  1  0.65517109  0.57961027  0.97041254  1
  O2-  O513  1  0.67688544  0.86430994  0.29439448  1
  O2-  O514  1  0.67376655  0.84178978  0.64295369  1
  O2-  O515  1  0.65113840  0.83487530  0.99517720  1
  O2-  O516  1  0.92860508  0.09123819  0.32260147  1
  O2-  O517  1  0.92820922  0.09607675  0.64749710  1
  O2-  O518  1  0.91379580  0.08052047  0.97681139  1
  O2-  O519  1  0.91529853  0.32951967  0.31624362  1
  O2-  O520  1  0.93198526  0.34013207  0.64388446  1
  O2-  O521  1  0.92624164  0.33798517  0.97964047  1
  O2-  O522  1  0.91306441  0.57681686  0.31940277  1
  O2-  O523  1  0.93741681  0.59254477  0.64305119  1
  O2-  O524  1  0.91626540  0.59426667  0.98090010  1
  O2-  O525  1  0.89991133  0.81284059  0.31314343  1
  O2-  O526  1  0.93871154  0.85771451  0.66980915  1
  O2-  O527  1  0.92672656  0.82518349  0.94971292  1
  O2-  O528  1  0.08521622  0.16227839  0.01569989  1
  O2-  O529  1  0.08678019  0.17654914  0.35899738  1
  O2-  O530  1  0.08820613  0.17317293  0.69285356  1
  O2-  O531  1  0.09969033  0.43422673  0.00140289  1
  O2-  O532  1  0.08460242  0.40713958  0.35587393  1
  O2-  O533  1  0.09513950  0.43294365  0.68198300  1
  O2-  O534  1  0.08792400  0.68310426  0.01311381  1
  O2-  O535  1  0.08580276  0.67213283  0.35451814  1
  O2-  O536  1  0.09392458  0.66977751  0.68869397  1
  O2-  O537  1  0.10446339  0.94745448  0.00008931  1
  O2-  O538  1  0.07656413  0.90642172  0.32932037  1
  O2-  O539  1  0.10221637  0.94065646  0.71124613  1
  O2-  O540  1  0.35210548  0.16427917  0.00143273  1
  O2-  O541  1  0.40108791  0.18904297  0.37422086  1
  O2-  O542  1  0.34557823  0.18829888  0.70615464  1
  O2-  O543  1  0.32607906  0.40615894  0.01204895  1
  O2-  O544  1  0.34681818  0.41130936  0.37110303  1
  O2-  O545  1  0.31925073  0.41632625  0.68665670  1
  O2-  O546  1  0.34186445  0.66728585  -0.00194982  1
  O2-  O547  1  0.31854457  0.65333500  0.35598720  1
  O2-  O548  1  0.35146005  0.68182369  0.68129556  1
  O2-  O549  1  0.36505059  0.92685176  0.01041446  1
  O2-  O550  1  0.30294554  0.83513938  0.40772008  1
  O2-  O551  1  0.38143179  0.96136340  0.69052805  1
  O2-  O552  1  0.54352025  0.13508863  0.00034178  1
  O2-  O553  1  0.56315428  0.20527650  0.38856172  1
  O2-  O554  1  0.59016998  0.15166680  0.67519686  1
  O2-  O555  1  0.56988965  0.41489492  0.01485690  1
  O2-  O556  1  0.59027499  0.42846835  0.36758039  1
  O2-  O557  1  0.55361455  0.35316240  0.70203851  1
  O2-  O558  1  0.57852149  0.66641148  0.02116321  1
  O2-  O559  1  0.60314061  0.67779266  0.36260332  1
  O2-  O560  1  0.56111396  0.67900401  0.68868888  1
  O2-  O561  1  0.57202525  0.91806242  0.00860375  1
  O2-  O562  1  0.56644492  0.92565013  0.35820807  1
  O2-  O563  1  0.60333892  0.93891932  0.67617958  1
  O2-  O564  1  0.83278729  0.16865149  0.01826079  1
  O2-  O565  1  0.82196759  0.16308851  0.35648309  1
  O2-  O566  1  0.84692140  0.17750501  0.68404638  1
  O2-  O567  1  0.84684821  0.43010911  0.02463819  1
  O2-  O568  1  0.84521925  0.41962425  0.36216094  1
  O2-  O569  1  0.84165439  0.42437537  0.64428508  1
  O2-  O570  1  0.82346049  0.67324761  0.01983115  1
  O2-  O571  1  0.82453405  0.65464793  0.36200434  1
  O2-  O572  1  0.80896851  0.62024544  0.68028704  1
  O2-  O573  1  0.83040753  0.91657972  0.01728157  1
  O2-  O574  1  0.83796846  0.92389314  0.34467818  1
  O2-  O575  1  0.83603052  0.92995572  0.68693280  1
