# generated using pymatgen
data_H2O
_symmetry_space_group_name_H-M   'P 1'
_cell_length_a   17.94159964
_cell_length_b   17.94259577
_cell_length_c   21.97403250
_cell_angle_alpha   90.04259360
_cell_angle_beta   89.96189991
_cell_angle_gamma   119.98909537
_symmetry_Int_Tables_number   1
_chemical_formula_structural   H2O
_chemical_formula_sum   'H384 O192'
_cell_volume   6126.80974264
_cell_formula_units_Z   192
loop_
 _symmetry_equiv_pos_site_id
 _symmetry_equiv_pos_as_xyz
  1  'x, y, z'
loop_
 _atom_type_symbol
 _atom_type_oxidation_number
  H+  1.0
  O2-  -2.0
loop_
 _atom_site_type_symbol
 _atom_site_label
 _atom_site_symmetry_multiplicity
 _atom_site_fract_x
 _atom_site_fract_y
 _atom_site_fract_z
 _atom_site_occupancy
  H+  H0  1  0.89139215  0.51276568  0.18823516  1
  H+  H1  1  0.46146860  0.34227992  -0.00216232  1
  H+  H2  1  -0.05446523  0.59041906  0.85043550  1
  H+  H3  1  0.40229964  0.62149057  0.84281515  1
  H+  H4  1  0.86934596  0.73756333  0.50859472  1
  H+  H5  1  0.21977485  0.10505578  0.17849076  1
  H+  H6  1  0.47375956  0.61228780  0.65918418  1
  H+  H7  1  0.13154341  0.76998457  0.17733839  1
  H+  H8  1  0.53925395  0.92702357  0.49933629  1
  H+  H9  1  0.37134994  0.76304048  0.16774664  1
  H+  H10  1  0.02096010  0.63216078  0.16647451  1
  H+  H11  1  0.75787225  0.11684817  0.49011157  1
  H+  H12  1  0.51848736  0.37119005  0.16631646  1
  H+  H13  1  0.87333151  0.36637246  0.18435326  1
  H+  H14  1  1.02205715  0.38046431  0.16354253  1
  H+  H15  1  0.10984541  0.21883675  0.17358818  1
  H+  H16  1  0.78189169  0.64712703  0.50603761  1
  H+  H17  1  0.61376367  0.07541310  0.49805652  1
  H+  H18  1  0.11227179  0.63900948  0.50427901  1
  H+  H19  1  0.75859506  1.00485600  -0.02420271  1
  H+  H20  1  0.47829033  0.86155549  0.99161801  1
  H+  H21  1  0.87730658  0.50956412  1.01331722  1
  H+  H22  1  0.86488533  0.47331067  0.68188579  1
  H+  H23  1  0.14615276  0.71521694  0.71129662  1
  H+  H24  1  0.63232744  0.76928570  -0.00996124  1
  H+  H25  1  0.35676628  0.63174943  0.16084390  1
  H+  H26  1  0.13660338  0.03636329  0.66070416  1
  H+  H27  1  0.62022576  0.23220302  0.83385143  1
  H+  H28  1  0.64484684  0.12206505  -0.00635001  1
  H+  H29  1  0.62802757  0.48027615  0.35939455  1
  H+  H30  1  0.35975694  0.49519275  0.34334537  1
  H+  H31  1  0.52511269  0.12907360  0.34289784  1
  H+  H32  1  0.51715462  0.13657027  0.01066384  1
  H+  H33  1  0.13282763  0.60772920  0.17472729  1
  H+  H34  1  0.67125117  0.33473817  0.90298482  1
  H+  H35  1  0.68731997  0.50546677  -0.05782738  1
  H+  H36  1  0.30887513  1.00114785  0.75039347  1
  H+  H37  1  0.83364331  0.88136622  0.06946819  1
  H+  H38  1  0.02134443  0.12944593  0.16870688  1
  H+  H39  1  0.61906335  0.97755095  -0.00189124  1
  H+  H40  1  1.02102792  0.39161437  0.82892851  1
  H+  H41  1  0.79162984  0.88059176  0.65838606  1
  H+  H42  1  0.13066405  0.10746129  0.18128416  1
  H+  H43  1  0.73007044  0.60849831  0.34543936  1
  H+  H44  1  0.72595908  0.35994343  0.51086296  1
  H+  H45  1  0.35096525  -0.02922521  0.49295424  1
  H+  H46  1  0.10878249  0.39504824  0.82254439  1
  H+  H47  1  0.47253849  0.85783072  0.31131712  1
  H+  H48  1  -0.02574977  0.35757930  0.64593602  1
  H+  H49  1  0.18243875  0.81888396  0.84375774  1
  H+  H50  1  0.65279256  0.10242465  0.67676982  1
  H+  H51  1  0.54311926  0.11382137  0.68649412  1
  H+  H52  1  0.64603872  0.89189746  0.50549368  1
  H+  H53  1  0.86931602  0.47765736  0.85015610  1
  H+  H54  1  0.36427978  0.22071658  0.16985367  1
  H+  H55  1  0.17304564  0.83074849  0.66084060  1
  H+  H56  1  0.37717630  0.02385510  0.99237222  1
  H+  H57  1  0.13525499  0.35885601  0.50406968  1
  H+  H58  1  0.88029233  0.10750289  0.32369502  1
  H+  H59  1  0.63732027  0.64867288  0.81977747  1
  H+  H60  1  0.87629659  0.84718980  0.81916016  1
  H+  H61  1  0.42463264  0.58721200  0.93209577  1
  H+  H62  1  0.45212425  0.47802313  0.05946325  1
  H+  H63  1  0.88324769  0.34457179  0.84796842  1
  H+  H64  1  0.64034277  0.60233914  0.13300190  1
  H+  H65  1  0.86969077  0.22075241  0.67707005  1
  H+  H66  1  0.10630676  0.14031185  0.00095542  1
  H+  H67  1  0.21930772  0.86080892  0.17748245  1
  H+  H68  1  0.52488704  0.63050601  0.15627157  1
  H+  H69  1  0.16272366  0.57582985  0.26828825  1
  H+  H70  1  0.49292922  0.85879845  0.66281619  1
  H+  H71  1  0.11952770  0.22652213  0.49531146  1
  H+  H72  1  0.37389798  0.27438335  0.84484142  1
  H+  H73  1  0.26819292  0.38346435  0.16792583  1
  H+  H74  1  0.57475315  0.64168916  0.74141845  1
  H+  H75  1  0.22467630  0.60995123  0.84544275  1
  H+  H76  1  0.02188625  0.88598925  0.34510817  1
  H+  H77  1  0.83233768  0.42317887  0.43950556  1
  H+  H78  1  0.77323080  0.38565004  0.34679066  1
  H+  H79  1  0.10898018  0.85232731  0.99580772  1
  H+  H80  1  0.88360160  0.87453642  0.51071651  1
  H+  H81  1  0.38508590  0.01825765  0.16271542  1
  H+  H82  1  0.10748191  0.63405055  0.33617649  1
  H+  H83  1  0.79458405  0.16075222  0.00480511  1
  H+  H84  1  0.63848531  0.51252477  0.13976234  1
  H+  H85  1  0.52130559  0.13248286  0.49013956  1
  H+  H86  1  0.88676389  0.61231839  0.33465705  1
  H+  H87  1  0.38283541  0.52169850  0.18009830  1
  H+  H88  1  0.63073214  0.47631286  0.67242076  1
  H+  H89  1  0.39190413  0.29023529  0.66350951  1
  H+  H90  1  0.11712893  0.38398225  0.63858322  1
  H+  H91  1  0.10973462  0.76196975  0.99495156  1
  H+  H92  1  0.63746208  0.35708259  0.34046277  1
  H+  H93  1  0.76561901  0.67773040  0.97354005  1
  H+  H94  1  0.08187555  0.41204655  0.58291978  1
  H+  H95  1  0.36609702  0.72353530  0.82698833  1
  H+  H96  1  0.11887008  0.14795210  0.67260047  1
  H+  H97  1  0.14021119  0.27727490  0.65934662  1
  H+  H98  1  0.86726876  0.62996397  0.16891067  1
  H+  H99  1  0.89904986  0.14171175  0.99311753  1
  H+  H100  1  0.10549264  0.89065192  0.49553258  1
  H+  H101  1  0.86809153  0.72817940  0.34866879  1
  H+  H102  1  0.88435336  0.11527283  0.50202567  1
  H+  H103  1  0.07778095  0.76326655  0.65014284  1
  H+  H104  1  0.44475649  0.15044589  0.62949761  1
  H+  H105  1  0.96981216  0.85669188  0.82363064  1
  H+  H106  1  0.63180901  0.74615021  0.33944565  1
  H+  H107  1  0.52567285  0.63876615  0.00090004  1
  H+  H108  1  0.52786885  0.97356072  0.11546858  1
  H+  H109  1  0.10724429  0.72274972  0.33854990  1
  H+  H110  1  0.72382385  0.84648562  0.17712917  1
  H+  H111  1  0.02873119  0.14473648  0.66809252  1
  H+  H112  1  1.02588053  0.14602916  0.32166257  1
  H+  H113  1  0.64971334  0.86466822  0.66341327  1
  H+  H114  1  0.21224302  0.10883026  0.00719274  1
  H+  H115  1  0.36280549  0.22411519  0.34258533  1
  H+  H116  1  0.59500851  0.45414161  0.01659263  1
  H+  H117  1  0.01217535  0.63377727  0.50743088  1
  H+  H118  1  0.48357015  0.37444387  0.51032162  1
  H+  H119  1  0.22463333  0.37134896  -0.01405331  1
  H+  H120  1  0.22625723  0.62543994  0.50727126  1
  H+  H121  1  0.27460675  0.39933944  0.34417461  1
  H+  H122  1  0.13242037  0.52585978  0.84381956  1
  H+  H123  1  -0.02369110  0.11026101  0.83997786  1
  H+  H124  1  0.88776888  0.86154320  0.33164881  1
  H+  H125  1  0.85919234  0.22328868  0.34196393  1
  H+  H126  1  0.59656895  0.89397087  0.25657128  1
  H+  H127  1  0.73326996  0.11324782  0.83873275  1
  H+  H128  1  0.64459229  0.11630943  0.84014193  1
  H+  H129  1  0.60972763  0.22523915  0.16928197  1
  H+  H130  1  0.89430704  0.11245717  0.66011776  1
  H+  H131  1  0.13492365  0.86474518  0.33369642  1
  H+  H132  1  0.08059173  0.41403299  0.10123362  1
  H+  H133  1  0.97607990  0.61114964  0.33120143  1
  H+  H134  1  0.45805127  0.85629517  0.16501580  1
  H+  H135  1  0.64627740  1.03852955  0.16464541  1
  H+  H136  1  0.77067164  0.13264279  0.33687716  1
  H+  H137  1  0.86854038  0.21936868  0.83326697  1
  H+  H138  1  0.85950741  -0.03353756  0.15474945  1
  H+  H139  1  0.38728198  0.36312726  1.00531786  1
  H+  H140  1  0.59322375  0.42088624  0.44974405  1
  H+  H141  1  0.32404861  0.90590479  0.43717739  1
  H+  H142  1  0.90995388  0.36991863  -0.01116665  1
  H+  H143  1  0.61766800  0.88676942  0.00050167  1
  H+  H144  1  0.38239461  0.62908279  0.32974829  1
  H+  H145  1  0.63531041  0.10397898  0.32353880  1
  H+  H146  1  0.67436844  0.66976094  0.96854665  1
  H+  H147  1  0.85866754  0.38958121  0.49837546  1
  H+  H148  1  0.87195255  0.23079212  0.16386566  1
  H+  H149  1  0.35366188  0.72983397  0.33904111  1
  H+  H150  1  0.72362335  0.50057042  0.92998318  1
  H+  H151  1  0.61606233  0.71667192  0.15924386  1
  H+  H152  1  0.63453885  0.83501325  0.32504220  1
  H+  H153  1  0.92179605  0.09706429  0.93284460  1
  H+  H154  1  0.77693029  0.38267702  0.67973831  1
  H+  H155  1  0.73866805  0.09860349  0.67191479  1
  H+  H156  1  0.29085004  0.80764869  0.67999743  1
  H+  H157  1  0.88282665  0.86308774  -0.04468180  1
  H+  H158  1  0.88839892  0.25442567  0.00190440  1
  H+  H159  1  0.87821255  0.59595753  0.00156177  1
  H+  H160  1  0.88751408  0.35807997  0.66475839  1
  H+  H161  1  0.98195931  0.61040390  0.66657080  1
  H+  H162  1  0.62655649  0.96941118  0.67879609  1
  H+  H163  1  0.38511174  0.99385324  0.72075228  1
  H+  H164  1  0.39081292  0.50719122  0.49190507  1
  H+  H165  1  0.20985524  0.35639180  0.83163230  1
  H+  H166  1  0.37968571  0.11836639  0.49664098  1
  H+  H167  1  0.36815458  0.73558111  0.49401037  1
  H+  H168  1  0.39068658  0.86992909  0.50974175  1
  H+  H169  1  0.12183280  0.02142519  1.00344767  1
  H+  H170  1  0.09746128  0.48089695  0.50009386  1
  H+  H171  1  0.91721096  0.57946274  0.24272362  1
  H+  H172  1  0.22277244  0.10986312  0.33061026  1
  H+  H173  1  0.00390468  0.89523054  0.01637180  1
  H+  H174  1  0.13112943  0.51697597  0.17219393  1
  H+  H175  1  0.25779496  0.78741378  0.04584065  1
  H+  H176  1  0.86985987  0.26573317  0.50494239  1
  H+  H177  1  0.62037371  0.38222446  0.67234804  1
  H+  H178  1  0.99954341  0.14016732  0.99281142  1
  H+  H179  1  0.52427896  0.55029751  0.71136363  1
  H+  H180  1  0.84419372  0.67408831  0.41056737  1
  H+  H181  1  0.77484722  0.88313752  0.81807051  1
  H+  H182  1  0.60714062  0.42361730  0.76803095  1
  H+  H183  1  0.33158081  0.16370874  0.10798998  1
  H+  H184  1  0.49157358  0.63138768  0.50508167  1
  H+  H185  1  0.26522016  0.63761205  0.34101997  1
  H+  H186  1  0.35490560  0.88311086  0.16155478  1
  H+  H187  1  0.45768112  0.01644707  0.61894702  1
  H+  H188  1  0.48412725  0.19420994  0.62460243  1
  H+  H189  1  0.86177197  0.47690591  0.34525447  1
  H+  H190  1  0.64048786  0.60694351  0.35174852  1
  H+  H191  1  0.97430611  0.85885817  0.17839646  1
  H+  H192  1  0.23669157  0.84861959  0.00970454  1
  H+  H193  1  0.22224452  0.61215343  0.99359076  1
  H+  H194  1  0.65124830  0.77814873  0.64942219  1
  H+  H195  1  1.01908466  0.62576185  1.01258551  1
  H+  H196  1  0.39140571  0.86364214  0.84170585  1
  H+  H197  1  0.48291564  0.11375361  0.16711377  1
  H+  H198  1  0.72460435  0.85010078  0.99198676  1
  H+  H199  1  0.04338193  0.71770639  0.82921524  1
  H+  H200  1  0.39641275  0.62613442  0.50114758  1
  H+  H201  1  0.61426531  0.21517558  0.49713302  1
  H+  H202  1  0.74519456  0.62286332  0.67633569  1
  H+  H203  1  0.62068147  0.48132269  0.50889362  1
  H+  H204  1  0.92543516  0.32548992  0.90738018  1
  H+  H205  1  0.77510636  0.89801960  0.49102261  1
  H+  H206  1  0.87973004  0.10546379  0.16627501  1
  H+  H207  1  0.35827402  0.88113138  0.34298485  1
  H+  H208  1  0.36175547  0.48526543  0.66626404  1
  H+  H209  1  0.01853822  0.38332607  0.34642153  1
  H+  H210  1  0.86361260  0.12726107  0.83113488  1
  H+  H211  1  0.26483566  0.62794679  0.16009416  1
  H+  H212  1  0.13701692  0.51957639  0.64572559  1
  H+  H213  1  0.76672218  0.37231179  0.83262591  1
  H+  H214  1  0.13643035  0.36493117  0.17423355  1
  H+  H215  1  0.90287200  0.54440579  0.92000684  1
  H+  H216  1  0.27405365  0.64097138  0.67231162  1
  H+  H217  1  0.72761069  0.35001447  0.19033884  1
  H+  H218  1  0.38121913  0.35681711  0.17700155  1
  H+  H219  1  0.39355201  0.12451262  0.84211854  1
  H+  H220  1  0.64718873  0.49161846  0.82206736  1
  H+  H221  1  0.11305050  0.14388127  0.32795763  1
  H+  H222  1  0.89008868  0.62066239  0.51600140  1
  H+  H223  1  0.08143897  0.89165415  0.66782274  1
  H+  H224  1  0.38171692  0.84840365  0.99533535  1
  H+  H225  1  0.26904870  0.14958359  0.67536165  1
  H+  H226  1  0.63620452  0.26615785  0.33531028  1
  H+  H227  1  0.61635921  0.96691213  0.30467698  1
  H+  H228  1  0.33912751  0.37820077  0.82657857  1
  H+  H229  1  0.10752713  -0.02712023  0.16393393  1
  H+  H230  1  0.11241916  0.63483680  1.00691570  1
  H+  H231  1  0.02576120  0.38404872  0.00317266  1
  H+  H232  1  0.36402207  0.71836226  0.00627591  1
  H+  H233  1  0.09699133  0.22350331  0.82771188  1
  H+  H234  1  0.49512138  0.45520040  0.29351784  1
  H+  H235  1  0.53746850  0.39407270  0.35741970  1
  H+  H236  1  0.36199282  0.23509562  0.49590205  1
  H+  H237  1  0.87994429  0.64765092  0.69215802  1
  H+  H238  1  0.28093496  0.12613394  0.83802219  1
  H+  H239  1  0.03042453  0.13729439  0.49511556  1
  H+  H240  1  0.07873030  0.66285767  0.10543359  1
  H+  H241  1  0.21907342  0.85864411  0.50640035  1
  H+  H242  1  0.77324960  0.87443622  0.34225891  1
  H+  H243  1  0.38692273  0.40683595  0.49357561  1
  H+  H244  1  0.26939738  -0.11744960  0.34451677  1
  H+  H245  1  0.49374033  0.62544358  0.84517914  1
  H+  H246  1  0.62920982  0.35302665  0.99641829  1
  H+  H247  1  0.15021651  0.01320278  0.85036326  1
  H+  H248  1  0.27100137  0.14458720  0.49727822  1
  H+  H249  1  0.76356179  0.00978663  1.00958937  1
  H+  H250  1  0.48675177  0.37285849  0.66036032  1
  H+  H251  1  0.13199581  0.60194059  0.66956881  1
  H+  H252  1  0.34732318  0.22125370  0.01654546  1
  H+  H253  1  0.09872097  0.88264003  0.82172571  1
  H+  H254  1  0.10751851  0.88334132  0.16305483  1
  H+  H255  1  0.13585057  0.37194445  0.99448078  1
  H+  H256  1  0.13287963  0.51984984  0.32990528  1
  H+  H257  1  0.64409846  0.26552115  0.66682150  1
  H+  H258  1  0.00418173  0.91103805  0.67702999  1
  H+  H259  1  0.14173629  0.36962798  0.33218425  1
  H+  H260  1  0.14249114  0.03213386  0.50987713  1
  H+  H261  1  0.88480397  0.36264177  0.33338827  1
  H+  H262  1  0.11063280  0.97648136  0.34491045  1
  H+  H263  1  0.91860709  0.08885558  0.56086227  1
  H+  H264  1  0.23052867  0.36800376  0.65701656  1
  H+  H265  1  0.66195775  0.32506342  0.24543711  1
  H+  H266  1  0.63400592  0.26719430  0.99699418  1
  H+  H267  1  0.34966430  0.13355984  0.01314888  1
  H+  H268  1  0.64450917  0.62256597  0.51751157  1
  H+  H269  1  0.53122181  0.88984633  0.83024713  1
  H+  H270  1  0.11342475  0.23511782  -0.00226492  1
  H+  H271  1  0.75735065  0.59471692  0.04495242  1
  H+  H272  1  0.38607150  0.60921950  0.99299686  1
  H+  H273  1  0.88225793  0.74163283  0.79321910  1
  H+  H274  1  0.59571028  0.16583152  0.74448517  1
  H+  H275  1  0.10789632  0.73237714  0.50147476  1
  H+  H276  1  0.39243246  0.11007336  0.33760123  1
  H+  H277  1  0.39899395  0.50097602  1.01424930  1
  H+  H278  1  0.39616077  0.77845533  0.66247072  1
  H+  H279  1  0.90128979  0.02685321  0.65120787  1
  H+  H280  1  0.14408100  0.28181910  0.32373160  1
  H+  H281  1  0.53027125  0.14326522  0.83501003  1
  H+  H282  1  0.07631540  0.92278873  0.43841956  1
  H+  H283  1  0.39636278  0.03813799  0.83579258  1
  H+  H284  1  0.88211334  1.01930141  0.32315473  1
  H+  H285  1  0.40533339  0.40736699  0.32632878  1
  H+  H286  1  0.52731364  0.59072447  0.37463771  1
  H+  H287  1  0.62848391  0.73391030  0.82095049  1
  H+  H288  1  0.39998178  0.82619859  0.26235802  1
  H+  H289  1  0.42053125  0.34109435  0.23625414  1
  H+  H290  1  0.16279644  0.83514106  0.27310744  1
  H+  H291  1  0.41942111  0.34748843  0.56683784  1
  H+  H292  1  0.00804690  0.38778135  0.50083850  1
  H+  H293  1  0.36099422  0.15704565  0.67488016  1
  H+  H294  1  0.31661777  0.90335286  0.10259303  1
  H+  H295  1  0.88718274  0.76822881  0.18001971  1
  H+  H296  1  0.67285762  0.85448153  0.56205087  1
  H+  H297  1  0.89767287  0.86681255  0.60847514  1
  H+  H298  1  0.44452726  -0.06116703  0.65882234  1
  H+  H299  1  0.63626757  0.35685345  0.51644024  1
  H+  H300  1  0.90333732  0.07237693  0.22679715  1
  H+  H301  1  0.84199371  0.66183506  0.07221997  1
  H+  H302  1  0.35075480  0.43731111  0.42988892  1
  H+  H303  1  0.16935258  0.59724943  0.56886031  1
  H+  H304  1  0.64895868  0.60692158  0.67284659  1
  H+  H305  1  0.73827929  0.12745740  0.16470447  1
  H+  H306  1  0.67754897  0.09505702  0.93426029  1
  H+  H307  1  0.84608027  0.16322112  0.73808808  1
  H+  H308  1  0.91703074  0.82900886  0.27336767  1
  H+  H309  1  0.88823246  0.01794507  0.84432744  1
  H+  H310  1  0.59239899  0.90617094  0.73617160  1
  H+  H311  1  0.05917077  0.65668432  0.74658731  1
  H+  H312  1  0.38569973  0.11560940  0.16675817  1
  H+  H313  1  0.16302947  0.58482726  0.93302639  1
  H+  H314  1  0.41788577  0.83179198  0.90100209  1
  H+  H315  1  0.11417863  0.47719222  0.00699230  1
  H+  H316  1  0.67993902  0.59415202  0.57547178  1
  H+  H317  1  0.58962150  0.15790978  0.39939640  1
  H+  H318  1  0.67070223  0.80537211  0.23782837  1
  H+  H319  1  0.67428557  0.83299960  0.89581206  1
  H+  H320  1  0.88632282  0.52785903  0.51226402  1
  H+  H321  1  0.15061712  0.83108631  0.56273421  1
  H+  H322  1  0.86639347  0.98513280  0.49076790  1
  H+  H323  1  0.57071294  0.39251888  0.07406446  1
  H+  H324  1  0.91715503  0.33090664  0.27432654  1
  H+  H325  1  0.83301611  0.40862875  0.77381210  1
  H+  H326  1  0.83733260  0.91476485  0.75919591  1
  H+  H327  1  0.42250395  0.59665338  0.59593305  1
  H+  H328  1  0.07824922  0.41478115  0.40545219  1
  H+  H329  1  0.32930118  0.65869258  0.06595003  1
  H+  H330  1  0.41648037  0.59120715  0.23371640  1
  H+  H331  1  0.28078200  0.86802741  0.72749029  1
  H+  H332  1  0.77555973  0.45116571  0.07882487  1
  H+  H333  1  0.06785874  0.91073120  0.07153818  1
  H+  H334  1  0.15291108  0.33277180  0.89229949  1
  H+  H335  1  0.07680986  0.92585430  0.76485702  1
  H+  H336  1  0.31567333  0.40965521  0.76526284  1
  H+  H337  1  0.89809337  0.32082313  0.56659387  1
  H+  H338  1  0.37065477  0.40057544  0.66801272  1
  H+  H339  1  0.67344903  0.09012178  0.26117116  1
  H+  H340  1  0.40839882  0.09020699  0.55500655  1
  H+  H341  1  0.33205236  0.17186836  0.40446579  1
  H+  H342  1  0.14043432  0.12151770  0.51005759  1
  H+  H343  1  0.41051708  0.08518205  0.93488276  1
  H+  H344  1  0.77990576  0.63019711  0.15135918  1
  H+  H345  1  0.07144966  0.16448379  0.76922725  1
  H+  H346  1  0.97344718  0.87735230  0.51802655  1
  H+  H347  1  0.96363352  0.28701125  0.21933134  1
  H+  H348  1  0.84370649  0.18132286  0.09791951  1
  H+  H349  1  0.61814871  0.73563316  0.49722713  1
  H+  H350  1  0.61593660  0.13940286  0.16270424  1
  H+  H351  1  0.58742019  0.66544698  0.43931478  1
  H+  H352  1  0.83770828  0.39390629  0.12769410  1
  H+  H353  1  0.86390424  0.87971174  0.16393804  1
  H+  H354  1  0.38945811  0.02037181  0.33866890  1
  H+  H355  1  0.64349870  0.86569474  0.83850395  1
  H+  H356  1  0.42897214  0.84276125  0.56607717  1
  H+  H357  1  0.18014966  0.06847716  0.91206093  1
  H+  H358  1  0.16383878  0.07591972  0.27087350  1
  H+  H359  1  0.64957987  0.37172986  0.84104706  1
  H+  H360  1  0.91916780  0.58585168  0.60971837  1
  H+  H361  1  0.60923404  0.37117370  0.16812378  1
  H+  H362  1  0.47472102  0.63426229  0.33080351  1
  H+  H363  1  0.16941583  0.34226392  0.23602706  1
  H+  H364  1  0.17251903  0.33323906  0.55981737  1
  H+  H365  1  0.57003149  0.92415573  0.08798144  1
  H+  H366  1  0.71400306  0.62980613  0.87775924  1
  H+  H367  1  0.81966487  0.15771583  0.43242920  1
  H+  H368  1  0.13163145  0.81683276  0.90351111  1
  H+  H369  1  0.36444921  0.64421493  0.67044713  1
  H+  H370  1  0.75222575  0.38253800  1.02744564  1
  H+  H371  1  0.57730326  0.16737951  0.07012299  1
  H+  H372  1  0.33543979  0.66462256  0.76830065  1
  H+  H373  1  0.39284994  0.33046844  0.90346365  1
  H+  H374  1  0.62052245  -0.02040822  0.82892292  1
  H+  H375  1  0.33216424  0.16948355  0.77461870  1
  H+  H376  1  0.17341031  0.09406671  0.60003331  1
  H+  H377  1  0.33120106  0.67465491  0.43549559  1
  H+  H378  1  0.33885143  0.42124088  0.11293819  1
  H+  H379  1  0.58623318  0.66738060  0.06026049  1
  H+  H380  1  -0.04701366  0.67483012  0.79181737  1
  H+  H381  1  0.83554597  0.91779604  0.39917529  1
  H+  H382  1  0.67158248  0.32293653  0.60597720  1
  H+  H383  1  0.75637454  0.63034996  0.81327248  1
  O2-  O384  1  0.08438513  0.15769714  0.16198447  1
  O2-  O385  1  0.09253598  0.16364761  0.48600733  1
  O2-  O386  1  0.06748147  0.16172218  0.81420670  1
  O2-  O387  1  0.08320824  0.41634400  0.14677710  1
  O2-  O388  1  0.07181682  0.41822005  0.49324278  1
  O2-  O389  1  0.07988071  0.42869962  0.81249797  1
  O2-  O390  1  0.08153724  0.66502473  0.15080193  1
  O2-  O391  1  0.07588165  0.66686212  0.49238795  1
  O2-  O392  1  0.00063295  0.66475318  0.80701778  1
  O2-  O393  1  0.07636632  0.91249102  0.14730310  1
  O2-  O394  1  0.07756688  0.92430961  0.48434274  1
  O2-  O395  1  0.07461237  0.91969912  0.81012453  1
  O2-  O396  1  0.33711181  0.16042259  0.15364267  1
  O2-  O397  1  0.33234667  0.17502217  0.48031091  1
  O2-  O398  1  0.33969650  0.16594703  0.81897138  1
  O2-  O399  1  0.33201871  0.41358232  0.15771803  1
  O2-  O400  1  0.36243034  0.44358908  0.47594162  1
  O2-  O401  1  0.30511362  0.40354295  0.80937095  1
  O2-  O402  1  0.32576893  0.66089987  0.14427933  1
  O2-  O403  1  0.33402862  0.67406796  0.48114143  1
  O2-  O404  1  0.33708744  0.66288112  0.81349256  1
  O2-  O405  1  0.32954268  0.91897583  0.14634782  1
  O2-  O406  1  0.32246914  0.90837535  0.48326901  1
  O2-  O407  1  0.34362617  0.97359948  0.75560776  1
  O2-  O408  1  0.57948749  0.16576414  0.15060117  1
  O2-  O409  1  0.58290774  0.15556286  0.48023172  1
  O2-  O410  1  0.59047709  0.17069018  0.81943307  1
  O2-  O411  1  0.57715873  0.39668761  0.14783760  1
  O2-  O412  1  0.58849826  0.41976402  0.49548202  1
  O2-  O413  1  0.61771577  0.42925876  0.81248330  1
  O2-  O414  1  0.58361030  0.65841295  0.13856502  1
  O2-  O415  1  0.58904624  0.67313933  0.48876456  1
  O2-  O416  1  0.59877059  0.67201394  0.80805513  1
  O2-  O417  1  0.55302159  0.93880295  0.12816373  1
  O2-  O418  1  0.59814280  0.95975791  0.48091465  1
  O2-  O419  1  0.59114457  0.91803061  0.81473936  1
  O2-  O420  1  0.83484295  0.17178050  0.14295363  1
  O2-  O421  1  0.81813381  0.15777269  0.47819153  1
  O2-  O422  1  0.83559153  0.15967747  0.81485050  1
  O2-  O423  1  0.84031048  0.39512334  0.17249538  1
  O2-  O424  1  0.83217753  0.42471021  0.48538969  1
  O2-  O425  1  0.83005337  0.40255880  0.81954098  1
  O2-  O426  1  0.84410610  0.66562563  0.15112514  1
  O2-  O427  1  0.84394698  0.67720299  0.49342594  1
  O2-  O428  1  0.86299974  0.67693887  0.77480968  1
  O2-  O429  1  0.83176768  0.90437183  0.14255899  1
  O2-  O430  1  0.83601028  0.92314964  0.47695928  1
  O2-  O431  1  0.83628342  0.91162583  0.80409759  1
  O2-  O432  1  0.16005635  0.07302703  0.19361644  1
  O2-  O433  1  0.17533448  0.09261722  0.52504732  1
  O2-  O434  1  0.20097855  0.05566087  0.87374064  1
  O2-  O435  1  0.16820258  0.33644835  0.19070213  1
  O2-  O436  1  0.16978620  0.33219085  0.51461997  1
  O2-  O437  1  0.14793688  0.32783020  0.84755332  1
  O2-  O438  1  0.16403061  0.57779430  0.18856752  1
  O2-  O439  1  0.16565784  0.59730578  0.52312750  1
  O2-  O440  1  0.16569708  0.58573470  0.86172446  1
  O2-  O441  1  0.15913954  0.83089132  0.19232687  1
  O2-  O442  1  0.15598825  0.82756226  0.51780205  1
  O2-  O443  1  0.12741701  0.81114839  0.85751773  1
  O2-  O444  1  0.41765749  0.08118754  0.17669492  1
  O2-  O445  1  0.40754651  0.08426051  0.51082635  1
  O2-  O446  1  0.42306176  0.09224644  0.85887997  1
  O2-  O447  1  0.41260670  0.32688609  0.19212769  1
  O2-  O448  1  0.42049752  0.34867266  0.52104880  1
  O2-  O449  1  0.39390530  0.33384147  0.85873906  1
  O2-  O450  1  0.41442867  0.58493013  0.18861604  1
  O2-  O451  1  0.42699525  0.59597932  0.51645060  1
  O2-  O452  1  0.43612101  0.59934706  0.86400779  1
  O2-  O453  1  0.39899485  0.82469215  0.18240798  1
  O2-  O454  1  0.42921792  0.84673700  0.52085729  1
  O2-  O455  1  0.42173812  0.83431971  0.85520374  1
  O2-  O456  1  0.67629748  0.09754698  0.18128421  1
  O2-  O457  1  0.64057254  0.04227179  0.51435418  1
  O2-  O458  1  0.67239369  0.08343694  0.85489737  1
  O2-  O459  1  0.66505508  0.32455965  0.19942732  1
  O2-  O460  1  0.66601408  0.32407990  0.52694307  1
  O2-  O461  1  0.67293568  0.33354299  0.85771260  1
  O2-  O462  1  0.67356863  0.57231223  0.12491393  1
  O2-  O463  1  0.67557312  0.59158943  0.53021684  1
  O2-  O464  1  0.70077444  0.60597018  0.83514406  1
  O2-  O465  1  0.66451220  0.81205311  0.19357381  1
  O2-  O466  1  0.66985815  0.85439233  0.51692563  1
  O2-  O467  1  0.67512478  0.83501581  0.85026230  1
  O2-  O468  1  0.90604139  0.07135902  0.18124301  1
  O2-  O469  1  0.91676529  0.08642918  0.51540633  1
  O2-  O470  1  0.91534623  0.07806362  0.85916290  1
  O2-  O471  1  0.93441225  0.31509470  0.20108170  1
  O2-  O472  1  0.90084337  0.32596589  0.52107256  1
  O2-  O473  1  0.91718587  0.31778903  0.86057408  1
  O2-  O474  1  0.91773806  0.57523463  0.19669588  1
  O2-  O475  1  0.91995180  0.58810142  0.52939005  1
  O2-  O476  1  0.89760749  0.53959781  0.87381358  1
  O2-  O477  1  0.91449082  0.82873532  0.19533907  1
  O2-  O478  1  0.91315490  0.84807352  0.53396232  1
  O2-  O479  1  0.90673189  0.81430526  0.82837918  1
  O2-  O480  1  0.16222241  0.07800623  0.31647593  1
  O2-  O481  1  0.17363085  0.09661876  0.64615970  1
  O2-  O482  1  0.15446857  0.08148990  0.98764716  1
  O2-  O483  1  0.17814245  0.34675755  0.31572996  1
  O2-  O484  1  0.17079070  0.33604006  0.64008153  1
  O2-  O485  1  0.16374399  0.33910676  0.97588504  1
  O2-  O486  1  0.16452494  0.57989339  0.31370912  1
  O2-  O487  1  0.16754031  0.58442548  0.64566711  1
  O2-  O488  1  0.16137773  0.58578357  0.97996689  1
  O2-  O489  1  0.16601042  0.83504129  0.31834607  1
  O2-  O490  1  0.12064172  0.82243362  0.63910046  1
  O2-  O491  1  0.13903502  0.82251258  0.97850531  1
  O2-  O492  1  0.42398280  0.08088404  0.32451026  1
  O2-  O493  1  0.45002536  -0.00268916  0.66118903  1
  O2-  O494  1  0.40828868  0.08440375  0.98084302  1
  O2-  O495  1  0.45099632  0.39796362  0.30700131  1
  O2-  O496  1  0.42631128  0.34822785  0.64480050  1
  O2-  O497  1  0.39977826  0.31918293  0.98785246  1
  O2-  O498  1  0.41528269  0.60010587  0.31483296  1
  O2-  O499  1  0.41620393  0.59385881  0.64118105  1
  O2-  O500  1  0.42097165  0.58315362  0.97916313  1
  O2-  O501  1  0.40875334  0.83019425  0.30731664  1
  O2-  O502  1  0.43279712  0.83927243  0.64748541  1
  O2-  O503  1  0.41713057  0.82617952  0.97710304  1
  O2-  O504  1  0.66736697  0.07660822  0.30555495  1
  O2-  O505  1  0.67621347  0.06639507  0.66162270  1
  O2-  O506  1  0.67622880  0.09287215  0.97981329  1
  O2-  O507  1  0.66626837  0.32765803  0.32100072  1
  O2-  O508  1  0.67322882  0.32600006  0.65154470  1
  O2-  O509  1  0.66645979  0.32904525  0.98361383  1
  O2-  O510  1  0.66757589  0.57332203  0.33595769  1
  O2-  O511  1  0.68873702  0.58872926  0.65557014  1
  O2-  O512  1  0.72542306  0.68055464  0.94453642  1
  O2-  O513  1  0.66684820  0.80415048  0.32011271  1
  O2-  O514  1  0.68299601  0.83992025  0.64174951  1
  O2-  O515  1  0.66630891  0.83105465  0.97557107  1
  O2-  O516  1  0.90929837  0.07803868  0.30492309  1
  O2-  O517  1  0.92695273  0.08782004  0.63873048  1
  O2-  O518  1  0.92898869  0.10846213  0.97822588  1
  O2-  O519  1  0.91494593  0.33110740  0.32048519  1
  O2-  O520  1  0.90999642  0.32357020  0.64448376  1
  O2-  O521  1  0.93686866  0.33677915  0.97674215  1
  O2-  O522  1  0.91319514  0.57909750  0.31762733  1
  O2-  O523  1  0.92095261  0.58562988  0.65521004  1
  O2-  O524  1  0.90983145  0.56479086  0.99028392  1
  O2-  O525  1  0.91861008  0.83021163  0.31898483  1
  O2-  O526  1  0.89532782  0.86648443  0.65473057  1
  O2-  O527  1  0.90173764  0.89471720  0.99388554  1
  O2-  O528  1  0.07718726  0.17399864  0.01143700  1
  O2-  O529  1  0.08770935  0.18162954  0.33162792  1
  O2-  O530  1  0.08719605  0.17709614  0.68701940  1
  O2-  O531  1  0.08764127  0.41688475  0.02218635  1
  O2-  O532  1  0.08020533  0.41559288  0.36054158  1
  O2-  O533  1  0.08351485  0.41438938  0.62774958  1
  O2-  O534  1  0.08034218  0.66355681  0.02446221  1
  O2-  O535  1  0.07455994  0.66138914  0.35090333  1
  O2-  O536  1  0.08860659  0.66348546  0.70654114  1
  O2-  O537  1  0.06398273  0.91091063  0.02570919  1
  O2-  O538  1  0.08194361  0.91648522  0.36199295  1
  O2-  O539  1  0.06589833  0.93191013  0.68722710  1
  O2-  O540  1  0.31994862  0.16088519  0.03347721  1
  O2-  O541  1  0.33202656  0.16587686  0.35883800  1
  O2-  O542  1  0.32955467  0.18286479  0.69306173  1
  O2-  O543  1  0.39455635  0.45223962  0.04188385  1
  O2-  O544  1  0.33687341  0.43509982  0.35910237  1
  O2-  O545  1  0.33427929  0.42505128  0.68144146  1
  O2-  O546  1  0.32972749  0.65783714  0.02032940  1
  O2-  O547  1  0.32597657  0.67058500  0.35713819  1
  O2-  O548  1  0.33486947  0.67493342  0.68676294  1
  O2-  O549  1  0.28521909  0.84716968  0.03196501  1
  O2-  O550  1  0.32903874  0.91013923  0.36211896  1
  O2-  O551  1  0.24776916  0.81516483  0.70215614  1
  O2-  O552  1  0.57788887  0.16684677  0.02473625  1
  O2-  O553  1  0.58864207  0.15958595  0.35412601  1
  O2-  O554  1  0.59919604  0.16177940  0.69888653  1
  O2-  O555  1  0.56837676  0.39356537  0.02785405  1
  O2-  O556  1  0.59594415  0.41662590  0.37379125  1
  O2-  O557  1  0.59221876  0.41565976  0.68550864  1
  O2-  O558  1  0.58711974  0.66985995  0.01474147  1
  O2-  O559  1  0.57702692  0.64855349  0.37601313  1
  O2-  O560  1  0.55830491  0.61088803  0.69992640  1
  O2-  O561  1  0.58511300  0.91676370  0.01283249  1
  O2-  O562  1  0.58488579  0.90256035  0.29867174  1
  O2-  O563  1  0.59405174  0.90522699  0.69069691  1
  O2-  O564  1  0.85436394  0.18930613  0.02015142  1
  O2-  O565  1  0.82939558  0.16169725  0.35544838  1
  O2-  O566  1  0.84596847  0.16081525  0.69235796  1
  O2-  O567  1  0.80085873  0.42320208  0.05525478  1
  O2-  O568  1  0.83355718  0.41689520  0.36248387  1
  O2-  O569  1  0.83672391  0.41313518  0.69711830  1
  O2-  O570  1  0.81631793  0.63547064  0.03168714  1
  O2-  O571  1  0.84028750  0.66826112  0.36555201  1
  O2-  O572  1  0.85381897  0.68176846  0.70807565  1
  O2-  O573  1  0.81967360  0.85320925  0.02757074  1
  O2-  O574  1  0.83473940  0.91360746  0.35363300  1
  O2-  O575  1  0.85311663  0.91605305  0.67258996  1
