# generated using pymatgen
data_H2O
_symmetry_space_group_name_H-M   'P 1'
_cell_length_a   17.99236112
_cell_length_b   17.98747898
_cell_length_c   22.01100800
_cell_angle_alpha   89.99384918
_cell_angle_beta   90.00418780
_cell_angle_gamma   120.00608077
_symmetry_Int_Tables_number   1
_chemical_formula_structural   H2O
_chemical_formula_sum   'H384 O192'
_cell_volume   6168.82436235
_cell_formula_units_Z   192
loop_
 _symmetry_equiv_pos_site_id
 _symmetry_equiv_pos_as_xyz
  1  'x, y, z'
loop_
 _atom_type_symbol
 _atom_type_oxidation_number
  H+  1.0
  O2-  -2.0
loop_
 _atom_site_type_symbol
 _atom_site_label
 _atom_site_symmetry_multiplicity
 _atom_site_fract_x
 _atom_site_fract_y
 _atom_site_fract_z
 _atom_site_occupancy
  H+  H0  1  0.48846431  0.14294579  0.50302983  1
  H+  H1  1  0.22979425  0.60521862  0.82270562  1
  H+  H2  1  0.07297358  0.03017722  0.67396967  1
  H+  H3  1  0.86866005  0.51711435  0.50893553  1
  H+  H4  1  0.60351380  0.18037829  0.75894655  1
  H+  H5  1  0.60520097  0.63703880  0.36926433  1
  H+  H6  1  0.37475133  0.24651777  0.68737497  1
  H+  H7  1  0.35432051  0.21177263  0.02486202  1
  H+  H8  1  0.60002684  0.98273048  0.82833366  1
  H+  H9  1  0.12682111  0.59293792  0.51070752  1
  H+  H10  1  0.16341348  0.50479359  0.98008266  1
  H+  H11  1  0.76988862  0.64652741  0.00400492  1
  H+  H12  1  0.38050939  0.27245049  0.17589508  1
  H+  H13  1  0.95108430  0.60985960  0.99214045  1
  H+  H14  1  0.39754258  0.14089596  0.50026528  1
  H+  H15  1  0.63616246  0.76968073  0.64824832  1
  H+  H16  1  0.07718582  0.84771833  0.16854590  1
  H+  H17  1  0.97758682  0.36372804  0.66407341  1
  H+  H18  1  0.08837803  0.80981037  0.48320846  1
  H+  H19  1  0.10031582  0.89995086  0.00910613  1
  H+  H20  1  0.63836582  0.53245046  0.99594333  1
  H+  H21  1  0.11033348  0.99432707  0.00795152  1
  H+  H22  1  0.51573196  0.38753257  0.68305710  1
  H+  H23  1  0.63510036  0.12022623  0.84280000  1
  H+  H24  1  0.34528576  0.37971115  0.82597490  1
  H+  H25  1  0.67614136  0.61428459  0.29232632  1
  H+  H26  1  0.39175224  0.84448768  0.63601840  1
  H+  H27  1  0.10113401  0.37205270  0.15592255  1
  H+  H28  1  0.39546938  0.03552241  0.85552101  1
  H+  H29  1  0.06809944  0.98961203  0.68752677  1
  H+  H30  1  0.39189973  0.28195619  0.32442175  1
  H+  H31  1  0.50508266  0.40544015  0.52325916  1
  H+  H32  1  0.37973764  0.48618824  0.14942280  1
  H+  H33  1  0.62579528  0.77457562  0.34930777  1
  H+  H34  1  0.11189475  0.12454791  0.16655932  1
  H+  H35  1  0.32169190  0.89891648  0.36637490  1
  H+  H36  1  0.85193196  0.88410623  0.17007562  1
  H+  H37  1  1.01461387  0.37913538  0.82200499  1
  H+  H38  1  0.14299803  0.27509146  0.50614211  1
  H+  H39  1  0.24719917  0.82805014  0.18472689  1
  H+  H40  1  0.41103854  1.03921106  0.33793825  1
  H+  H41  1  0.85524112  0.12845245  0.33774510  1
  H+  H42  1  0.38161728  0.51206460  0.82348427  1
  H+  H43  1  0.66726065  0.08303164  0.23621806  1
  H+  H44  1  0.13733665  0.36449363  0.31869787  1
  H+  H45  1  0.27935511  0.38053823  0.66576107  1
  H+  H46  1  0.09717515  0.62371227  -0.04518583  1
  H+  H47  1  0.13736534  0.60702723  0.18189287  1
  H+  H48  1  0.62168868  0.74198711  1.01386849  1
  H+  H49  1  0.61126303  0.99151007  0.01327479  1
  H+  H50  1  0.23080488  0.60130256  0.65457453  1
  H+  H51  1  0.51593485  0.37705827  0.16051440  1
  H+  H52  1  0.36983242  0.87866920  0.00141573  1
  H+  H53  1  0.89010134  0.78694189  0.50880743  1
  H+  H54  1  0.52974608  0.39956238  0.32629314  1
  H+  H55  1  0.86001869  0.72757573  0.34553507  1
  H+  H56  1  0.38371004  0.03614908  0.64446962  1
  H+  H57  1  0.18896615  0.87201590  0.30790434  1
  H+  H58  1  0.87469291  0.01714735  0.32096718  1
  H+  H59  1  0.87661502  0.39203606  0.67606134  1
  H+  H60  1  -0.02644139  0.11031390  0.83554848  1
  H+  H61  1  0.66520912  0.84948411  0.93262438  1
  H+  H62  1  0.36659633  0.62994370  0.81292724  1
  H+  H63  1  0.76531977  0.88610892  0.17255118  1
  H+  H64  1  0.86051115  0.89500199  -0.00568728  1
  H+  H65  1  0.71554601  0.86029298  0.33839009  1
  H+  H66  1  0.26697218  0.13147418  0.17681249  1
  H+  H67  1  0.02679938  0.38031183  0.48725297  1
  H+  H68  1  0.37166596  0.74298339  0.16033964  1
  H+  H69  1  0.61584072  0.62880310  0.66105345  1
  H+  H70  1  0.92179836  0.08210340  0.89832110  1
  H+  H71  1  1.01730577  0.61993883  0.82407742  1
  H+  H72  1  0.60160452  0.63018643  0.16342443  1
  H+  H73  1  0.59656528  0.19367180  0.43417891  1
  H+  H74  1  0.47443176  0.83660765  0.49007265  1
  H+  H75  1  0.85392169  0.63993504  0.99688533  1
  H+  H76  1  0.11509294  0.46754094  0.48961382  1
  H+  H77  1  0.63265629  0.29279062  0.51836266  1
  H+  H78  1  0.62839255  0.76598858  0.18419342  1
  H+  H79  1  0.39362084  0.25649410  0.85846906  1
  H+  H80  1  0.61426312  0.89053752  0.37077818  1
  H+  H81  1  0.47125097  0.61471791  0.33778932  1
  H+  H82  1  0.40165659  0.76912932  -0.01570963  1
  H+  H83  1  0.98236176  0.38026448  0.32014946  1
  H+  H84  1  0.20886165  0.84697669  0.83541933  1
  H+  H85  1  0.27705163  0.14560454  0.34079654  1
  H+  H86  1  0.36058672  0.14936432  0.68223385  1
  H+  H87  1  0.37105533  0.84636391  0.83069296  1
  H+  H88  1  0.07032208  0.40205458  1.05901863  1
  H+  H89  1  0.86143594  0.21946221  0.67783011  1
  H+  H90  1  0.63512798  0.53210898  0.33606460  1
  H+  H91  1  0.62098082  0.40324673  0.32369276  1
  H+  H92  1  0.63267742  0.35213484  0.16383979  1
  H+  H93  1  0.11058519  0.46702338  0.15441021  1
  H+  H94  1  0.06689668  0.57618339  0.95331760  1
  H+  H95  1  0.75948255  0.38550009  0.49847506  1
  H+  H96  1  0.90439086  0.12866150  0.99057882  1
  H+  H97  1  0.38100788  0.92687456  0.69850785  1
  H+  H98  1  0.64287364  0.33833769  0.74592672  1
  H+  H99  1  0.38538739  0.60359422  0.49478541  1
  H+  H100  1  0.86100713  0.97350948  0.66915397  1
  H+  H101  1  0.77004304  0.38596910  0.33453362  1
  H+  H102  1  0.63752640  1.01984635  0.17895939  1
  H+  H103  1  0.25965760  0.12531394  0.02527184  1
  H+  H104  1  0.85719841  0.97333365  0.82387867  1
  H+  H105  1  0.85115333  0.47238480  0.82168007  1
  H+  H106  1  0.37825461  0.39654572  0.14778489  1
  H+  H107  1  0.75807593  0.38783799  0.80326531  1
  H+  H108  1  0.87238926  0.61202508  0.32939594  1
  H+  H109  1  0.77261580  0.88414704  0.66552163  1
  H+  H110  1  0.31076629  0.28313636  0.90740024  1
  H+  H111  1  0.47528872  0.60156906  0.82510304  1
  H+  H112  1  0.85800009  0.12882737  0.14797505  1
  H+  H113  1  0.40598158  0.60833609  -0.02497816  1
  H+  H114  1  0.17384590  0.09280320  0.26928325  1
  H+  H115  1  0.64428317  0.88572928  0.99439197  1
  H+  H116  1  0.34550879  0.66121290  0.71850875  1
  H+  H117  1  0.11076786  0.69830640  0.52129385  1
  H+  H118  1  0.61246554  0.63760676  0.82219930  1
  H+  H119  1  0.39008541  0.51763647  0.49311253  1
  H+  H120  1  0.33324922  0.41396729  0.39463845  1
  H+  H121  1  0.53872136  0.15414072  0.34304347  1
  H+  H122  1  -0.03305597  0.87471103  -0.00988957  1
  H+  H123  1  0.23344466  0.83855383  0.15527750  1
  H+  H124  1  0.76913756  0.13211156  0.83380399  1
  H+  H125  1  0.64259275  0.29307659  0.63171536  1
  H+  H126  1  0.10810836  0.13746364  0.81132867  1
  H+  H127  1  0.84873297  0.87897053  0.33786411  1
  H+  H128  1  0.63499333  0.03633582  0.49178087  1
  H+  H129  1  0.51650345  0.62996632  0.46572152  1
  H+  H130  1  0.27419665  0.13651545  0.82775556  1
  H+  H131  1  0.11340501  0.38361832  0.67043245  1
  H+  H132  1  0.88370288  0.60788035  0.83469555  1
  H+  H133  1  0.62826879  0.77246869  0.48875296  1
  H+  H134  1  0.13950143  0.51340457  0.66002378  1
  H+  H135  1  0.61548019  0.88127426  0.16619383  1
  H+  H136  1  0.85697698  0.12986678  0.83234534  1
  H+  H137  1  0.36137283  0.47656962  0.33768573  1
  H+  H138  1  0.87013662  0.65130416  0.50368687  1
  H+  H139  1  0.65052922  0.08586180  0.90616790  1
  H+  H140  1  0.09726043  0.36617326  0.00205229  1
  H+  H141  1  0.01518719  0.72929333  0.05902445  1
  H+  H142  1  0.22477168  0.36345756  0.31698621  1
  H+  H143  1  0.88156856  0.35653464  0.83159562  1
  H+  H144  1  0.61597393  1.03423347  0.64858274  1
  H+  H145  1  0.41553188  0.87011348  0.33534093  1
  H+  H146  1  0.86931148  -0.00499602  0.99606256  1
  H+  H147  1  0.98503957  0.37272723  0.16853206  1
  H+  H148  1  0.77123745  0.64102627  0.35749950  1
  H+  H149  1  0.00937876  0.11400372  0.34228275  1
  H+  H150  1  0.86510892  0.64107345  0.15370302  1
  H+  H151  1  0.88398542  0.85596954  0.66283641  1
  H+  H152  1  0.13628046  0.27933187  0.65557694  1
  H+  H153  1  0.21526076  0.35878865  0.83201358  1
  H+  H154  1  -0.03114161  0.88538312  0.50881062  1
  H+  H155  1  0.64670647  0.08425030  0.55618530  1
  H+  H156  1  0.38377685  0.12327264  0.18596234  1
  H+  H157  1  0.30126237  0.61812637  -0.00871132  1
  H+  H158  1  0.01277054  0.84176433  0.67587224  1
  H+  H159  1  0.40823380  0.93677175  0.51778451  1
  H+  H160  1  0.07717739  0.75253180  0.00397672  1
  H+  H161  1  0.76813113  0.37270636  0.15595801  1
  H+  H162  1  0.22104206  0.94467628  0.96398459  1
  H+  H163  1  0.23802009  0.13760592  0.50015875  1
  H+  H164  1  0.36739494  0.14679714  0.34418298  1
  H+  H165  1  0.76753738  0.90172333  0.99331412  1
  H+  H166  1  0.06917123  0.80164743  0.51469829  1
  H+  H167  1  -0.04023909  0.61050866  0.32235103  1
  H+  H168  1  0.46742431  0.86383895  0.83027895  1
  H+  H169  1  0.09732650  0.73021460  0.33610600  1
  H+  H170  1  0.62600771  0.26531161  1.02218166  1
  H+  H171  1  0.22848990  0.61341067  0.17245268  1
  H+  H172  1  0.36575420  0.71883906  0.81344708  1
  H+  H173  1  0.88533760  0.11468863  0.50713118  1
  H+  H174  1  0.37158242  0.62584977  0.65851031  1
  H+  H175  1  0.85444455  0.47610285  0.34146795  1
  H+  H176  1  0.27741860  0.64446062  0.33306967  1
  H+  H177  1  0.88514412  0.77565059  0.17458658  1
  H+  H178  1  0.11875785  0.13202074  1.01232233  1
  H+  H179  1  0.62756605  0.77811617  0.83572071  1
  H+  H180  1  0.76334111  0.62362395  0.66738859  1
  H+  H181  1  0.08347939  0.15162056  0.10564545  1
  H+  H182  1  0.10205041  0.98842471  0.15842416  1
  H+  H183  1  0.52266275  0.39089718  0.85023752  1
  H+  H184  1  0.14652462  0.36447771  0.50209021  1
  H+  H185  1  0.77123816  0.13171098  0.14760187  1
  H+  H186  1  0.72990750  0.11634648  0.33102647  1
  H+  H187  1  0.64457910  0.38546473  0.53566013  1
  H+  H188  1  0.92713234  0.35408056  0.23906878  1
  H+  H189  1  0.95822002  0.59381960  0.18117043  1
  H+  H190  1  0.96995244  0.10464641  0.17269632  1
  H+  H191  1  0.22134040  0.36197062  0.99005622  1
  H+  H192  1  0.07387555  0.66230810  0.38903171  1
  H+  H193  1  0.01457775  0.88148313  0.82917772  1
  H+  H194  1  0.61385637  0.38429068  0.02050102  1
  H+  H195  1  0.88864932  0.36953647  0.16974762  1
  H+  H196  1  0.60830183  0.12435871  0.16175648  1
  H+  H197  1  0.87269840  0.48618881  0.67547333  1
  H+  H198  1  0.13552257  0.11299518  0.33159006  1
  H+  H199  1  0.62939997  0.28318924  0.80357849  1
  H+  H200  1  0.31220612  0.95183147  0.77963906  1
  H+  H201  1  0.10585379  0.87279800  0.33223095  1
  H+  H202  1  0.52248616  0.13199315  0.16087444  1
  H+  H203  1  0.82872479  0.15874045  0.39804999  1
  H+  H204  1  0.96493227  0.86761716  0.32847087  1
  H+  H205  1  0.14473121  0.84266879  0.68484850  1
  H+  H206  1  0.91186651  1.07986961  0.59934127  1
  H+  H207  1  0.53189150  0.89363623  1.00942774  1
  H+  H208  1  0.11596620  0.14714727  0.49491928  1
  H+  H209  1  0.38846322  0.50768641  0.97686755  1
  H+  H210  1  0.89067787  0.37897318  0.31992008  1
  H+  H211  1  0.45511337  0.99576010  0.12613441  1
  H+  H212  1  0.14357696  0.61931344  0.32202774  1
  H+  H213  1  0.11094016  0.99332259  0.33562478  1
  H+  H214  1  0.25292200  0.84800670  0.53056821  1
  H+  H215  1  0.38873838  0.11903727  0.84030479  1
  H+  H216  1  0.90564853  0.82882269  0.26950186  1
  H+  H217  1  0.29693248  0.88098592  0.66014610  1
  H+  H218  1  0.85989884  0.22748032  0.49480550  1
  H+  H219  1  0.63756675  0.53314679  0.84763050  1
  H+  H220  1  0.02368414  0.14190467  0.49849702  1
  H+  H221  1  0.62656089  0.15177077  0.34255595  1
  H+  H222  1  0.71701638  0.34992210  1.02544775  1
  H+  H223  1  0.53072898  0.14595486  0.81394803  1
  H+  H224  1  1.01812102  0.14136167  0.66449088  1
  H+  H225  1  0.85392834  0.88964222  0.49397237  1
  H+  H226  1  0.24793327  0.16233481  0.65728303  1
  H+  H227  1  0.60151526  0.89481081  0.82500993  1
  H+  H228  1  0.01350478  0.62046865  0.51212447  1
  H+  H229  1  0.10359402  0.70937395  0.82712672  1
  H+  H230  1  0.64271564  0.28340791  0.32171775  1
  H+  H231  1  0.97011369  0.43883519  0.53957672  1
  H+  H232  1  0.36857733  0.09919720  1.00400339  1
  H+  H233  1  0.62235973  0.12681975  0.64614256  1
  H+  H234  1  0.87876692  0.61108342  0.66575936  1
  H+  H235  1  0.61395205  0.89154816  0.46621116  1
  H+  H236  1  0.86341028  0.72564283  0.82274699  1
  H+  H237  1  0.06872626  0.64902837  0.23793609  1
  H+  H238  1  -0.01331613  0.11558080  -0.00389466  1
  H+  H239  1  0.88411020  0.10870806  0.66118164  1
  H+  H240  1  0.48224704  0.62177175  0.17490566  1
  H+  H241  1  0.88413293  0.26990056  0.83563695  1
  H+  H242  1  0.39015071  0.61484164  0.17660349  1
  H+  H243  1  0.35910160  0.38679631  -0.00549747  1
  H+  H244  1  0.24283943  0.88102130  0.99454601  1
  H+  H245  1  0.38849499  0.74862827  0.64587229  1
  H+  H246  1  0.58706160  0.53581356  0.23431419  1
  H+  H247  1  0.11336510  0.21922002  1.00975116  1
  H+  H248  1  0.87486206  0.51146470  -0.00993152  1
  H+  H249  1  0.61749337  0.65194582  1.01216232  1
  H+  H250  1  0.87789903  0.01839455  0.17353397  1
  H+  H251  1  0.11747699  0.48039745  0.33820837  1
  H+  H252  1  0.83327864  0.15951266  0.73567386  1
  H+  H253  1  0.37554896  0.39564452  0.49038389  1
  H+  H254  1  0.38753511  0.03572459  0.18373169  1
  H+  H255  1  0.71624089  0.86580895  0.83421571  1
  H+  H256  1  0.61903930  0.15837566  0.49301758  1
  H+  H257  1  0.38944518  0.76527129  0.32643189  1
  H+  H258  1  0.38990190  0.36970361  0.32372688  1
  H+  H259  1  0.11526979  1.01197861  0.49331203  1
  H+  H260  1  0.62827378  0.51201667  0.66660669  1
  H+  H261  1  0.08011282  0.71027957  0.18441840  1
  H+  H262  1  0.85276076  0.46596821  0.15916948  1
  H+  H263  1  1.08238295  0.64851866  0.73009188  1
  H+  H264  1  0.61614890  0.50838518  0.17689425  1
  H+  H265  1  0.16717979  0.56525494  0.56480093  1
  H+  H266  1  0.26155522  0.61897441  0.48835745  1
  H+  H267  1  0.87900093  0.86218390  0.83351788  1
  H+  H268  1  0.76535519  0.89015459  0.48723610  1
  H+  H269  1  0.72881065  0.61956073  0.84192365  1
  H+  H270  1  0.28025099  0.38499184  0.49075333  1
  H+  H271  1  0.41331753  0.87764479  0.17771327  1
  H+  H272  1  0.53108210  0.88612010  0.66646090  1
  H+  H273  1  0.10156113  0.87607409  0.83309361  1
  H+  H274  1  0.95563540  0.31697138  1.00413814  1
  H+  H275  1  0.76955768  0.14099894  0.49650539  1
  H+  H276  1  0.10761611  0.22601622  0.82142048  1
  H+  H277  1  0.39049758  0.51205584  0.64861395  1
  H+  H278  1  0.63409535  0.26382350  0.16230529  1
  H+  H279  1  0.63748588  0.03314327  0.33863356  1
  H+  H280  1  0.88233689  0.38409757  0.50776408  1
  H+  H281  1  0.11943047  0.26408444  0.17039360  1
  H+  H282  1  0.38060977  0.25578661  0.49185425  1
  H+  H283  1  0.60555475  0.39668539  0.81931766  1
  H+  H284  1  0.91145890  0.83087275  0.60142621  1
  H+  H285  1  0.25234501  0.86431272  0.74596688  1
  H+  H286  1  0.36667839  0.64184026  0.33616084  1
  H+  H287  1  0.84599486  0.35932217  0.00944551  1
  H+  H288  1  0.32075695  0.65362629  0.42731353  1
  H+  H289  1  0.84705984  0.68245598  0.44303161  1
  H+  H290  1  0.90926874  0.08011637  0.26334424  1
  H+  H291  1  0.36675183  0.96743873  0.00479596  1
  H+  H292  1  0.41398713  0.10882008  0.59638157  1
  H+  H293  1  0.06462651  0.87450148  0.73856551  1
  H+  H294  1  0.19819642  0.81913542  0.59033597  1
  H+  H295  1  0.85070041  0.71635964  0.66866924  1
  H+  H296  1  0.38470774  0.74196337  0.49699419  1
  H+  H297  1  0.15417361  0.33079366  0.22507623  1
  H+  H298  1  0.91422582  0.34047149  0.60715661  1
  H+  H299  1  0.10038031  0.91756207  0.48888016  1
  H+  H300  1  0.42538902  0.09359059  0.27692348  1
  H+  H301  1  0.07240647  0.94177242  0.39779015  1
  H+  H302  1  0.82581913  0.91478396  0.76348760  1
  H+  H303  1  0.36410935  0.65611347  0.04987780  1
  H+  H304  1  0.67461151  0.29773319  0.91663297  1
  H+  H305  1  0.17482449  0.58409530  0.26589226  1
  H+  H306  1  0.41562023  0.33986059  0.23041051  1
  H+  H307  1  0.58300445  0.92303207  0.72754715  1
  H+  H308  1  0.49453969  0.86528325  0.17965016  1
  H+  H309  1  0.33020881  0.40505852  0.75745576  1
  H+  H310  1  0.65132804  0.54316682  0.59896918  1
  H+  H311  1  0.18536670  0.75418804  0.43549689  1
  H+  H312  1  0.58421621  0.67350460  0.10368145  1
  H+  H313  1  0.14189493  0.61097445  0.06656868  1
  H+  H314  1  0.34627298  0.19504454  0.43222573  1
  H+  H315  1  0.63653819  0.25387203  0.92186956  1
  H+  H316  1  0.10841960  0.46651861  0.82189475  1
  H+  H317  1  0.15815928  0.76188846  0.68239512  1
  H+  H318  1  0.42710158  0.36455503  0.56939743  1
  H+  H319  1  0.21292016  0.79393916  0.41720562  1
  H+  H320  1  0.83913970  0.42153023  0.74072445  1
  H+  H321  1  0.90578386  0.57077468  0.89385631  1
  H+  H322  1  0.81431562  0.40982895  0.43425481  1
  H+  H323  1  0.52787178  0.62930378  0.66078586  1
  H+  H324  1  0.19821546  0.56136725  0.92002885  1
  H+  H325  1  0.63774061  0.85965562  0.65161976  1
  H+  H326  1  0.88804545  0.56784376  0.23119554  1
  H+  H327  1  0.65258080  0.82772179  0.55036753  1
  H+  H328  1  0.08331180  0.41444528  0.39393022  1
  H+  H329  1  0.09419352  0.81851709  0.23284925  1
  H+  H330  1  0.42370994  0.59104677  0.27208796  1
  H+  H331  1  0.97142547  0.61405064  0.66223186  1
  H+  H332  1  0.07537643  0.17473582  0.72500817  1
  H+  H333  1  0.41600057  0.08978087  0.94509613  1
  H+  H334  1  0.56784709  0.43272161  0.74432407  1
  H+  H335  1  0.84430163  0.67973351  0.09492361  1
  H+  H336  1  0.82548776  0.91535373  0.39715290  1
  H+  H337  1  0.19338365  0.09937693  0.95640589  1
  H+  H338  1  0.13659379  0.07297439  0.87873285  1
  H+  H339  1  0.90731307  0.83550428  0.89488122  1
  H+  H340  1  0.33013914  0.16172871  0.11740187  1
  H+  H341  1  0.11432002  0.62416435  0.66893635  1
  H+  H342  1  0.33939086  0.17626742  0.77087732  1
  H+  H343  1  0.41998312  0.57176882  0.58826562  1
  H+  H344  1  0.58305380  0.65988443  0.75911800  1
  H+  H345  1  0.18725340  0.12159284  0.56258680  1
  H+  H346  1  0.36739154  0.37559439  0.66691305  1
  H+  H347  1  0.16189712  0.32650832  0.93102429  1
  H+  H348  1  0.37033349  0.92770430  0.09481914  1
  H+  H349  1  0.65118070  0.82387458  0.24503051  1
  H+  H350  1  0.17302674  0.34035876  0.59731669  1
  H+  H351  1  0.16715561  0.83462745  0.90104870  1
  H+  H352  1  0.30614243  0.71129023  0.10716599  1
  H+  H353  1  0.34990286  0.42881145  0.05838305  1
  H+  H354  1  0.42396113  0.80521742  0.57301864  1
  H+  H355  1  0.42103650  0.82984035  0.92735368  1
  H+  H356  1  0.41689971  0.56610523  0.90794895  1
  H+  H357  1  0.82882348  0.66294514  0.76482479  1
  H+  H358  1  0.06310493  0.93226180  0.09654203  1
  H+  H359  1  0.42944560  0.83621049  0.26423256  1
  H+  H360  1  0.10262926  0.61354948  0.07431200  1
  H+  H361  1  0.66659066  0.59339634  0.93729839  1
  H+  H362  1  0.62396456  0.55948593  0.47954283  1
  H+  H363  1  0.89771351  0.57064040  0.57162959  1
  H+  H364  1  0.12509498  0.35557488  0.83666750  1
  H+  H365  1  0.38801152  0.93791886  0.41848816  1
  H+  H366  1  0.53205883  0.38872268  -0.00156467  1
  H+  H367  1  0.06847387  0.14894205  0.40256118  1
  H+  H368  1  0.83402436  0.40546699  0.06665743  1
  H+  H369  1  0.12828316  1.01368558  0.82463817  1
  H+  H370  1  0.08060123  0.40925420  0.73144921  1
  H+  H371  1  0.87926036  0.78242312  0.99010355  1
  H+  H372  1  0.58824055  0.91561607  0.10574818  1
  H+  H373  1  0.66934800  0.33362816  0.25821908  1
  H+  H374  1  0.14103130  0.60424610  0.83377884  1
  H+  H375  1  0.59288676  0.11791214  0.05468375  1
  H+  H376  1  0.96482443  0.87129337  0.17693479  1
  H+  H377  1  0.38872876  1.01063889  0.50059836  1
  H+  H378  1  0.15920722  0.16361535  0.64941846  1
  H+  H379  1  0.43855150  0.30080354  0.62208473  1
  H+  H380  1  0.57555550  0.41320010  0.10153031  1
  H+  H381  1  0.18923435  0.02693889  0.21031716  1
  H+  H382  1  0.88329528  1.02509502  0.50347999  1
  H+  H383  1  0.84668784  0.18756584  0.05953776  1
  O2-  O384  1  0.07900771  0.15060365  0.15075810  1
  O2-  O385  1  0.08307471  0.17586618  0.48184629  1
  O2-  O386  1  0.07511399  0.16700900  0.80304008  1
  O2-  O387  1  0.07354888  0.40778093  0.13956750  1
  O2-  O388  1  0.08623468  0.40766229  0.47204618  1
  O2-  O389  1  0.07672807  0.40595199  0.80726629  1
  O2-  O390  1  0.07075526  0.65089186  0.19362163  1
  O2-  O391  1  0.07447875  0.64435563  0.49873104  1
  O2-  O392  1  0.07832381  0.65073782  0.80980708  1
  O2-  O393  1  0.06185193  0.92901661  0.14178342  1
  O2-  O394  1  0.07521124  0.95221338  0.47627538  1
  O2-  O395  1  0.07577077  0.90865864  0.81468258  1
  O2-  O396  1  0.33216940  0.16766302  0.16247366  1
  O2-  O397  1  0.34744205  0.19532267  0.47783556  1
  O2-  O398  1  0.33625709  0.16872111  0.81821438  1
  O2-  O399  1  0.36119757  0.43376488  0.12503056  1
  O2-  O400  1  0.33891892  0.41761680  0.47217132  1
  O2-  O401  1  0.32240925  0.41062904  0.80248523  1
  O2-  O402  1  0.33260700  0.69010799  0.13594274  1
  O2-  O403  1  0.32225800  0.64883041  0.47237786  1
  O2-  O404  1  0.33789629  0.66025675  0.79513021  1
  O2-  O405  1  0.39815907  0.94789771  0.13601600  1
  O2-  O406  1  0.37094808  0.94801170  0.49191382  1
  O2-  O407  1  0.29418571  0.89084723  0.78103830  1
  O2-  O408  1  0.57695502  0.14910508  0.13903394  1
  O2-  O409  1  0.59148670  0.19185312  0.47958973  1
  O2-  O410  1  0.59282469  0.17645600  0.80481300  1
  O2-  O411  1  0.57761003  0.40808660  0.14635001  1
  O2-  O412  1  0.60830535  0.46655824  0.53250154  1
  O2-  O413  1  0.57574992  0.42998612  0.82793906  1
  O2-  O414  1  0.57837702  0.66767602  0.14969600  1
  O2-  O415  1  0.57791738  0.66333139  0.45050958  1
  O2-  O416  1  0.57732031  0.66121073  0.80421805  1
  O2-  O417  1  0.58522511  0.91227612  0.15127851  1
  O2-  O418  1  0.57824246  0.91716491  0.45243324  1
  O2-  O419  1  0.57040704  0.92375778  0.80944476  1
  O2-  O420  1  0.82721215  0.15490156  0.12718922  1
  O2-  O421  1  0.83132016  0.16725652  0.48309270  1
  O2-  O422  1  0.82810162  0.16091781  0.81668181  1
  O2-  O423  1  0.83033123  0.40592438  0.14349415  1
  O2-  O424  1  0.81845712  0.41315427  0.47962315  1
  O2-  O425  1  0.82279424  0.41399263  0.80191819  1
  O2-  O426  1  0.84938227  0.68355785  0.13968913  1
  O2-  O427  1  0.85245484  0.69151419  0.48766752  1
  O2-  O428  1  0.83347381  0.66408512  0.81021136  1
  O2-  O429  1  0.82387669  0.91645576  0.15540045  1
  O2-  O430  1  0.82679186  0.92124389  0.47495779  1
  O2-  O431  1  0.82382402  0.91265136  0.80910848  1
  O2-  O432  1  0.17848064  0.07268454  0.19738230  1
  O2-  O433  1  0.17879720  0.10670446  0.51722556  1
  O2-  O434  1  0.15638591  0.07628724  0.83707447  1
  O2-  O435  1  0.14418206  0.32576965  0.17985131  1
  O2-  O436  1  0.17791148  0.33700382  0.51967403  1
  O2-  O437  1  0.15767421  0.32669709  0.85140541  1
  O2-  O438  1  0.17074223  0.57742861  0.19027452  1
  O2-  O439  1  0.16263864  0.56494862  0.51930716  1
  O2-  O440  1  0.17337214  0.57421030  0.84377514  1
  O2-  O441  1  0.08166446  0.80114657  0.18995758  1
  O2-  O442  1  0.21059961  0.79733426  0.55315378  1
  O2-  O443  1  0.15322659  0.81940106  0.85736799  1
  O2-  O444  1  0.41740234  0.09425057  0.20050390  1
  O2-  O445  1  0.42679813  0.11000270  0.51648500  1
  O2-  O446  1  0.42791735  0.09788569  0.85532118  1
  O2-  O447  1  0.41466984  0.33590061  0.18488489  1
  O2-  O448  1  0.43949551  0.36621794  0.52548755  1
  O2-  O449  1  0.42556931  0.30593093  0.88834883  1
  O2-  O450  1  0.42218394  0.58902658  0.19337417  1
  O2-  O451  1  0.42282007  0.57990714  0.50661550  1
  O2-  O452  1  0.41417192  0.57205007  0.84102418  1
  O2-  O453  1  0.43272442  0.83892207  0.19651563  1
  O2-  O454  1  0.42198838  0.80221029  0.51482310  1
  O2-  O455  1  0.40702724  0.82332602  0.84512381  1
  O2-  O456  1  0.66437290  0.08126685  0.19090298  1
  O2-  O457  1  0.66482635  0.09307872  0.51142637  1
  O2-  O458  1  0.65640397  0.08343972  0.86115606  1
  O2-  O459  1  0.66451774  0.32332764  0.17873439  1
  O2-  O460  1  0.66917990  0.34690787  0.54104028  1
  O2-  O461  1  0.65484034  0.34484510  0.79022096  1
  O2-  O462  1  0.62701911  0.56086649  0.20049563  1
  O2-  O463  1  0.64384019  0.51778164  0.47733570  1
  O2-  O464  1  0.66976871  0.59554111  0.85907859  1
  O2-  O465  1  0.65504124  0.82617098  0.20010410  1
  O2-  O466  1  0.65300597  0.83156028  0.50497579  1
  O2-  O467  1  0.65631165  0.83816442  0.85066174  1
  O2-  O468  1  0.90932300  0.08107040  0.18594941  1
  O2-  O469  1  0.91559358  0.08415601  0.52131549  1
  O2-  O470  1  0.91467439  0.07710678  0.85337285  1
  O2-  O471  1  0.92535597  0.34734011  0.18900187  1
  O2-  O472  1  0.93050398  0.37911669  0.52864175  1
  O2-  O473  1  0.91756165  0.33262027  0.84455887  1
  O2-  O474  1  0.89488369  0.56593224  0.18621782  1
  O2-  O475  1  0.90445087  0.57569472  0.52678053  1
  O2-  O476  1  0.90975709  0.57274641  0.84833269  1
  O2-  O477  1  0.90703303  0.83314672  0.19508417  1
  O2-  O478  1  0.91031817  0.84749894  0.52497938  1
  O2-  O479  1  0.91038940  0.83323004  0.84969000  1
  O2-  O480  1  0.17506751  0.09186741  0.31563072  1
  O2-  O481  1  0.20524580  0.15968621  0.62745689  1
  O2-  O482  1  0.17328465  0.08701670  0.99811308  1
  O2-  O483  1  0.16646395  0.33639915  0.29949771  1
  O2-  O484  1  0.17172745  0.34127295  0.64290099  1
  O2-  O485  1  0.16146989  0.32489111  0.97646696  1
  O2-  O486  1  0.17660013  0.59057621  0.31150321  1
  O2-  O487  1  0.16968650  0.57288882  0.64183287  1
  O2-  O488  1  0.21579364  0.55009484  0.96027995  1
  O2-  O489  1  0.12765021  0.83425258  0.31403841  1
  O2-  O490  1  0.19230419  0.82673310  0.68283413  1
  O2-  O491  1  0.19376379  0.88345716  0.97379988  1
  O2-  O492  1  0.43055615  0.09755301  0.32250630  1
  O2-  O493  1  0.40063980  0.09654879  0.64028380  1
  O2-  O494  1  0.38491762  0.06077433  0.98229311  1
  O2-  O495  1  0.42174350  0.34140939  0.30737399  1
  O2-  O496  1  0.42525199  0.32941041  0.65435930  1
  O2-  O497  1  0.36408791  0.33672832  0.89848696  1
  O2-  O498  1  0.41479609  0.58917653  0.31718523  1
  O2-  O499  1  0.41847640  0.57294391  0.63360894  1
  O2-  O500  1  0.42280594  0.56716587  0.95552356  1
  O2-  O501  1  0.42791638  0.82899006  0.31170862  1
  O2-  O502  1  0.42037199  0.80954570  0.62518410  1
  O2-  O503  1  0.42429768  0.82994805  0.97243264  1
  O2-  O504  1  0.66666742  0.08873067  0.31723354  1
  O2-  O505  1  0.60868135  0.07392147  0.62194782  1
  O2-  O506  1  0.63995597  0.07992116  0.99022549  1
  O2-  O507  1  0.67213171  0.34220774  0.30313582  1
  O2-  O508  1  0.61357468  0.27080818  0.67110954  1
  O2-  O509  1  0.65471200  0.32515943  1.03507071  1
  O2-  O510  1  0.66315344  0.59887655  0.33512446  1
  O2-  O511  1  0.66118947  0.56699635  0.64093363  1
  O2-  O512  1  0.66648285  0.59345186  0.98289078  1
  O2-  O513  1  0.65141471  0.83235087  0.33086054  1
  O2-  O514  1  0.66483103  0.82946490  0.63163885  1
  O2-  O515  1  0.67514912  0.85595300  0.97738618  1
  O2-  O516  1  0.90809395  0.07858832  0.30904123  1
  O2-  O517  1  0.91386139  0.07768885  0.64473556  1
  O2-  O518  1  0.92617250  0.08961060  0.97857358  1
  O2-  O519  1  0.92537365  0.35673704  0.29961734  1
  O2-  O520  1  0.91528726  0.33800235  0.65214937  1
  O2-  O521  1  0.89143093  0.28584535  0.99935678  1
  O2-  O522  1  0.89872869  0.57941312  0.31025980  1
  O2-  O523  1  0.90952674  0.57941045  0.65186101  1
  O2-  O524  1  0.89604134  0.56935126  0.97196834  1
  O2-  O525  1  0.90450147  0.82894432  0.31553656  1
  O2-  O526  1  0.90906964  0.82154702  0.64652149  1
  O2-  O527  1  0.90608961  0.84316511  0.97460848  1
  O2-  O528  1  0.08241768  0.15897261  0.02467468  1
  O2-  O529  1  0.06424130  0.12557158  0.36126362  1
  O2-  O530  1  0.07835951  0.17876332  0.67980457  1
  O2-  O531  1  0.06509590  0.39573861  0.01390811  1
  O2-  O532  1  0.08203644  0.41883092  0.34876018  1
  O2-  O533  1  0.08115378  0.41247376  0.68559246  1
  O2-  O534  1  0.03453732  0.70436595  0.02788007  1
  O2-  O535  1  0.07611805  0.66793375  0.34450651  1
  O2-  O536  1  0.08645918  0.65630037  0.68501426  1
  O2-  O537  1  0.06782975  0.92912235  0.01811032  1
  O2-  O538  1  0.07278447  0.93307255  0.35299415  1
  O2-  O539  1  0.06609679  0.85341208  0.69721357  1
  O2-  O540  1  0.32461151  0.15288052  0.03963181  1
  O2-  O541  1  0.33822774  0.17917316  0.35582846  1
  O2-  O542  1  0.33743413  0.18270551  0.70343041  1
  O2-  O543  1  0.33922993  0.42429476  0.01102227  1
  O2-  O544  1  0.33349197  0.41518363  0.34916798  1
  O2-  O545  1  0.33968915  0.40969323  0.68121037  1
  O2-  O546  1  0.36341430  0.65838009  0.00536159  1
  O2-  O547  1  0.33813568  0.67570012  0.34940214  1
  O2-  O548  1  0.34444360  0.66065048  0.67269888  1
  O2-  O549  1  0.34029879  0.90694259  0.02134065  1
  O2-  O550  1  0.38367564  0.92951776  0.37264650  1
  O2-  O551  1  0.36117187  0.91147871  0.65654462  1
  O2-  O552  1  0.58144947  0.10761630  0.01057751  1
  O2-  O553  1  0.59979259  0.18630483  0.35663611  1
  O2-  O554  1  0.64212009  0.21139867  0.69064463  1
  O2-  O555  1  0.58582908  0.42152449  0.02048565  1
  O2-  O556  1  0.59236341  0.43656297  0.33397795  1
  O2-  O557  1  0.57602552  0.42550082  0.70101999  1
  O2-  O558  1  0.59034292  0.68317477  0.03023647  1
  O2-  O559  1  0.57039025  0.66433466  0.38344571  1
  O2-  O560  1  0.58772452  0.66145294  0.67650713  1
  O2-  O561  1  0.59025308  0.92750748  0.02679294  1
  O2-  O562  1  0.59068854  0.92827118  0.38526397  1
  O2-  O563  1  0.58940533  0.92000307  0.68275746  1
  O2-  O564  1  0.86071867  0.19560925  0.01366454  1
  O2-  O565  1  0.82337259  0.15673326  0.35347048  1
  O2-  O566  1  0.83774093  0.15941293  0.69063187  1
  O2-  O567  1  0.82729806  0.40057178  0.02130167  1
  O2-  O568  1  0.82800337  0.41509388  0.35487480  1
  O2-  O569  1  0.84667514  0.42457822  0.69160849  1
  O2-  O570  1  0.83323638  0.67778695  0.01321145  1
  O2-  O571  1  0.83454348  0.66843778  0.36333291  1
  O2-  O572  1  0.82294683  0.65628974  0.68523246  1
  O2-  O573  1  0.83227698  0.93028267  0.00659559  1
  O2-  O574  1  0.81865523  0.91013593  0.35189064  1
  O2-  O575  1  0.83022776  0.91289781  0.68512306  1
