# generated using pymatgen
data_H2O
_symmetry_space_group_name_H-M   'P 1'
_cell_length_a   17.98013695
_cell_length_b   17.97036328
_cell_length_c   21.97739547
_cell_angle_alpha   90.01763292
_cell_angle_beta   89.96356472
_cell_angle_gamma   120.00076506
_symmetry_Int_Tables_number   1
_chemical_formula_structural   H2O
_chemical_formula_sum   'H384 O192'
_cell_volume   6149.69066582
_cell_formula_units_Z   192
loop_
 _symmetry_equiv_pos_site_id
 _symmetry_equiv_pos_as_xyz
  1  'x, y, z'
loop_
 _atom_type_symbol
 _atom_type_oxidation_number
  H+  1.0
  O2-  -2.0
loop_
 _atom_site_type_symbol
 _atom_site_label
 _atom_site_symmetry_multiplicity
 _atom_site_fract_x
 _atom_site_fract_y
 _atom_site_fract_z
 _atom_site_occupancy
  H+  H0  1  0.01626307  0.12240851  0.32594630  1
  H+  H1  1  0.00140123  0.89118310  0.67516174  1
  H+  H2  1  0.21667478  0.35334710  0.84268248  1
  H+  H3  1  0.13840140  0.77424933  0.16615758  1
  H+  H4  1  0.53124532  0.62096891  0.49849738  1
  H+  H5  1  0.39698334  0.03494879  0.16888990  1
  H+  H6  1  0.53811447  0.40269902  0.17348519  1
  H+  H7  1  0.46344313  0.58978527  0.32069187  1
  H+  H8  1  0.98924213  0.61882104  0.48298692  1
  H+  H9  1  0.63390496  0.35042290  1.00533273  1
  H+  H10  1  0.64038303  0.03299456  0.16224593  1
  H+  H11  1  0.13142724  0.77178682  0.66317120  1
  H+  H12  1  0.25756575  0.88030815  0.82791934  1
  H+  H13  1  0.15506138  0.82322197  0.56425567  1
  H+  H14  1  0.36772292  0.34849309  0.32944136  1
  H+  H15  1  0.08629872  0.87291780  0.83193534  1
  H+  H16  1  0.11522656  0.10391141  0.65774799  1
  H+  H17  1  0.51581795  0.62516450  1.00273434  1
  H+  H18  1  0.11357915  0.38132919  0.67158489  1
  H+  H19  1  0.63758302  0.61033754  0.16173038  1
  H+  H20  1  0.24881310  0.38704132  0.18374501  1
  H+  H21  1  0.36751139  0.47058207  0.66780456  1
  H+  H22  1  0.22536782  0.85777850  0.51026043  1
  H+  H23  1  0.89146663  0.14270357  0.85854963  1
  H+  H24  1  0.03526084  0.64253398  0.00554795  1
  H+  H25  1  0.47232686  0.35023315  0.51544182  1
  H+  H26  1  0.85979922  0.89232406  1.03383316  1
  H+  H27  1  0.35181970  0.70132894  0.67033974  1
  H+  H28  1  0.87400438  0.01245058  0.49927032  1
  H+  H29  1  0.54308877  0.78455682  0.29006771  1
  H+  H30  1  0.41994949  0.09386589  0.22757473  1
  H+  H31  1  0.89098424  0.29407621  0.84418664  1
  H+  H32  1  0.68770439  0.47883422  0.38697386  1
  H+  H33  1  0.02845106  0.38826138  0.02302488  1
  H+  H34  1  0.77758160  0.13759327  0.13470919  1
  H+  H35  1  0.58595343  0.65125586  0.43694945  1
  H+  H36  1  0.38625661  0.73296691  0.33837242  1
  H+  H37  1  0.36297083  0.39130569  0.81015221  1
  H+  H38  1  0.26875873  0.66310499  0.30217533  1
  H+  H39  1  0.62337217  0.74160154  0.16470145  1
  H+  H40  1  0.59595711  0.16666419  0.78346364  1
  H+  H41  1  0.61297521  0.82286903  0.15971574  1
  H+  H42  1  0.38766989  0.09860646  0.98033725  1
  H+  H43  1  0.98591811  0.89397880  1.03103936  1
  H+  H44  1  0.03525195  0.63614315  0.67713858  1
  H+  H45  1  0.75819748  0.87090967  0.17487828  1
  H+  H46  1  0.39842855  0.51622984  0.50799663  1
  H+  H47  1  0.78227247  0.18481441  0.85568448  1
  H+  H48  1  0.57114316  0.64210458  0.09065532  1
  H+  H49  1  0.62094029  0.20743404  0.47854296  1
  H+  H50  1  0.10561150  0.21537187  0.82620740  1
  H+  H51  1  0.39853412  0.60421402  0.66315517  1
  H+  H52  1  0.68654559  0.57490178  0.83994818  1
  H+  H53  1  0.64497029  0.36845989  0.17820390  1
  H+  H54  1  0.48420919  0.83204411  0.15138649  1
  H+  H55  1  0.64755943  1.03426123  0.32034257  1
  H+  H56  1  0.89626075  0.61571730  0.17857930  1
  H+  H57  1  0.10353385  0.12572354  0.82525790  1
  H+  H58  1  0.35009937  0.19946201  0.83215863  1
  H+  H59  1  0.38175155  0.60088634  0.31589241  1
  H+  H60  1  0.47889413  0.11593348  0.49134707  1
  H+  H61  1  0.85355012  0.67783885  0.08060209  1
  H+  H62  1  0.21721716  0.35290131  0.33261142  1
  H+  H63  1  0.06614307  0.11870919  0.03872425  1
  H+  H64  1  0.53876818  0.90577033  0.33988334  1
  H+  H65  1  0.62459290  0.72896501  0.67601678  1
  H+  H66  1  0.40723676  0.03755046  0.64255512  1
  H+  H67  1  0.07179747  0.15375580  0.73119617  1
  H+  H68  1  1.10268615  0.96860134  0.82356913  1
  H+  H69  1  0.04151233  0.91786876  0.56513748  1
  H+  H70  1  1.01443531  0.12697716  0.66940358  1
  H+  H71  1  0.88091373  0.85730032  0.17703892  1
  H+  H72  1  0.12509898  0.63853792  0.67391827  1
  H+  H73  1  0.40071042  0.87650186  0.33444229  1
  H+  H74  1  0.35200039  0.21849625  0.33725683  1
  H+  H75  1  0.10013001  0.47652696  0.47727512  1
  H+  H76  1  0.86483674  0.34247594  0.47375055  1
  H+  H77  1  -0.00998854  0.38467545  0.83838740  1
  H+  H78  1  0.73847278  0.85382929  0.65252541  1
  H+  H79  1  0.90108877  0.37441256  0.01386405  1
  H+  H80  1  0.37576629  0.88354775  0.00279393  1
  H+  H81  1  0.36136444  0.69915203  0.16512499  1
  H+  H82  1  0.26837320  0.62543031  0.82733790  1
  H+  H83  1  0.17125844  0.84309668  0.21993239  1
  H+  H84  1  0.65543622  0.53130000  0.66627742  1
  H+  H85  1  0.00259922  0.38562331  0.46910969  1
  H+  H86  1  0.49006862  0.60872661  0.66605502  1
  H+  H87  1  0.21936114  0.09674524  0.82981909  1
  H+  H88  1  0.07906876  0.90922450  -0.02188437  1
  H+  H89  1  0.65010390  0.87593211  0.99352009  1
  H+  H90  1  0.13483904  0.51580440  0.65561884  1
  H+  H91  1  0.10445521  0.88587711  0.14656247  1
  H+  H92  1  0.51187049  0.60344195  0.15133367  1
  H+  H93  1  0.87603457  0.23104957  0.68805791  1
  H+  H94  1  0.75233860  0.88038501  0.48840086  1
  H+  H95  1  0.35703718  0.83887690  0.18106626  1
  H+  H96  1  0.60834218  0.70595286  0.83570300  1
  H+  H97  1  0.73131104  0.11543326  0.69607792  1
  H+  H98  1  0.67008277  0.54253887  0.98334685  1
  H+  H99  1  0.72590812  0.81819670  0.84399171  1
  H+  H100  1  0.87920673  -0.03639854  0.66649459  1
  H+  H101  1  0.61572052  1.03593183  0.82820229  1
  H+  H102  1  0.27174077  0.37847963  0.49327869  1
  H+  H103  1  0.57370091  0.43896676  0.83181711  1
  H+  H104  1  0.10550137  0.67643809  0.42150068  1
  H+  H105  1  0.52505697  0.34280672  0.35851134  1
  H+  H106  1  0.90712171  0.62780055  1.00273292  1
  H+  H107  1  0.63760463  0.02832505  1.00856173  1
  H+  H108  1  0.52044045  0.13854711  0.83224571  1
  H+  H109  1  0.65838089  0.16699779  0.87323141  1
  H+  H110  1  0.28635378  0.73451610  0.60426441  1
  H+  H111  1  0.26459121  0.12742324  0.33609964  1
  H+  H112  1  0.63715930  0.10554425  0.48264059  1
  H+  H113  1  0.64379570  0.83188454  0.84565300  1
  H+  H114  1  0.10726728  0.38105298  0.83205127  1
  H+  H115  1  0.38043774  0.26570554  0.50645134  1
  H+  H116  1  0.68137303  0.58515024  0.60524068  1
  H+  H117  1  0.12077746  0.47653284  0.01366564  1
  H+  H118  1  0.62763940  0.90618971  0.34018032  1
  H+  H119  1  0.84625376  -0.03754725  0.18595349  1
  H+  H120  1  0.81548950  0.91390868  0.09175011  1
  H+  H121  1  0.36883383  0.89291882  0.49398916  1
  H+  H122  1  0.36715825  0.98359937  0.33977558  1
  H+  H123  1  0.27969142  0.89274996  0.15527105  1
  H+  H124  1  0.62481030  0.14044461  1.02226104  1
  H+  H125  1  0.56298275  0.42238313  0.01051305  1
  H+  H126  1  0.89761477  0.53421237  0.99768680  1
  H+  H127  1  0.87051810  0.48089391  0.16508341  1
  H+  H128  1  0.02059221  0.63061480  0.82743236  1
  H+  H129  1  0.85996143  0.76138864  0.81173893  1
  H+  H130  1  0.78474988  0.39708227  0.01167391  1
  H+  H131  1  0.83120559  0.86601413  0.76910805  1
  H+  H132  1  0.66972190  0.82449309  0.59804363  1
  H+  H133  1  0.91312535  0.61682751  0.33475293  1
  H+  H134  1  0.88764008  0.27221280  0.15889610  1
  H+  H135  1  0.78201127  0.13810911  0.32350201  1
  H+  H136  1  0.13350382  0.48613318  0.16189516  1
  H+  H137  1  0.13661939  0.26197604  0.49969635  1
  H+  H138  1  0.29533210  0.17752519  -0.00586887  1
  H+  H139  1  0.09499171  0.09646969  0.17900013  1
  H+  H140  1  0.52982265  0.14443086  0.16426579  1
  H+  H141  1  0.13300937  0.60761099  0.49778284  1
  H+  H142  1  0.22468147  0.11898972  0.51038224  1
  H+  H143  1  0.26763434  0.15120692  0.18506784  1
  H+  H144  1  0.07462693  0.41891336  0.40654354  1
  H+  H145  1  0.73709228  0.67186562  0.30173039  1
  H+  H146  1  0.64493503  0.60447884  0.51050054  1
  H+  H147  1  0.12175987  0.72680743  0.48540699  1
  H+  H148  1  0.63200546  0.35998628  0.85582045  1
  H+  H149  1  0.14332329  0.89996063  0.48167449  1
  H+  H150  1  0.58765243  0.60025695  1.00464432  1
  H+  H151  1  0.61186116  0.93084022  0.82922176  1
  H+  H152  1  0.12780303  0.26369281  0.32330423  1
  H+  H153  1  0.67681791  0.60601681  0.25077837  1
  H+  H154  1  0.62898145  0.75703108  0.50596079  1
  H+  H155  1  0.78808252  0.40514076  0.50305723  1
  H+  H156  1  0.36881629  0.98513563  0.49468738  1
  H+  H157  1  0.15765652  0.32173827  0.90255787  1
  H+  H158  1  0.61430404  0.96855478  0.49387536  1
  H+  H159  1  0.33838353  0.82807083  0.62990069  1
  H+  H160  1  0.74934679  0.36526619  0.32407847  1
  H+  H161  1  0.36271203  0.44575968  0.09517621  1
  H+  H162  1  0.47368530  0.11725954  0.32125974  1
  H+  H163  1  0.18156253  0.84265733  1.07482088  1
  H+  H164  1  0.61027774  0.36864028  0.51879158  1
  H+  H165  1  0.64759724  0.51726562  0.51546540  1
  H+  H166  1  0.08783318  0.92278617  0.08488582  1
  H+  H167  1  0.35775405  0.13604213  0.48784864  1
  H+  H168  1  0.77962048  0.39241455  0.16205848  1
  H+  H169  1  0.86250029  0.87497983  0.83890720  1
  H+  H170  1  0.64380793  0.29032681  0.59197842  1
  H+  H171  1  0.60331500  0.63125390  0.33302974  1
  H+  H172  1  0.11057431  0.00692761  0.65577238  1
  H+  H173  1  0.84292349  0.85130472  0.51506952  1
  H+  H174  1  0.08681978  0.66246577  0.77082792  1
  H+  H175  1  0.13422466  0.60635814  0.84362730  1
  H+  H176  1  0.62059993  0.22699772  0.33085903  1
  H+  H177  1  0.04996415  0.64583131  0.33050020  1
  H+  H178  1  0.64432349  0.12279278  0.16621447  1
  H+  H179  1  0.41770877  0.31113469  0.16429893  1
  H+  H180  1  0.90428383  0.64522393  0.84456176  1
  H+  H181  1  0.58194775  0.70500077  0.33888330  1
  H+  H182  1  0.62966408  0.23828203  0.01511552  1
  H+  H183  1  0.63969336  0.04801015  0.79844559  1
  H+  H184  1  0.82132006  -0.02746913  0.32562458  1
  H+  H185  1  0.88600138  0.35954516  0.16619603  1
  H+  H186  1  0.74621237  0.87682245  0.32838627  1
  H+  H187  1  0.90230324  0.61750401  0.67037252  1
  H+  H188  1  0.88575169  0.10625082  0.49630915  1
  H+  H189  1  0.38194370  0.11399804  0.32459304  1
  H+  H190  1  0.78016050  0.12990232  0.46935337  1
  H+  H191  1  0.87535937  0.47308162  0.33258546  1
  H+  H192  1  0.62109833  0.84352299  0.50656875  1
  H+  H193  1  0.12426560  0.73163767  0.01756642  1
  H+  H194  1  0.63592042  0.20962302  0.67508351  1
  H+  H195  1  0.26448277  0.63070116  0.47800957  1
  H+  H196  1  0.35934087  0.71360655  0.82401814  1
  H+  H197  1  0.80838509  0.66855688  0.01618969  1
  H+  H198  1  0.92515986  0.57740047  0.61341873  1
  H+  H199  1  0.58073204  0.38451864  0.45502704  1
  H+  H200  1  0.95423576  0.12698276  1.01533573  1
  H+  H201  1  0.10241991  0.75414595  0.85247450  1
  H+  H202  1  0.38344787  0.09758492  0.82980188  1
  H+  H203  1  0.62892091  0.88342701  0.67576951  1
  H+  H204  1  0.00964401  0.15065883  0.18605082  1
  H+  H205  1  0.39130522  0.01279645  0.98565452  1
  H+  H206  1  0.12938630  0.74291330  0.32776680  1
  H+  H207  1  0.16661458  0.02772753  0.99096787  1
  H+  H208  1  0.09562408  0.00759688  0.16969651  1
  H+  H209  1  0.50487633  0.32680134  0.68651017  1
  H+  H210  1  0.58337973  0.26192806  0.68085300  1
  H+  H211  1  0.75840597  0.88337127  0.01899780  1
  H+  H212  1  0.28898840  0.88684260  0.01802840  1
  H+  H213  1  0.38693518  0.51831486  0.99708852  1
  H+  H214  1  0.22377036  0.35690206  0.65524872  1
  H+  H215  1  0.41176213  0.98654746  0.80509421  1
  H+  H216  1  0.30027188  0.14028711  0.19659809  1
  H+  H217  1  0.86701732  0.13148298  0.31567009  1
  H+  H218  1  0.80331726  0.91613411  0.42624119  1
  H+  H219  1  0.67554178  0.55034286  0.35335102  1
  H+  H220  1  0.16300972  0.11592831  0.98201124  1
  H+  H221  1  0.90734101  0.79833650  0.02343793  1
  H+  H222  1  0.64671542  0.52614669  0.17066378  1
  H+  H223  1  0.10349947  0.23613233  0.17761119  1
  H+  H224  1  0.36104943  0.32002204  0.88723749  1
  H+  H225  1  0.42056627  0.18616292  0.13541447  1
  H+  H226  1  0.11939152  0.26388663  1.00124112  1
  H+  H227  1  0.16722103  0.57850654  0.90311464  1
  H+  H228  1  0.86767526  0.72642139  0.16582800  1
  H+  H229  1  0.52797384  0.88916032  0.99329462  1
  H+  H230  1  0.36832447  0.13676869  0.67518433  1
  H+  H231  1  0.35091109  0.72211533  0.47600381  1
  H+  H232  1  0.24282146  0.90948726  0.81492198  1
  H+  H233  1  0.36339276  0.61008506  0.15369898  1
  H+  H234  1  0.32692212  0.92422799  0.58258270  1
  H+  H235  1  0.22787119  0.59682834  0.65590656  1
  H+  H236  1  0.58115908  0.15684186  0.41570821  1
  H+  H237  1  0.56797361  0.35508522  0.37306549  1
  H+  H238  1  0.10931086  0.38091503  0.33503438  1
  H+  H239  1  0.86412050  0.49374044  0.84078246  1
  H+  H240  1  0.60498154  0.58852447  0.83485247  1
  H+  H241  1  0.23273161  0.60567621  0.15398856  1
  H+  H242  1  0.78585348  0.64031013  0.50067714  1
  H+  H243  1  0.88593408  0.26658194  0.47516351  1
  H+  H244  1  0.97047741  0.86068579  0.16333829  1
  H+  H245  1  0.14332379  0.87180886  0.31469004  1
  H+  H246  1  0.89453295  0.27110992  0.31419042  1
  H+  H247  1  0.88515273  0.35011573  0.67967928  1
  H+  H248  1  0.11839411  0.85466197  0.65932952  1
  H+  H249  1  0.87745121  0.09432530  0.65152379  1
  H+  H250  1  0.14210567  0.39502967  0.16625291  1
  H+  H251  1  0.37885207  0.60205244  0.83806658  1
  H+  H252  1  0.36040248  0.22015522  0.67873249  1
  H+  H253  1  0.35644125  0.47434529  0.82499700  1
  H+  H254  1  0.87136394  0.38218498  0.32766608  1
  H+  H255  1  0.96795859  0.12277524  0.85664209  1
  H+  H256  1  0.14321513  0.98884441  0.48169241  1
  H+  H257  1  0.49150583  0.13386634  0.64405090  1
  H+  H258  1  0.34743686  0.46232407  0.33967945  1
  H+  H259  1  0.36699689  0.63354387  -0.00219306  1
  H+  H260  1  0.87500205  0.84660119  0.60959068  1
  H+  H261  1  0.13407201  0.35850136  0.99934902  1
  H+  H262  1  0.50311047  0.32901821  0.04125216  1
  H+  H263  1  0.11924456  0.63638842  0.15657245  1
  H+  H264  1  0.11669803  0.47567702  0.83105052  1
  H+  H265  1  0.89976044  0.55016843  0.45723818  1
  H+  H266  1  0.62145208  0.23599649  0.16627006  1
  H+  H267  1  1.00824816  0.89181637  0.54173931  1
  H+  H268  1  0.14565589  0.61381386  0.99680278  1
  H+  H269  1  0.64397590  0.27995559  0.85160993  1
  H+  H270  1  0.49695017  0.34677765  0.85158899  1
  H+  H271  1  0.79979852  0.61591480  0.36991521  1
  H+  H272  1  0.85728403  0.14384484  1.02990308  1
  H+  H273  1  0.90061877  0.76778728  0.32664379  1
  H+  H274  1  0.48103977  0.83213407  0.83490724  1
  H+  H275  1  0.13444624  0.26813113  0.65852745  1
  H+  H276  1  0.10580844  0.12517881  0.33327744  1
  H+  H277  1  0.87923495  0.65148152  0.49862287  1
  H+  H278  1  0.23394150  0.87373065  0.31595782  1
  H+  H279  1  0.39610974  0.77207250  0.98532983  1
  H+  H280  1  0.98495902  0.61493640  0.17488383  1
  H+  H281  1  0.01404754  0.12023991  0.48668732  1
  H+  H282  1  0.13023064  0.10958348  0.50417296  1
  H+  H283  1  0.87549008  0.47033734  0.68773882  1
  H+  H284  1  0.46825791  0.60098578  0.83749650  1
  H+  H285  1  0.47507025  0.85906211  0.49830670  1
  H+  H286  1  0.95567892  0.78795082  0.80555676  1
  H+  H287  1  0.85543469  0.77009920  0.52726949  1
  H+  H288  1  1.02155250  0.38366296  0.32743752  1
  H+  H289  1  0.23406404  0.61269068  -0.00656235  1
  H+  H290  1  0.07220040  0.14924882  0.42648214  1
  H+  H291  1  0.38575108  0.26758038  0.93044074  1
  H+  H292  1  0.43383344  0.57245119  0.56846664  1
  H+  H293  1  0.92256603  0.60426727  0.90416551  1
  H+  H294  1  0.90189142  0.10805906  0.95312745  1
  H+  H295  1  0.14868229  0.07382760  0.26680587  1
  H+  H296  1  0.58975932  0.88162747  0.76635910  1
  H+  H297  1  0.58701782  0.91615220  0.43348002  1
  H+  H298  1  0.41160259  0.85975250  0.82450035  1
  H+  H299  1  0.85636421  0.44000486  0.58262481  1
  H+  H300  1  0.34997171  0.91757983  0.10231289  1
  H+  H301  1  0.38567238  0.35504158  0.66265245  1
  H+  H302  1  0.72652851  0.11720675  1.02601356  1
  H+  H303  1  0.19213547  0.60764252  0.21717838  1
  H+  H304  1  0.67933629  0.33542085  0.23395202  1
  H+  H305  1  0.40871280  0.32993891  0.27135096  1
  H+  H306  1  0.05799037  0.17519100  0.08958762  1
  H+  H307  1  0.79831671  0.64486153  0.68001563  1
  H+  H308  1  0.33362720  0.27562678  0.01518714  1
  H+  H309  1  0.61263968  0.52974507  0.92649929  1
  H+  H310  1  0.15694361  0.88418833  1.02031101  1
  H+  H311  1  0.34353511  0.66515155  0.05834258  1
  H+  H312  1  0.92459497  0.82725351  0.26787681  1
  H+  H313  1  0.10436868  0.42088177  0.09960942  1
  H+  H314  1  0.10416443  0.92126506  0.38854229  1
  H+  H315  1  0.42183553  0.84155421  0.27464382  1
  H+  H316  1  0.36121198  0.37963682  0.49326189  1
  H+  H317  1  0.82423831  0.18854841  0.78801794  1
  H+  H318  1  0.38729442  0.21758596  0.07924306  1
  H+  H319  1  0.61464006  0.13600634  0.32625391  1
  H+  H320  1  0.89545009  0.28512130  1.02818913  1
  H+  H321  1  0.26319929  0.89234605  0.63813612  1
  H+  H322  1  0.42735855  0.09812929  0.55457825  1
  H+  H323  1  0.06602488  0.91374429  0.73114259  1
  H+  H324  1  0.84227856  0.43061280  0.07139688  1
  H+  H325  1  0.33153084  0.64827398  0.73275503  1
  H+  H326  1  0.62302188  0.96696327  0.69373489  1
  H+  H327  1  0.40067350  0.54199745  0.22402592  1
  H+  H328  1  0.84176442  0.41906922  0.74896828  1
  H+  H329  1  0.25525514  0.35123527  1.01480273  1
  H+  H330  1  0.87155643  0.69480659  0.73011379  1
  H+  H331  1  0.33200199  0.92280294  0.39871530  1
  H+  H332  1  0.41130724  0.32065564  0.60406024  1
  H+  H333  1  0.32369053  0.41263511  0.72584678  1
  H+  H334  1  0.49006410  0.76868342  0.10683154  1
  H+  H335  1  0.77882685  0.39923742  0.84538603  1
  H+  H336  1  0.31323121  0.75694666  0.22613419  1
  H+  H337  1  0.67540855  0.08880773  0.25767861  1
  H+  H338  1  -0.02593228  0.35146891  0.66910817  1
  H+  H339  1  0.58819301  0.41286350  0.11166518  1
  H+  H340  1  0.59441025  0.17942652  0.08185930  1
  H+  H341  1  0.88910077  0.16083179  0.72908973  1
  H+  H342  1  1.02855567  0.88167321  0.33547149  1
  H+  H343  1  0.08705257  0.41433551  0.73136041  1
  H+  H344  1  0.16276994  0.32003574  0.55899914  1
  H+  H345  1  0.89643861  0.39218473  0.84532691  1
  H+  H346  1  0.91111355  0.07150695  0.59088068  1
  H+  H347  1  0.55003464  0.33837570  0.75059373  1
  H+  H348  1  0.40153861  0.81429644  0.55027788  1
  H+  H349  1  0.36939865  0.91919401  0.75177898  1
  H+  H350  1  0.65634455  0.36029299  0.32640172  1
  H+  H351  1  0.33422975  0.66276867  0.38928613  1
  H+  H352  1  0.86772078  0.68436904  0.41060010  1
  H+  H353  1  0.84483143  0.15739383  0.41316593  1
  H+  H354  1  0.98771846  0.92301295  0.87461644  1
  H+  H355  1  0.66096687  0.09177952  0.64651756  1
  H+  H356  1  0.08580624  0.66391077  0.09921568  1
  H+  H357  1  0.57072440  0.89917021  0.05698004  1
  H+  H358  1  0.92007085  0.32924993  0.25414503  1
  H+  H359  1  0.77870640  0.63584066  0.16093589  1
  H+  H360  1  0.14960904  0.07549639  0.59139152  1
  H+  H361  1  0.67006515  0.33028271  0.94386288  1
  H+  H362  1  0.40792427  0.39439009  0.17956529  1
  H+  H363  1  0.93418532  0.58749444  0.27098596  1
  H+  H364  1  0.68876559  0.10471431  0.54010557  1
  H+  H365  1  0.42201119  0.82825648  0.92417770  1
  H+  H366  1  0.58224813  0.65999596  0.76909635  1
  H+  H367  1  0.69318285  0.13839368  0.93112718  1
  H+  H368  1  0.82652371  0.45793322  0.57929535  1
  H+  H369  1  0.62908945  0.64244270  0.67773806  1
  H+  H370  1  0.14929865  0.82522490  0.90284129  1
  H+  H371  1  0.40655469  0.56698640  0.93131143  1
  H+  H372  1  0.13307294  1.01769876  0.32544075  1
  H+  H373  1  0.41488243  0.06731828  0.88877204  1
  H+  H374  1  0.32199528  0.16244328  0.43048331  1
  H+  H375  1  0.32382709  0.40852344  0.40265939  1
  H+  H376  1  0.33033414  0.15383785  0.76476436  1
  H+  H377  1  0.17117061  0.07473164  0.89270396  1
  H+  H378  1  0.18524716  0.67425870  0.29852358  1
  H+  H379  1  0.68500687  0.83299000  0.94417435  1
  H+  H380  1  0.17955567  0.34599015  0.23982084  1
  H+  H381  1  0.15907489  0.57014184  0.55585368  1
  H+  H382  1  0.92902232  0.89472002  0.93302076  1
  H+  H383  1  0.62264774  0.79773020  0.25254019  1
  O2-  O384  1  0.06342054  0.17816100  0.16167578  1
  O2-  O385  1  0.07478364  0.14935484  0.47190386  1
  O2-  O386  1  0.07315348  0.15567869  0.81000120  1
  O2-  O387  1  0.10912291  0.42391957  0.14714512  1
  O2-  O388  1  0.06708549  0.41845714  0.45689109  1
  O2-  O389  1  0.08130350  0.41489599  0.81544638  1
  O2-  O390  1  0.08773479  0.66675113  0.14495851  1
  O2-  O391  1  0.09545079  0.66825955  0.46649465  1
  O2-  O392  1  0.08264007  0.65879707  0.81628982  1
  O2-  O393  1  0.07047362  0.91042322  0.12912245  1
  O2-  O394  1  0.14701942  0.94641749  0.45546144  1
  O2-  O395  1  0.06428246  0.90720547  0.81041008  1
  O2-  O396  1  0.42642009  0.23738285  0.11448713  1
  O2-  O397  1  0.32419870  0.16436675  0.47632591  1
  O2-  O398  1  0.32329844  0.14338544  0.81117000  1
  O2-  O399  1  0.35431732  0.44934438  0.16005059  1
  O2-  O400  1  0.33290293  0.41131733  0.47771754  1
  O2-  O401  1  0.32312528  0.41304087  0.80840369  1
  O2-  O402  1  0.34470659  0.65021881  0.13706328  1
  O2-  O403  1  0.32207289  0.66322908  0.45919390  1
  O2-  O404  1  0.32809142  0.65177265  0.81065902  1
  O2-  O405  1  0.34241176  0.91675105  0.14759683  1
  O2-  O406  1  0.33259033  0.92091268  0.48956836  1
  O2-  O407  1  0.41398440  0.93921882  0.78271727  1
  O2-  O408  1  0.59176640  0.17501354  0.14968112  1
  O2-  O409  1  0.57982232  0.14964280  0.46153529  1
  O2-  O410  1  0.58512057  0.17639867  0.82525955  1
  O2-  O411  1  0.59786144  0.42491043  0.15608821  1
  O2-  O412  1  0.58184980  0.39755249  0.49828046  1
  O2-  O413  1  0.55231193  0.37625248  0.82921969  1
  O2-  O414  1  0.57187189  0.64262039  0.13758593  1
  O2-  O415  1  0.59298279  0.65438728  0.48180509  1
  O2-  O416  1  0.57261523  0.64888283  0.81424547  1
  O2-  O417  1  0.52426101  0.82634931  0.12407123  1
  O2-  O418  1  0.58066682  0.90854618  0.47860214  1
  O2-  O419  1  0.58620376  0.87247514  0.81314554  1
  O2-  O420  1  0.83724717  0.16588481  0.11833603  1
  O2-  O421  1  0.84210958  0.15866905  0.45884443  1
  O2-  O422  1  0.83798908  0.20160189  0.83153081  1
  O2-  O423  1  0.83956468  0.42265815  0.14585841  1
  O2-  O424  1  0.76302541  0.35471895  0.47573780  1
  O2-  O425  1  0.83976435  0.43143843  0.83085659  1
  O2-  O426  1  0.84144997  0.66550873  0.14997831  1
  O2-  O427  1  0.84670024  0.68179333  0.48969633  1
  O2-  O428  1  0.89827347  0.73662108  0.80648951  1
  O2-  O429  1  0.81962152  0.90700213  0.16262457  1
  O2-  O430  1  0.81171073  0.91340243  0.47079390  1
  O2-  O431  1  0.81762582  0.83597091  0.80862210  1
  O2-  O432  1  0.11023236  0.05610535  0.19753174  1
  O2-  O433  1  0.16386489  0.08595466  0.52570441  1
  O2-  O434  1  0.15998708  0.07084669  0.84803747  1
  O2-  O435  1  0.18566169  0.35247017  0.19386136  1
  O2-  O436  1  0.17037050  0.32183337  0.51440080  1
  O2-  O437  1  0.15622644  0.32267887  0.85704831  1
  O2-  O438  1  0.17594099  0.58289687  0.17430040  1
  O2-  O439  1  0.15757200  0.57064667  0.51063139  1
  O2-  O440  1  0.16543128  0.57615540  0.85744503  1
  O2-  O441  1  0.16850636  0.83765838  0.17415695  1
  O2-  O442  1  0.16266247  0.82386376  0.51925385  1
  O2-  O443  1  0.10086855  0.80169679  0.87491326  1
  O2-  O444  1  0.42810660  0.09579025  0.18234020  1
  O2-  O445  1  0.42005025  0.09014797  0.50937658  1
  O2-  O446  1  0.42157598  0.07462437  0.84317910  1
  O2-  O447  1  0.43667692  0.36107208  0.19217368  1
  O2-  O448  1  0.41048200  0.32377631  0.52619870  1
  O2-  O449  1  0.39467935  0.29107674  0.88766831  1
  O2-  O450  1  0.40188895  0.54292083  0.17806622  1
  O2-  O451  1  0.43806858  0.57503503  0.52353770  1
  O2-  O452  1  0.40751940  0.56932903  0.85268977  1
  O2-  O453  1  0.36699342  0.79513618  0.20285487  1
  O2-  O454  1  0.41188309  0.83106752  0.50675103  1
  O2-  O455  1  0.42124359  0.81644258  0.84699399  1
  O2-  O456  1  0.67670735  0.09190079  0.17612579  1
  O2-  O457  1  0.67408221  0.08206005  0.49895974  1
  O2-  O458  1  0.71057956  0.17769765  0.89571960  1
  O2-  O459  1  0.67476851  0.33532586  0.18830698  1
  O2-  O460  1  0.70462518  0.28820853  0.51931198  1
  O2-  O461  1  0.67208142  0.33934710  0.86886800  1
  O2-  O462  1  0.67532291  0.58970687  0.18048706  1
  O2-  O463  1  0.67715395  0.57777905  0.52930776  1
  O2-  O464  1  0.62610931  0.54835935  0.85122753  1
  O2-  O465  1  0.64851951  0.80246850  0.18032866  1
  O2-  O466  1  0.65520364  0.81761043  0.52183871  1
  O2-  O467  1  0.67084977  0.80143445  0.86614943  1
  O2-  O468  1  0.90928270  0.06277900  0.22296109  1
  O2-  O469  1  0.91017122  0.07254288  0.51569327  1
  O2-  O470  1  0.91395582  0.10833471  0.87766930  1
  O2-  O471  1  0.91393844  0.32733573  0.18091744  1
  O2-  O472  1  0.90981422  0.32887362  0.48433605  1
  O2-  O473  1  0.92835497  0.35926083  0.85562359  1
  O2-  O474  1  0.92599402  0.58472596  0.19306696  1
  O2-  O475  1  0.92614169  0.58708845  0.49247567  1
  O2-  O476  1  0.91854105  0.60147159  0.85867672  1
  O2-  O477  1  0.91421980  0.82759681  0.18480013  1
  O2-  O478  1  0.84680797  0.81494317  0.54739313  1
  O2-  O479  1  0.93676932  0.92110322  0.89255042  1
  O2-  O480  1  0.16079649  0.07939985  0.31182995  1
  O2-  O481  1  0.14102330  0.06894425  0.63923623  1
  O2-  O482  1  0.19877065  0.09120835  0.97169658  1
  O2-  O483  1  0.15910934  0.32597276  0.31211169  1
  O2-  O484  1  0.16193356  0.32773531  0.64286800  1
  O2-  O485  1  0.15672712  0.32155774  0.98287027  1
  O2-  O486  1  0.23071583  0.67238437  0.27297763  1
  O2-  O487  1  0.16875985  0.57614102  0.63978083  1
  O2-  O488  1  0.17198068  0.57978228  0.98148607  1
  O2-  O489  1  0.17582290  0.84345464  0.29730317  1
  O2-  O490  1  0.15278777  0.82950206  0.64365076  1
  O2-  O491  1  0.18133035  0.84297115  1.03030423  1
  O2-  O492  1  0.41279360  0.08452219  0.30734656  1
  O2-  O493  1  0.43005516  0.09842416  0.63198274  1
  O2-  O494  1  0.41540478  0.06870411  0.96331484  1
  O2-  O495  1  0.39748511  0.31748909  0.31531478  1
  O2-  O496  1  0.41337948  0.32153790  0.64964886  1
  O2-  O497  1  0.30406089  0.34895248  1.03534718  1
  O2-  O498  1  0.40488256  0.56337306  0.30197027  1
  O2-  O499  1  0.43034796  0.57470454  0.64993972  1
  O2-  O500  1  0.40985163  0.57523435  0.97637019  1
  O2-  O501  1  0.43510538  0.85039148  0.31879142  1
  O2-  O502  1  0.34293489  0.77595645  0.62009906  1
  O2-  O503  1  0.42579761  0.83263152  0.96980133  1
  O2-  O504  1  0.67580983  0.09375000  0.30274323  1
  O2-  O505  1  0.66874387  0.09188367  0.69031150  1
  O2-  O506  1  0.66924144  0.09252024  1.00459570  1
  O2-  O507  1  0.68506910  0.33123553  0.30930528  1
  O2-  O508  1  0.66872838  0.33043825  0.55617170  1
  O2-  O509  1  0.67145275  0.32815207  0.98986117  1
  O2-  O510  1  0.68131144  0.62024778  0.29610537  1
  O2-  O511  1  0.68389776  0.59022325  0.65124913  1
  O2-  O512  1  0.61044773  0.52113018  0.97186226  1
  O2-  O513  1  0.60179513  0.79634406  0.29551230  1
  O2-  O514  1  0.67648368  0.82845039  0.64360482  1
  O2-  O515  1  0.68542744  0.84780341  0.98803625  1
  O2-  O516  1  0.90688777  0.06576937  0.28379628  1
  O2-  O517  1  0.91237777  0.06960931  0.63706095  1
  O2-  O518  1  0.89562055  0.10462029  0.99874830  1
  O2-  O519  1  0.92291790  0.33200975  0.30030475  1
  O2-  O520  1  0.91075839  0.31508511  0.66409115  1
  O2-  O521  1  0.93126741  0.34135191  1.00810809  1
  O2-  O522  1  0.94048360  0.58560171  0.31615412  1
  O2-  O523  1  0.93254200  0.58430280  0.65744560  1
  O2-  O524  1  0.93093755  0.59509175  0.98209180  1
  O2-  O525  1  0.92695270  0.82801287  0.31284844  1
  O2-  O526  1  0.89901504  0.86619519  0.65426441  1
  O2-  O527  1  0.92684618  0.86047384  1.01541570  1
  O2-  O528  1  0.05780717  0.16785145  0.04361651  1
  O2-  O529  1  0.07275502  0.15466415  0.34623856  1
  O2-  O530  1  0.07457978  0.15492043  0.68541544  1
  O2-  O531  1  0.09347040  0.41775353  0.03214815  1
  O2-  O532  1  0.08065444  0.41453075  0.34641289  1
  O2-  O533  1  0.08452606  0.41340865  0.68629283  1
  O2-  O534  1  0.09459831  0.66798508  0.02299551  1
  O2-  O535  1  0.11158390  0.68340385  0.34259539  1
  O2-  O536  1  0.09686156  0.66954459  0.69126210  1
  O2-  O537  1  0.11637907  0.93917738  0.01249585  1
  O2-  O538  1  0.09243684  0.91485685  0.34338297  1
  O2-  O539  1  0.06348487  0.91452267  0.68556142  1
  O2-  O540  1  0.35041820  0.23252763  0.00192910  1
  O2-  O541  1  0.32466656  0.15701418  0.35272261  1
  O2-  O542  1  0.33530480  0.16046504  0.69501717  1
  O2-  O543  1  0.36987954  0.43833890  0.04710227  1
  O2-  O544  1  0.31636077  0.40328129  0.35701803  1
  O2-  O545  1  0.32931309  0.40927971  0.68125342  1
  O2-  O546  1  0.34176276  0.66906278  0.01337060  1
  O2-  O547  1  0.34825919  0.67026155  0.34350948  1
  O2-  O548  1  0.33273005  0.64354285  0.68732461  1
  O2-  O549  1  0.35293101  0.91775374  0.02334730  1
  O2-  O550  1  0.33885016  0.92223587  0.35413683  1
  O2-  O551  1  0.32537222  0.91692693  0.62714878  1
  O2-  O552  1  0.59707803  0.17720260  0.03454746  1
  O2-  O553  1  0.58331755  0.16509027  0.34219261  1
  O2-  O554  1  0.59537087  0.22220726  0.65446601  1
  O2-  O555  1  0.56220658  0.37648663  0.03628553  1
  O2-  O556  1  0.69744006  0.53688511  0.39083524  1
  O2-  O557  1  0.55323170  0.32549499  0.70734540  1
  O2-  O558  1  0.57344223  0.64314799  0.02029835  1
  O2-  O559  1  0.56399921  0.64653136  0.35454390  1
  O2-  O560  1  0.59592360  0.66927269  0.69351104  1
  O2-  O561  1  0.58552280  0.91926467  0.01455081  1
  O2-  O562  1  0.59945599  0.93747011  0.35557788  1
  O2-  O563  1  0.59474959  0.90411027  0.69852303  1
  O2-  O564  1  0.82505385  0.17467608  0.05261427  1
  O2-  O565  1  0.84307645  0.16375637  0.33707013  1
  O2-  O566  1  0.84606214  0.16602196  0.70546151  1
  O2-  O567  1  0.84505880  0.43245551  0.02539284  1
  O2-  O568  1  0.84026484  0.41140241  0.34369663  1
  O2-  O569  1  0.84578148  0.41162907  0.70484526  1
  O2-  O570  1  0.86480518  0.69095984  0.03467016  1
  O2-  O571  1  0.85952124  0.66571716  0.36704395  1
  O2-  O572  1  0.86056828  0.67250194  0.68788284  1
  O2-  O573  1  0.81992089  0.91453147  0.04521985  1
  O2-  O574  1  0.77327988  0.93032084  0.35139943  1
  O2-  O575  1  0.85026149  0.90301493  0.68227872  1
