# generated using pymatgen
data_H2O
_symmetry_space_group_name_H-M   'P 1'
_cell_length_a   17.99673050
_cell_length_b   17.99748867
_cell_length_c   22.00167868
_cell_angle_alpha   90.01127613
_cell_angle_beta   89.96840325
_cell_angle_gamma   120.00457375
_symmetry_Int_Tables_number   1
_chemical_formula_structural   H2O
_chemical_formula_sum   'H384 O192'
_cell_volume   6171.23217905
_cell_formula_units_Z   192
loop_
 _symmetry_equiv_pos_site_id
 _symmetry_equiv_pos_as_xyz
  1  'x, y, z'
loop_
 _atom_type_symbol
 _atom_type_oxidation_number
  H+  1.0
  O2-  -2.0
loop_
 _atom_site_type_symbol
 _atom_site_label
 _atom_site_symmetry_multiplicity
 _atom_site_fract_x
 _atom_site_fract_y
 _atom_site_fract_z
 _atom_site_occupancy
  H+  H0  1  0.40282148  0.08431178  0.99656802  1
  H+  H1  1  0.44823483  0.48228642  0.66940416  1
  H+  H2  1  0.09375091  0.63971177  0.33972841  1
  H+  H3  1  0.33615246  0.87222380  0.33578231  1
  H+  H4  1  0.51375060  0.60072242  0.62933306  1
  H+  H5  1  0.06704581  0.36093623  0.66240839  1
  H+  H6  1  -0.02352392  0.12127948  0.18132632  1
  H+  H7  1  0.11192383  0.89749387  0.68003210  1
  H+  H8  1  0.65159283  0.02632786  0.00271855  1
  H+  H9  1  0.47236564  0.86507556  0.16347335  1
  H+  H10  1  0.09590430  0.72257007  0.05062637  1
  H+  H11  1  0.67138785  0.82696407  0.89993216  1
  H+  H12  1  0.36915007  0.48072630  0.32760325  1
  H+  H13  1  0.22229400  0.56322964  0.69823334  1
  H+  H14  1  0.63662322  0.52080779  0.83125222  1
  H+  H15  1  0.64768125  0.02546020  0.34346971  1
  H+  H16  1  0.39818951  0.88015655  0.65385781  1
  H+  H17  1  0.85955741  0.47326582  0.01052774  1
  H+  H18  1  0.86141172  0.22773165  0.65385513  1
  H+  H19  1  0.86277280  0.97509443  0.33471438  1
  H+  H20  1  1.02304013  0.13093421  0.82712985  1
  H+  H21  1  0.26872063  0.62620499  0.00890938  1
  H+  H22  1  0.44824075  0.84757993  0.30876442  1
  H+  H23  1  0.36517755  0.49343343  0.47645597  1
  H+  H24  1  0.06383777  0.40012186  0.76190488  1
  H+  H25  1  0.39504118  0.61176214  0.31682764  1
  H+  H26  1  0.61842368  0.38396894  0.82915873  1
  H+  H27  1  0.73217312  0.58550523  0.64089972  1
  H+  H28  1  0.36484620  0.98053103  0.67943713  1
  H+  H29  1  1.02416386  0.13586092  1.02060841  1
  H+  H30  1  0.60910198  0.38045724  1.00592092  1
  H+  H31  1  0.13320115  0.63353686  0.81968759  1
  H+  H32  1  0.37333606  0.73017742  0.48391819  1
  H+  H33  1  0.35600496  0.86892250  0.01420561  1
  H+  H34  1  0.13156352  0.11471002  0.84348251  1
  H+  H35  1  0.13745413  0.29290499  0.49075264  1
  H+  H36  1  0.35801858  0.16447261  0.01072701  1
  H+  H37  1  0.39198869  -0.00662703  0.99382999  1
  H+  H38  1  0.14385262  0.11768396  0.65202923  1
  H+  H39  1  0.72341925  0.36163351  0.99776637  1
  H+  H40  1  0.88345698  0.11464696  0.65215544  1
  H+  H41  1  0.86069776  0.37479295  0.55095231  1
  H+  H42  1  0.86916640  0.48830211  0.16279862  1
  H+  H43  1  -0.07771290  0.75862686  0.17898122  1
  H+  H44  1  0.86518142  0.39360067  0.83119883  1
  H+  H45  1  0.38496349  0.61413621  0.48973627  1
  H+  H46  1  0.35536863  0.11595138  0.83580210  1
  H+  H47  1  0.40133972  0.01230565  0.51249369  1
  H+  H48  1  0.35464395  0.70908361  0.31949239  1
  H+  H49  1  0.61938335  0.14229251  0.66297373  1
  H+  H50  1  0.87663312  0.62025906  0.66115455  1
  H+  H51  1  0.60838456  0.63184622  0.00751321  1
  H+  H52  1  0.13370888  0.27223041  0.99826801  1
  H+  H53  1  0.85027187  -0.01569787  0.17035781  1
  H+  H54  1  0.71912360  0.86870075  0.17855966  1
  H+  H55  1  0.35638321  -0.03169355  0.82943879  1
  H+  H56  1  0.72759252  0.86736838  0.32908672  1
  H+  H57  1  0.36122600  0.48578157  0.99401213  1
  H+  H58  1  0.22335563  0.10723858  0.84862048  1
  H+  H59  1  0.32949418  0.75685391  0.69132384  1
  H+  H60  1  0.72942680  0.12230637  0.64970595  1
  H+  H61  1  0.27932860  0.42885791  0.67140919  1
  H+  H62  1  0.65546062  0.11676011  1.00680651  1
  H+  H63  1  -0.02053642  0.61469926  0.84350122  1
  H+  H64  1  0.12188997  0.36508873  0.17574716  1
  H+  H65  1  0.22035993  0.36349980  -0.01001833  1
  H+  H66  1  0.35780733  0.13369897  0.16305222  1
  H+  H67  1  0.47368655  0.61095767  0.48681964  1
  H+  H68  1  0.62000245  0.72970541  0.16380589  1
  H+  H69  1  0.97470922  0.11790428  0.33027614  1
  H+  H70  1  0.63986304  0.11242697  0.83224026  1
  H+  H71  1  0.61827055  0.88810022  0.82471998  1
  H+  H72  1  0.86996940  0.89026896  0.48694997  1
  H+  H73  1  0.79934373  0.60789108  0.32544333  1
  H+  H74  1  0.38210183  0.62828385  0.69002323  1
  H+  H75  1  0.87162801  0.15471145  0.81518991  1
  H+  H76  1  0.66569268  0.58048627  0.55402046  1
  H+  H77  1  0.62926266  0.38665023  0.16148348  1
  H+  H78  1  0.39631930  0.09969508  0.52115212  1
  H+  H79  1  0.72773257  0.11673946  0.33876326  1
  H+  H80  1  0.38870100  0.61652416  0.99434184  1
  H+  H81  1  0.64747408  0.86316169  0.49163587  1
  H+  H82  1  0.10689279  0.38228424  0.00926338  1
  H+  H83  1  0.28006389  0.64720892  0.47620571  1
  H+  H84  1  0.60663931  0.88345499  0.16073129  1
  H+  H85  1  0.11382837  0.22924799  0.33166830  1
  H+  H86  1  0.05583382  0.44385932  0.66425690  1
  H+  H87  1  0.35333864  0.20215825  0.84369121  1
  H+  H88  1  0.86255117  0.22928632  0.36608688  1
  H+  H89  1  0.62320834  -0.02001979  0.82053727  1
  H+  H90  1  0.87971186  0.02367895  0.49441120  1
  H+  H91  1  0.20826199  0.51886657  0.68657621  1
  H+  H92  1  0.79724463  0.64713069  0.04670084  1
  H+  H93  1  0.98484633  0.88817543  0.82752602  1
  H+  H94  1  0.06948796  0.58047629  0.64045709  1
  H+  H95  1  0.85917984  0.62942238  0.48717643  1
  H+  H96  1  0.63367958  0.99003384  0.47586243  1
  H+  H97  1  0.38297812  0.37776595  0.99010427  1
  H+  H98  1  0.38178842  0.76253303  -0.00161328  1
  H+  H99  1  0.00097430  0.15368869  0.48429093  1
  H+  H100  1  0.90371229  0.26089712  0.52290613  1
  H+  H101  1  0.36062946  -0.01915271  0.16291433  1
  H+  H102  1  0.11259292  0.51887766  0.32147584  1
  H+  H103  1  0.85479216  0.48171664  0.67726518  1
  H+  H104  1  0.72945506  0.36602673  0.84290447  1
  H+  H105  1  0.39308506  0.25673951  0.65759253  1
  H+  H106  1  0.88570855  0.36353170  -0.00260230  1
  H+  H107  1  0.74716709  0.60520880  0.17818099  1
  H+  H108  1  0.36084562  0.23266670  0.34064885  1
  H+  H109  1  0.61126502  0.22820050  0.82603269  1
  H+  H110  1  0.66912611  0.07797500  0.23409228  1
  H+  H111  1  0.68046887  0.08907235  0.54950620  1
  H+  H112  1  0.53067779  0.38846965  0.82525812  1
  H+  H113  1  0.64086080  0.76964721  0.83837853  1
  H+  H114  1  0.88839999  0.86409286  0.30686102  1
  H+  H115  1  0.62593964  0.25622813  0.66051542  1
  H+  H116  1  0.48123191  0.62248126  0.16694248  1
  H+  H117  1  0.89077440  0.86998404  0.65162459  1
  H+  H118  1  0.78285061  0.68197229  0.69471066  1
  H+  H119  1  0.46025331  0.09871334  0.32993112  1
  H+  H120  1  0.15570816  0.83156265  0.73403096  1
  H+  H121  1  0.64403049  0.37482745  0.32348390  1
  H+  H122  1  0.11213345  0.87457582  0.49152541  1
  H+  H123  1  -0.02911290  0.36494244  0.18241011  1
  H+  H124  1  0.87365338  0.46714245  0.29448451  1
  H+  H125  1  0.27685371  0.39086319  0.32944390  1
  H+  H126  1  0.10889640  0.26088737  0.64698152  1
  H+  H127  1  0.97138985  0.60941672  1.00958239  1
  H+  H128  1  0.99005863  0.63818180  0.15335649  1
  H+  H129  1  0.63902845  0.77170950  -0.00426785  1
  H+  H130  1  0.11232886  0.21887850  0.82666893  1
  H+  H131  1  0.62997224  0.35792050  0.66607586  1
  H+  H132  1  0.26921540  0.39650884  0.47757639  1
  H+  H133  1  0.02822725  0.67537998  0.34280671  1
  H+  H134  1  0.61382230  0.13330126  0.16371134  1
  H+  H135  1  0.87518326  0.03230625  0.83072962  1
  H+  H136  1  0.88907828  0.77379321  0.49651438  1
  H+  H137  1  0.92878699  0.82910742  0.24220154  1
  H+  H138  1  0.35941500  0.72614171  0.84043941  1
  H+  H139  1  0.52434199  0.88159855  1.00574423  1
  H+  H140  1  0.12824403  0.51305940  0.00009812  1
  H+  H141  1  0.10380634  0.37471186  0.81872003  1
  H+  H142  1  0.13365205  0.77289513  0.16888299  1
  H+  H143  1  0.53189346  0.37673287  0.67394117  1
  H+  H144  1  0.36698683  0.49714514  0.82926729  1
  H+  H145  1  0.35228146  0.50615743  0.14900535  1
  H+  H146  1  0.21497631  0.37888394  0.16831667  1
  H+  H147  1  0.76463878  0.96934541  0.77785709  1
  H+  H148  1  0.62499442  0.50931189  -0.01020724  1
  H+  H149  1  0.07726742  0.66905982  0.42997873  1
  H+  H150  1  0.33254532  0.91177991  0.07090326  1
  H+  H151  1  0.72824843  0.11254772  0.17492971  1
  H+  H152  1  0.38369783  0.86848845  0.16338571  1
  H+  H153  1  0.65906060  0.62140494  0.32477680  1
  H+  H154  1  0.08914823  0.15755180  0.48733433  1
  H+  H155  1  0.22192426  0.11266960  0.17895827  1
  H+  H156  1  0.50428356  0.34944477  0.19090270  1
  H+  H157  1  0.61737916  0.22392117  0.16276553  1
  H+  H158  1  0.38866407  0.89240246  0.49193494  1
  H+  H159  1  0.89154007  0.36161261  0.33448823  1
  H+  H160  1  0.77267354  0.14541686  0.46254800  1
  H+  H161  1  1.03296975  0.89048288  0.48853310  1
  H+  H162  1  0.63806912  0.86002148  0.99305846  1
  H+  H163  1  0.21203763  0.61647654  0.16810544  1
  H+  H164  1  0.77845780  0.88464409  0.48578780  1
  H+  H165  1  0.64062011  0.86587649  0.34518187  1
  H+  H166  1  0.09671420  0.06388110  0.47790455  1
  H+  H167  1  0.86557612  0.14646292  0.16677956  1
  H+  H168  1  0.63851636  0.51453518  0.65576848  1
  H+  H169  1  0.14399728  0.76902311  0.85278082  1
  H+  H170  1  0.86269342  -0.02168858  0.65970431  1
  H+  H171  1  0.60890714  0.63235668  0.48401515  1
  H+  H172  1  1.01877981  0.63131704  0.49159849  1
  H+  H173  1  0.22141238  0.35859964  0.84462018  1
  H+  H174  1  0.53946034  0.90551053  0.39018147  1
  H+  H175  1  0.64130421  0.11576282  0.49504804  1
  H+  H176  1  0.53141486  0.39593657  0.34663136  1
  H+  H177  1  0.01630803  0.12621897  0.66615041  1
  H+  H178  1  0.12919641  0.11674032  1.00024702  1
  H+  H179  1  0.88433099  0.00906772  1.00547371  1
  H+  H180  1  0.49579557  0.86233558  0.50461715  1
  H+  H181  1  0.19338538  0.62035294  0.54924135  1
  H+  H182  1  0.59553056  0.12095335  0.34154046  1
  H+  H183  1  0.88134641  0.27720050  0.18025436  1
  H+  H184  1  0.10299580  0.95877167  0.33309303  1
  H+  H185  1  0.12677052  0.89114632  0.16541051  1
  H+  H186  1  0.73129078  0.12079151  0.82621744  1
  H+  H187  1  0.47899263  0.61725782  0.99537666  1
  H+  H188  1  0.13201236  0.60320507  1.00206841  1
  H+  H189  1  0.73219300  0.37551975  0.32025571  1
  H+  H190  1  0.59099813  0.67218283  0.72339455  1
  H+  H191  1  0.11382227  0.14037274  0.16898299  1
  H+  H192  1  0.87650497  0.14581154  1.01162020  1
  H+  H193  1  0.21628674  0.84659084  1.01166508  1
  H+  H194  1  0.88418953  0.51718275  0.51447871  1
  H+  H195  1  0.61163298  0.97470626  0.15861787  1
  H+  H196  1  0.86028493  0.88453794  0.02065937  1
  H+  H197  1  0.39833012  0.31092527  0.79802026  1
  H+  H198  1  0.86488655  0.63569687  0.83477151  1
  H+  H199  1  0.13756600  0.09428217  0.46124532  1
  H+  H200  1  0.88515922  0.11415965  0.34170529  1
  H+  H201  1  0.13222023  0.85502101  1.01012793  1
  H+  H202  1  0.39503428  0.36720768  0.32906898  1
  H+  H203  1  0.52467285  0.63978725  0.81963963  1
  H+  H204  1  0.61123748  0.22138280  0.49732820  1
  H+  H205  1  1.02558041  0.89857480  0.66324814  1
  H+  H206  1  0.12074073  -0.02084305  0.16808107  1
  H+  H207  1  0.12328981  0.76121795  0.51018590  1
  H+  H208  1  0.63340232  0.64851346  0.66859671  1
  H+  H209  1  0.87086666  0.39906113  0.16873831  1
  H+  H210  1  0.11514707  0.23153885  0.16707389  1
  H+  H211  1  0.41991671  0.35691683  0.66043141  1
  H+  H212  1  0.13195601  0.51029705  0.84036717  1
  H+  H213  1  0.86789580  0.24107396  0.82014111  1
  H+  H214  1  0.91516919  0.63050036  0.26625819  1
  H+  H215  1  0.62154044  0.89707488  0.66348472  1
  H+  H216  1  0.13562362  0.62679860  0.49517708  1
  H+  H217  1  0.89784923  0.78586245  0.65911563  1
  H+  H218  1  0.39089104  0.11264847  0.66503897  1
  H+  H219  1  0.62301721  0.48505550  0.34419935  1
  H+  H220  1  0.62512125  0.64288797  0.16260490  1
  H+  H221  1  0.89193535  0.52480937  0.84480029  1
  H+  H222  1  0.88972320  0.27624733  0.99649876  1
  H+  H223  1  0.72332474  0.60785791  0.49347234  1
  H+  H224  1  0.40983320  0.82569752  0.94056371  1
  H+  H225  1  0.10159152  0.47918154  0.16108893  1
  H+  H226  1  0.14078746  0.36463514  0.32759128  1
  H+  H227  1  0.48473889  0.87641576  0.65744232  1
  H+  H228  1  0.84061968  0.18360773  0.72047099  1
  H+  H229  1  0.47288700  0.86557530  0.84338158  1
  H+  H230  1  0.83818818  0.65153518  0.42307858  1
  H+  H231  1  0.38916016  0.35122037  0.12521673  1
  H+  H232  1  0.65501896  0.83354369  0.23546844  1
  H+  H233  1  0.10165002  0.72096374  0.67455496  1
  H+  H234  1  0.27211908  0.88882194  0.16231709  1
  H+  H235  1  0.61183627  0.47273647  0.49220770  1
  H+  H236  1  0.42286253  0.39134847  0.14109030  1
  H+  H237  1  0.89767231  0.78263170  1.01064898  1
  H+  H238  1  0.77262118  0.63042192  0.82985637  1
  H+  H239  1  0.59069375  0.41457170  0.10550420  1
  H+  H240  1  0.77060262  0.88367325  0.01324948  1
  H+  H241  1  0.87435543  0.63798970  0.01703640  1
  H+  H242  1  0.33532324  0.91471523  0.73569037  1
  H+  H243  1  0.61069827  0.63432776  0.81792348  1
  H+  H244  1  0.63980697  0.36453684  0.50919146  1
  H+  H245  1  0.37473946  0.10541427  0.32638733  1
  H+  H246  1  0.49486846  0.35731499  0.50297910  1
  H+  H247  1  0.29007768  0.11173375  0.50162563  1
  H+  H248  1  0.52088508  0.38392751  1.00800808  1
  H+  H249  1  0.40192074  0.25765086  0.50341743  1
  H+  H250  1  0.53764052  0.12667591  1.00787593  1
  H+  H251  1  0.52638527  0.13867489  0.66926841  1
  H+  H252  1  0.75978086  0.89716315  0.81858166  1
  H+  H253  1  0.26795639  0.87914595  0.83753530  1
  H+  H254  1  0.64187438  0.77998294  0.64899818  1
  H+  H255  1  0.65311778  0.57621691  0.89089437  1
  H+  H256  1  0.82752514  0.92132826  0.71920079  1
  H+  H257  1  0.97721233  0.85865195  0.31738796  1
  H+  H258  1  0.11458070  0.48866959  0.49346099  1
  H+  H259  1  0.47476986  0.11376682  0.17579979  1
  H+  H260  1  0.78433037  0.13920118  0.01384212  1
  H+  H261  1  0.22693841  0.86617642  0.68393981  1
  H+  H262  1  0.52602533  0.12882340  0.50325269  1
  H+  H263  1  0.39006867  0.62218923  0.84171537  1
  H+  H264  1  0.26032645  0.39639540  0.69673216  1
  H+  H265  1  0.35267561  0.24780397  1.00933697  1
  H+  H266  1  0.83293744  0.41669514  0.07043614  1
  H+  H267  1  0.73312620  0.36305993  0.17370358  1
  H+  H268  1  0.35813699  0.64281356  0.16119844  1
  H+  H269  1  0.12240326  0.61505985  0.16128189  1
  H+  H270  1  0.73002691  0.86812570  0.64578533  1
  H+  H271  1  0.95269748  0.35193640  0.62774976  1
  H+  H272  1  0.02222979  0.37585172  0.34273121  1
  H+  H273  1  0.77455369  0.38812248  0.67971035  1
  H+  H274  1  0.27189707  0.13272723  0.67548555  1
  H+  H275  1  0.61841246  0.72764083  0.33350908  1
  H+  H276  1  0.86908589  0.10686497  0.48807671  1
  H+  H277  1  0.17037179  0.00139422  0.51140158  1
  H+  H278  1  0.21718217  0.10926733  0.32529483  1
  H+  H279  1  0.22057160  0.12296430  -0.00299590  1
  H+  H280  1  0.12748254  0.10653352  0.32672498  1
  H+  H281  1  -0.00048864  0.85894082  0.17300438  1
  H+  H282  1  0.97555413  0.36649895  0.84140550  1
  H+  H283  1  0.38801788  0.59502406  0.67349038  1
  H+  H284  1  0.72604620  0.35781720  0.52106539  1
  H+  H285  1  0.38222881  0.86243748  0.84376229  1
  H+  H286  1  0.35420950  0.72897104  0.15530455  1
  H+  H287  1  0.98166247  0.87286844  1.00571564  1
  H+  H288  1  0.58689326  0.66374186  0.38937254  1
  H+  H289  1  0.32647624  0.65870122  0.06909797  1
  H+  H290  1  0.16408684  0.81877937  0.91563773  1
  H+  H291  1  0.83928351  0.17527310  0.10551441  1
  H+  H292  1  0.15546228  0.56660967  0.90240943  1
  H+  H293  1  0.03502272  0.39267803  0.50599897  1
  H+  H294  1  0.34148855  0.41470191  0.14494868  1
  H+  H295  1  0.67121148  0.33511855  0.23218093  1
  H+  H296  1  0.58706791  0.41437064  0.43255363  1
  H+  H297  1  0.41170103  0.34105517  0.93383599  1
  H+  H298  1  0.38794428  0.37998491  0.83143722  1
  H+  H299  1  0.16214942  0.09061272  0.91340239  1
  H+  H300  1  0.32331176  0.43297041  0.05466108  1
  H+  H301  1  0.47518253  0.10868572  0.83685019  1
  H+  H302  1  0.15903968  0.07887773  0.23692029  1
  H+  H303  1  0.43755099  0.32910409  0.28108633  1
  H+  H304  1  0.18562185  0.70545915  0.77293268  1
  H+  H305  1  0.09150283  0.92275090  0.07437118  1
  H+  H306  1  0.89691180  0.83207402  0.91039380  1
  H+  H307  1  0.42403482  0.59235745  0.89910400  1
  H+  H308  1  0.31135463  0.17309914  0.39592648  1
  H+  H309  1  0.42223590  0.07713131  0.60792375  1
  H+  H310  1  0.04554707  0.91741722  0.76997315  1
  H+  H311  1  0.61185665  0.72273342  0.48400297  1
  H+  H312  1  0.07319741  0.53701717  0.57830726  1
  H+  H313  1  0.58722485  0.66588704  0.06903133  1
  H+  H314  1  0.20035486  0.06576897  0.57012288  1
  H+  H315  1  0.84259850  0.67872862  0.74502817  1
  H+  H316  1  0.33225320  0.42560413  0.41324363  1
  H+  H317  1  0.66768822  0.33250583  0.90149877  1
  H+  H318  1  0.07587153  0.89862723  0.39036745  1
  H+  H319  1  0.91046976  0.32129601  0.27736584  1
  H+  H320  1  0.59647014  0.92610841  0.72573930  1
  H+  H321  1  0.92649529  0.58812011  0.94285021  1
  H+  H322  1  0.14882917  0.38552672  0.49691435  1
  H+  H323  1  0.30451129  0.43733948  0.77564021  1
  H+  H324  1  0.91630628  0.33694897  0.90163858  1
  H+  H325  1  0.41186773  0.08210558  0.23411326  1
  H+  H326  1  0.17154893  0.82882383  0.23168421  1
  H+  H327  1  0.42246627  0.58985828  0.22644205  1
  H+  H328  1  0.07532733  0.65225129  0.72540298  1
  H+  H329  1  0.43141549  0.31756758  0.56783320  1
  H+  H330  1  0.08801142  0.17109199  0.07771346  1
  H+  H331  1  0.16753429  0.33896098  0.26496317  1
  H+  H332  1  0.27275755  0.63268863  0.83889977  1
  H+  H333  1  0.44031133  0.55427750  0.57981182  1
  H+  H334  1  0.07695592  0.15714503  0.72485747  1
  H+  H335  1  0.58872339  0.16592139  0.07006906  1
  H+  H336  1  0.90844577  0.58574473  0.56624033  1
  H+  H337  1  0.11712857  0.97837291  0.01308223  1
  H+  H338  1  0.36652349  0.13910438  0.44715165  1
  H+  H339  1  0.91716472  0.83088354  0.55727015  1
  H+  H340  1  0.08394764  0.41590459  0.39940649  1
  H+  H341  1  0.41068991  0.44568627  0.73580675  1
  H+  H342  1  0.89961699  0.08771715  0.89169906  1
  H+  H343  1  0.56714068  0.14923940  0.40099239  1
  H+  H344  1  0.65776282  0.32861490  0.59911285  1
  H+  H345  1  0.91514361  0.09454568  0.23993762  1
  H+  H346  1  0.71145957  0.59598132  0.97496008  1
  H+  H347  1  0.86212293  0.48787255  0.36010602  1
  H+  H348  1  0.65401222  0.52287922  0.17302404  1
  H+  H349  1  0.96176999  0.61503333  0.65913041  1
  H+  H350  1  0.59031262  0.41089137  0.73469664  1
  H+  H351  1  0.87980982  0.65419081  0.11702638  1
  H+  H352  1  0.82220591  0.92192059  0.11339207  1
  H+  H353  1  0.58383552  0.17178871  0.76538685  1
  H+  H354  1  0.34441799  0.96402357  0.33976422  1
  H+  H355  1  0.90885952  0.08476085  0.59139693  1
  H+  H356  1  0.13291225  0.57687104  0.26231168  1
  H+  H357  1  0.48506817  0.61043415  0.31619327  1
  H+  H358  1  0.34246515  0.66275651  0.38262885  1
  H+  H359  1  0.41220179  0.26209848  0.19228432  1
  H+  H360  1  0.66869473  0.83227484  0.55411208  1
  H+  H361  1  0.95210719  0.05133205  0.95324169  1
  H+  H362  1  0.42192166  0.06872398  0.89848956  1
  H+  H363  1  0.68270035  0.58463047  0.26711447  1
  H+  H364  1  0.39479435  0.82227285  0.24910444  1
  H+  H365  1  0.07625562  0.17581288  0.39251676  1
  H+  H366  1  0.83496467  0.42538668  0.77245950  1
  H+  H367  1  0.14344379  0.32672112  0.59101937  1
  H+  H368  1  0.13493710  0.81356192  0.57070881  1
  H+  H369  1  0.14136002  0.02856733  0.65936286  1
  H+  H370  1  0.58367748  0.91144797  0.06425303  1
  H+  H371  1  0.32875674  0.15687094  0.73671325  1
  H+  H372  1  0.64194932  0.03326078  0.64950240  1
  H+  H373  1  0.15676015  0.32418915  0.90044775  1
  H+  H374  1  0.83744374  0.91208514  0.39077428  1
  H+  H375  1  0.30968796  0.69950040  0.74919054  1
  H+  H376  1  0.07189336  0.41406044  0.10501137  1
  H+  H377  1  0.32770906  0.17528270  0.11036133  1
  H+  H378  1  0.34988764  0.92173227  0.43704388  1
  H+  H379  1  0.43399505  0.83593004  0.56330768  1
  H+  H380  1  0.85123991  0.37918879  0.48067227  1
  H+  H381  1  0.63673607  0.27112560  0.99643725  1
  H+  H382  1  0.01859583  0.38439485  0.00867109  1
  H+  H383  1  0.86625052  0.77074351  0.85367912  1
  O2-  O384  1  0.08404025  0.17076438  0.15253802  1
  O2-  O385  1  0.06261058  0.18879686  0.47011572  1
  O2-  O386  1  0.08389743  0.15752903  0.81313870  1
  O2-  O387  1  0.07147639  0.41635585  0.15033849  1
  O2-  O388  1  0.08687698  0.42734028  0.48082672  1
  O2-  O389  1  0.07541263  0.40762526  0.80660302  1
  O2-  O390  1  0.06358604  0.66795296  0.13305203  1
  O2-  O391  1  0.07908507  0.66326570  0.47708556  1
  O2-  O392  1  0.13006973  0.67872644  0.79488412  1
  O2-  O393  1  0.09443500  0.91987633  0.15024525  1
  O2-  O394  1  0.09252034  0.91370950  0.47365235  1
  O2-  O395  1  0.04561634  0.91961968  0.81443070  1
  O2-  O396  1  0.32826838  0.16752445  0.15467353  1
  O2-  O397  1  0.34930688  0.16198989  0.48114976  1
  O2-  O398  1  0.32229754  0.14615892  0.82370044  1
  O2-  O399  1  0.31344942  0.44653237  0.13148558  1
  O2-  O400  1  0.33116083  0.42857198  0.46070457  1
  O2-  O401  1  0.33510046  0.43547804  0.81192095  1
  O2-  O402  1  0.32270664  0.66639780  0.14444200  1
  O2-  O403  1  0.34140505  0.67151948  0.46548621  1
  O2-  O404  1  0.33316096  0.66629436  0.82423857  1
  O2-  O405  1  0.33243564  0.92094915  0.14623705  1
  O2-  O406  1  0.36477643  0.92965269  0.48114089  1
  O2-  O407  1  0.32528019  0.90743208  0.81584593  1
  O2-  O408  1  0.58385695  0.16332473  0.14768084  1
  O2-  O409  1  0.58396438  0.16143883  0.48292932  1
  O2-  O410  1  0.57803526  0.16825707  0.81013712  1
  O2-  O411  1  0.59888837  0.41934160  0.15008257  1
  O2-  O412  1  0.58408265  0.41064793  0.47927359  1
  O2-  O413  1  0.59015171  0.41490669  0.80985847  1
  O2-  O414  1  0.59243412  0.66965684  0.14690369  1
  O2-  O415  1  0.57892764  0.66240833  0.46840940  1
  O2-  O416  1  0.58404481  0.66783003  0.80261013  1
  O2-  O417  1  0.57872808  0.91474674  0.14264421  1
  O2-  O418  1  0.60474337  0.92677518  0.46331449  1
  O2-  O419  1  0.59074585  0.91843106  0.80591263  1
  O2-  O420  1  0.83346712  0.17469833  0.15077249  1
  O2-  O421  1  0.83468467  0.17571873  0.44911637  1
  O2-  O422  1  0.84221653  0.18437662  0.79861238  1
  O2-  O423  1  0.84065567  0.42717266  0.14965621  1
  O2-  O424  1  0.83674662  0.39624837  0.51897577  1
  O2-  O425  1  0.83542279  0.42563026  0.81844218  1
  O2-  O426  1  0.87457678  0.65041103  0.16228530  1
  O2-  O427  1  0.83082691  0.65848214  0.46687753  1
  O2-  O428  1  0.83417374  0.66392497  0.81740273  1
  O2-  O429  1  0.81596918  0.92333500  0.15804360  1
  O2-  O430  1  0.83897691  0.91961457  0.47110877  1
  O2-  O431  1  0.80113402  0.94705306  0.79211878  1
  O2-  O432  1  0.16005910  0.08140004  0.19100313  1
  O2-  O433  1  0.22086042  0.04828486  0.53372849  1
  O2-  O434  1  0.16464907  0.08967961  0.86595221  1
  O2-  O435  1  0.15867740  0.33980832  0.18772756  1
  O2-  O436  1  0.17819437  0.35170663  0.50611774  1
  O2-  O437  1  0.15997243  0.32320481  0.85476248  1
  O2-  O438  1  0.15017940  0.58429682  0.17930739  1
  O2-  O439  1  0.17123755  0.59852213  0.50874610  1
  O2-  O440  1  0.16225049  0.56962580  0.85739630  1
  O2-  O441  1  0.16888591  0.83183567  0.18546230  1
  O2-  O442  1  0.14855999  0.82028849  0.52763866  1
  O2-  O443  1  0.17278296  0.82652954  0.87114860  1
  O2-  O444  1  0.41330172  0.08497525  0.18835127  1
  O2-  O445  1  0.42925217  0.07252300  0.53449399  1
  O2-  O446  1  0.41548698  0.07557418  0.85407860  1
  O2-  O447  1  0.45869989  0.30621561  0.21759987  1
  O2-  O448  1  0.43271959  0.31890321  0.52074968  1
  O2-  O449  1  0.41261856  0.34143532  0.83685764  1
  O2-  O450  1  0.42053699  0.59667195  0.18094305  1
  O2-  O451  1  0.41198325  0.57827304  0.50033861  1
  O2-  O452  1  0.42150572  0.59061890  0.85347978  1
  O2-  O453  1  0.41045699  0.83338104  0.17602109  1
  O2-  O454  1  0.43542119  0.83035991  0.51779433  1
  O2-  O455  1  0.41420634  0.83443041  0.86066903  1
  O2-  O456  1  0.66712113  0.07897179  0.18915311  1
  O2-  O457  1  0.67775506  0.08869294  0.50422292  1
  O2-  O458  1  0.67197637  0.08238352  0.84050222  1
  O2-  O459  1  0.67170667  0.33003028  0.18603902  1
  O2-  O460  1  0.66354551  0.33141806  0.53049099  1
  O2-  O461  1  0.66767229  0.33395711  0.85592830  1
  O2-  O462  1  0.68619769  0.58429878  0.18732830  1
  O2-  O463  1  0.66275028  0.57780440  0.50902269  1
  O2-  O464  1  0.66276488  0.58125415  0.84616796  1
  O2-  O465  1  0.65585531  0.83130639  0.19048851  1
  O2-  O466  1  0.67133878  0.82840203  0.50862258  1
  O2-  O467  1  0.67104405  0.82940686  0.85450712  1
  O2-  O468  1  0.91556379  0.09527510  0.19460767  1
  O2-  O469  1  0.90259944  0.08438847  0.50891952  1
  O2-  O470  1  0.91545301  0.09039878  0.84882077  1
  O2-  O471  1  0.91110981  0.33573337  0.19936189  1
  O2-  O472  1  0.95007360  0.30411692  0.54864180  1
  O2-  O473  1  0.91495115  0.33879633  0.85611232  1
  O2-  O474  1  0.92062378  0.60477114  0.18157558  1
  O2-  O475  1  0.91021343  0.57953443  0.52105115  1
  O2-  O476  1  0.92247631  0.58544964  0.86196333  1
  O2-  O477  1  0.93783074  0.81935788  0.18681110  1
  O2-  O478  1  0.91814306  0.83353441  0.51192281  1
  O2-  O479  1  0.88118747  0.82884561  0.86705776  1
  O2-  O480  1  0.15641393  0.07523476  0.31159573  1
  O2-  O481  1  0.17804830  0.08915490  0.64320011  1
  O2-  O482  1  0.16068377  0.08895598  0.98117415  1
  O2-  O483  1  0.17218369  0.33625567  0.31028123  1
  O2-  O484  1  0.11938988  0.31731804  0.63227634  1
  O2-  O485  1  0.15854529  0.32946741  0.97792949  1
  O2-  O486  1  0.11960572  0.57336563  0.30609618  1
  O2-  O487  1  0.06327603  0.52733831  0.62181253  1
  O2-  O488  1  0.15945041  0.57369330  0.98326125  1
  O2-  O489  1  0.19008142  0.84204604  0.30365151  1
  O2-  O490  1  0.16240187  0.83437347  0.68984783  1
  O2-  O491  1  0.15383239  0.81451603  1.00198485  1
  O2-  O492  1  0.40096839  0.07232631  0.31104787  1
  O2-  O493  1  0.42468990  0.08449891  0.65370992  1
  O2-  O494  1  0.42826973  0.05427377  0.97652573  1
  O2-  O495  1  0.42679759  0.33533441  0.32598675  1
  O2-  O496  1  0.43154320  0.31438216  0.63849219  1
  O2-  O497  1  0.41149163  0.34335745  0.97834536  1
  O2-  O498  1  0.42451494  0.57915174  0.30118519  1
  O2-  O499  1  0.47498153  0.54478131  0.60999262  1
  O2-  O500  1  0.42047073  0.58889960  0.97639963  1
  O2-  O501  1  0.38907512  0.81642023  0.29489517  1
  O2-  O502  1  0.42561660  0.84686751  0.64009912  1
  O2-  O503  1  0.41145007  0.82430810  0.98589783  1
  O2-  O504  1  0.67119710  0.07915544  0.31992462  1
  O2-  O505  1  0.66951869  0.09334899  0.63316986  1
  O2-  O506  1  0.68909743  0.08872111  0.99617082  1
  O2-  O507  1  0.67333662  0.34645404  0.30443883  1
  O2-  O508  1  0.65731006  0.32389931  0.64627726  1
  O2-  O509  1  0.66367852  0.33165589  0.98092910  1
  O2-  O510  1  0.68671048  0.58747233  0.31244590  1
  O2-  O511  1  0.67283132  0.57291299  0.63758424  1
  O2-  O512  1  0.64940355  0.56861054  0.97079898  1
  O2-  O513  1  0.66452780  0.83814734  0.31944499  1
  O2-  O514  1  0.66905954  0.83918069  0.63155376  1
  O2-  O515  1  0.67079225  0.83123019  0.97923379  1
  O2-  O516  1  0.91209805  0.08625624  0.31917932  1
  O2-  O517  1  0.91126941  0.08219471  0.63647940  1
  O2-  O518  1  0.92429546  0.06704349  0.98471882  1
  O2-  O519  1  0.91232236  0.32200158  0.32311513  1
  O2-  O520  1  0.90334115  0.32064941  0.59738070  1
  O2-  O521  1  0.91827817  0.33663322  0.98039672  1
  O2-  O522  1  0.92357587  0.66013334  0.30627663  1
  O2-  O523  1  0.90102448  0.58634532  0.64385619  1
  O2-  O524  1  0.91586037  0.58264710  0.98758219  1
  O2-  O525  1  0.91922543  0.83346440  0.29442142  1
  O2-  O526  1  0.92253995  0.84087276  0.63665310  1
  O2-  O527  1  0.91937774  0.84117268  0.99452698  1
  O2-  O528  1  0.08608525  0.16957803  0.03156657  1
  O2-  O529  1  0.08000981  0.16917031  0.34783275  1
  O2-  O530  1  0.07735861  0.15710151  0.67995667  1
  O2-  O531  1  0.07877777  0.41399003  0.02544229  1
  O2-  O532  1  0.08386557  0.40961540  0.35462465  1
  O2-  O533  1  0.03206320  0.38486237  0.68112391  1
  O2-  O534  1  0.05936680  0.66188408  0.06523636  1
  O2-  O535  1  0.07853412  0.67839502  0.36269319  1
  O2-  O536  1  0.06366984  0.65848533  0.68186942  1
  O2-  O537  1  0.08743687  0.91896964  0.02869444  1
  O2-  O538  1  0.06670521  0.89840310  0.34585685  1
  O2-  O539  1  0.08272556  0.93165600  0.68349255  1
  O2-  O540  1  0.32236949  0.18709926  0.02565529  1
  O2-  O541  1  0.32215990  0.17038529  0.35257831  1
  O2-  O542  1  0.33290638  0.16043678  0.69193329  1
  O2-  O543  1  0.32806823  0.42502900  0.01005769  1
  O2-  O544  1  0.33729207  0.42093781  0.34581969  1
  O2-  O545  1  0.44397220  0.44134085  0.70240483  1
  O2-  O546  1  0.32926524  0.65697329  0.02326701  1
  O2-  O547  1  0.34194375  0.65385708  0.33828488  1
  O2-  O548  1  0.28315199  0.72085798  0.71998928  1
  O2-  O549  1  0.32892774  0.90427731  0.02537760  1
  O2-  O550  1  0.32114963  0.90806657  0.36123941  1
  O2-  O551  1  0.33339362  0.91831684  0.69043013  1
  O2-  O552  1  0.59444976  0.16854566  0.02447028  1
  O2-  O553  1  0.55711240  0.14096556  0.35677766  1
  O2-  O554  1  0.58979715  0.17326453  0.68031326  1
  O2-  O555  1  0.58175403  0.41412061  0.02108939  1
  O2-  O556  1  0.59243090  0.42542555  0.36127550  1
  O2-  O557  1  0.59251688  0.40887139  0.68870794  1
  O2-  O558  1  0.58214977  0.66491247  0.02350699  1
  O2-  O559  1  0.59168550  0.66551742  0.34408068  1
  O2-  O560  1  0.60019835  0.67694232  0.67828337  1
  O2-  O561  1  0.58547814  0.91092931  0.01878232  1
  O2-  O562  1  0.60138399  0.92858188  0.39582094  1
  O2-  O563  1  0.59547621  0.93032392  0.68033155  1
  O2-  O564  1  0.84771895  0.17621401  0.02653142  1
  O2-  O565  1  0.83111242  0.16804907  0.38164323  1
  O2-  O566  1  0.83430487  0.17220087  0.67552917  1
  O2-  O567  1  0.82914988  0.41277515  0.02502878  1
  O2-  O568  1  0.85447652  0.44018511  0.33425348  1
  O2-  O569  1  0.83173818  0.42465984  0.69690238  1
  O2-  O570  1  0.85930776  0.67560121  0.04234553  1
  O2-  O571  1  0.84759211  0.60314778  0.34390464  1
  O2-  O572  1  0.83820971  0.68490922  0.69915044  1
  O2-  O573  1  0.82908311  0.91573533  0.03220778  1
  O2-  O574  1  0.83416308  0.91288376  0.34537647  1
  O2-  O575  1  0.83385640  0.91734389  0.67459816  1
