# generated using pymatgen
data_H2O
_symmetry_space_group_name_H-M   'P 1'
_cell_length_a   17.98172422
_cell_length_b   17.98656028
_cell_length_c   22.00541735
_cell_angle_alpha   90.00379297
_cell_angle_beta   90.02949592
_cell_angle_gamma   119.96532618
_symmetry_Int_Tables_number   1
_chemical_formula_structural   H2O
_chemical_formula_sum   'H384 O192'
_cell_volume   6165.82563471
_cell_formula_units_Z   192
loop_
 _symmetry_equiv_pos_site_id
 _symmetry_equiv_pos_as_xyz
  1  'x, y, z'
loop_
 _atom_type_symbol
 _atom_type_oxidation_number
  H+  1.0
  O2-  -2.0
loop_
 _atom_site_type_symbol
 _atom_site_label
 _atom_site_symmetry_multiplicity
 _atom_site_fract_x
 _atom_site_fract_y
 _atom_site_fract_z
 _atom_site_occupancy
  H+  H0  1  0.87667708  0.11847746  0.65839137  1
  H+  H1  1  0.86592978  0.62916144  0.82538286  1
  H+  H2  1  0.13988620  0.27425340  0.49667994  1
  H+  H3  1  0.61393178  0.97542695  0.34995417  1
  H+  H4  1  0.63656692  0.86885458  0.50429470  1
  H+  H5  1  0.04514157  0.65298203  0.34914985  1
  H+  H6  1  0.22630041  0.61789107  0.83894344  1
  H+  H7  1  0.85969634  0.63752202  0.34758252  1
  H+  H8  1  0.38351689  0.39160779  0.66849998  1
  H+  H9  1  0.10405522  0.72153512  0.82200442  1
  H+  H10  1  0.57400816  0.45555155  0.16346205  1
  H+  H11  1  0.37761126  0.64212571  0.15759088  1
  H+  H12  1  0.63292041  0.27604591  0.83258941  1
  H+  H13  1  0.33435422  0.87037067  0.81938034  1
  H+  H14  1  0.84480010  0.73906870  0.84350053  1
  H+  H15  1  0.15175827  0.39611443  0.63402916  1
  H+  H16  1  0.27251076  0.12711983  0.99275004  1
  H+  H17  1  0.89107748  0.36805205  -0.01545554  1
  H+  H18  1  0.64382579  0.11632713  0.33494295  1
  H+  H19  1  0.27465811  0.35671643  0.34793628  1
  H+  H20  1  0.52495559  0.12720879  0.14813925  1
  H+  H21  1  0.73162053  0.87577520  0.64882082  1
  H+  H22  1  0.63565759  0.51691229  0.83244924  1
  H+  H23  1  0.78188673  0.62955955  0.66729161  1
  H+  H24  1  0.52627533  0.38745683  0.66764640  1
  H+  H25  1  0.12155574  0.41330944  0.63824351  1
  H+  H26  1  0.86925582  0.64032397  1.00074563  1
  H+  H27  1  0.51667940  0.57166208  0.77977704  1
  H+  H28  1  0.89348278  0.75873410  0.65522586  1
  H+  H29  1  0.13315537  1.03117359  -0.02014219  1
  H+  H30  1  0.13980871  0.37473782  1.01175313  1
  H+  H31  1  0.79377912  0.68419885  0.15109761  1
  H+  H32  1  0.13553281  0.38185838  0.83020380  1
  H+  H33  1  0.09825958  0.16691481  0.10531621  1
  H+  H34  1  0.18386554  0.06139681  0.35662542  1
  H+  H35  1  0.61071727  0.38716762  0.82044952  1
  H+  H36  1  0.36306506  0.39490096  0.49637441  1
  H+  H37  1  0.88149019  0.02955448  0.99785347  1
  H+  H38  1  0.27347143  0.39434152  0.49109288  1
  H+  H39  1  1.02684447  0.14294533  1.01357257  1
  H+  H40  1  0.74099747  0.11645836  0.17431527  1
  H+  H41  1  0.12883619  0.89628494  0.14895326  1
  H+  H42  1  0.01902250  0.13240799  0.49573502  1
  H+  H43  1  0.88720637  0.12148500  0.99987201  1
  H+  H44  1  0.61281111  -0.02349452  0.49820089  1
  H+  H45  1  0.91968534  0.58067993  0.93530663  1
  H+  H46  1  0.28429673  0.90064995  0.35079651  1
  H+  H47  1  0.40852513  0.37103338  0.33432768  1
  H+  H48  1  0.72300022  0.11747814  0.66438625  1
  H+  H49  1  0.77993993  0.74171067  0.88963737  1
  H+  H50  1  0.96150482  0.08748675  0.34274557  1
  H+  H51  1  0.51664709  0.14585137  0.98362618  1
  H+  H52  1  0.42847525  0.90214180  0.00522950  1
  H+  H53  1  0.63526305  0.31462137  0.20033939  1
  H+  H54  1  0.27415869  0.90618407  -0.01383111  1
  H+  H55  1  0.14144712  0.52585280  0.84298917  1
  H+  H56  1  0.65155437  0.61626937  0.65941938  1
  H+  H57  1  0.63021411  0.23381197  0.37088962  1
  H+  H58  1  0.10717814  0.50650552  0.15040979  1
  H+  H59  1  0.41790486  0.84067255  0.27720452  1
  H+  H60  1  0.37540932  -0.01247129  0.35538836  1
  H+  H61  1  0.13743201  1.01832178  0.65752720  1
  H+  H62  1  0.90967433  0.53495276  0.33843254  1
  H+  H63  1  0.88301104  0.11368466  0.49968604  1
  H+  H64  1  0.35863276  0.14089964  0.50998559  1
  H+  H65  1  0.65559846  0.32322847  0.58225275  1
  H+  H66  1  0.12998177  0.24914099  0.80701941  1
  H+  H67  1  0.47963539  0.11965592  0.86913662  1
  H+  H68  1  -0.03036369  0.35774897  0.51102239  1
  H+  H69  1  0.62785279  0.28890367  0.97965265  1
  H+  H70  1  0.92768573  0.05645859  0.85158841  1
  H+  H71  1  0.52604042  0.64209479  0.00862660  1
  H+  H72  1  0.62923253  -0.01505896  0.81602156  1
  H+  H73  1  0.71978277  0.61051624  0.32684261  1
  H+  H74  1  0.37305258  0.39909486  0.82033463  1
  H+  H75  1  0.91584578  0.33499544  0.60777948  1
  H+  H76  1  0.62177320  0.65959734  0.00152797  1
  H+  H77  1  0.87599982  0.02957961  0.65664607  1
  H+  H78  1  0.81216070  0.84229069  0.82921281  1
  H+  H79  1  0.31345509  0.86362919  0.66271315  1
  H+  H80  1  0.13911921  0.66927001  0.18712792  1
  H+  H81  1  0.11079107  0.63551076  0.82871284  1
  H+  H82  1  0.62087635  0.71395247  0.32575377  1
  H+  H83  1  0.28546913  0.40187433  0.80871842  1
  H+  H84  1  0.01304480  0.89871442  -0.00416562  1
  H+  H85  1  0.88648038  1.03256265  0.16368032  1
  H+  H86  1  0.28686294  0.64228625  0.51147762  1
  H+  H87  1  0.97181418  0.59429492  0.99863463  1
  H+  H88  1  0.09700873  0.84989928  0.97386836  1
  H+  H89  1  0.84003318  0.88441664  0.00321243  1
  H+  H90  1  0.40702516  0.02409211  0.16168746  1
  H+  H91  1  0.88991196  0.51504673  0.65552126  1
  H+  H92  1  0.02802948  0.39352491  0.00012219  1
  H+  H93  1  0.41901802  0.33510042  0.59675301  1
  H+  H94  1  0.99074274  0.87508946  0.17136207  1
  H+  H95  1  0.10059017  0.49409992  0.70022955  1
  H+  H96  1  0.82169355  0.41781631  0.20896913  1
  H+  H97  1  0.00093395  0.68377834  0.12530856  1
  H+  H98  1  0.38324366  0.26339251  0.98221602  1
  H+  H99  1  0.35992501  0.23006388  0.80765216  1
  H+  H100  1  0.62178183  0.89761388  0.66150994  1
  H+  H101  1  0.16510851  0.24246119  0.19781664  1
  H+  H102  1  0.52768560  0.64314113  0.48907801  1
  H+  H103  1  0.59129389  0.67268821  0.71962078  1
  H+  H104  1  0.08418061  0.92001455  0.76233466  1
  H+  H105  1  0.64662322  0.62838361  0.50942021  1
  H+  H106  1  0.14003501  0.86529027  0.32402392  1
  H+  H107  1  0.28270377  0.64256041  1.00624681  1
  H+  H108  1  0.41561425  0.58419085  0.93690807  1
  H+  H109  1  0.87938320  0.09922933  0.33866937  1
  H+  H110  1  0.11553007  0.23226326  0.01589311  1
  H+  H111  1  0.61741619  0.47709095  0.66846522  1
  H+  H112  1  0.00977823  0.42869368  0.14318100  1
  H+  H113  1  0.13819199  0.12277795  0.82716643  1
  H+  H114  1  0.60512373  -0.06884534  0.73114453  1
  H+  H115  1  0.85383121  0.38047827  0.67364678  1
  H+  H116  1  0.88738408  0.86452627  0.50501434  1
  H+  H117  1  0.34615113  0.20036073  0.14709848  1
  H+  H118  1  0.61449255  0.88689010  0.81288864  1
  H+  H119  1  0.31096505  0.65606784  0.76465763  1
  H+  H120  1  0.77227903  0.13860362  0.49276641  1
  H+  H121  1  0.49876548  0.83287178  0.96736777  1
  H+  H122  1  0.72632700  0.86658575  0.50256891  1
  H+  H123  1  0.24210343  0.59378356  0.17631986  1
  H+  H124  1  0.46568580  0.61451188  0.84307114  1
  H+  H125  1  0.39926278  0.10876035  0.15508959  1
  H+  H126  1  0.00583655  0.86773232  0.34446231  1
  H+  H127  1  0.10592086  0.68007751  0.40523261  1
  H+  H128  1  0.73490221  0.62690266  0.50994701  1
  H+  H129  1  0.89468484  0.27428136  0.16488745  1
  H+  H130  1  0.88858856  0.39541863  0.33193453  1
  H+  H131  1  0.38081412  0.52574029  0.83889868  1
  H+  H132  1  0.88802619  0.27117505  0.32147883  1
  H+  H133  1  0.40044817  0.53244952  0.17211451  1
  H+  H134  1  0.87493466  0.14406670  0.15546260  1
  H+  H135  1  0.38882738  0.35413183  -0.01229306  1
  H+  H136  1  0.26018456  0.90221651  1.01888291  1
  H+  H137  1  0.27608005  0.41555207  0.14827989  1
  H+  H138  1  1.03243089  0.87564330  0.66656774  1
  H+  H139  1  0.10191216  0.34425796  0.16164462  1
  H+  H140  1  0.49207105  0.61435943  0.64601131  1
  H+  H141  1  0.46854889  0.36257979  0.50756055  1
  H+  H142  1  0.63061147  0.35860444  0.66927089  1
  H+  H143  1  0.60456297  0.61214417  0.81492200  1
  H+  H144  1  0.58921580  0.74643531  0.83336376  1
  H+  H145  1  0.37532858  0.27700493  0.50931042  1
  H+  H146  1  0.85900472  0.38570838  0.82369635  1
  H+  H147  1  0.62317191  0.47933584  0.35141497  1
  H+  H148  1  0.49050266  0.62319330  0.17123086  1
  H+  H149  1  0.37489303  0.48102101  0.00740697  1
  H+  H150  1  0.15057511  0.61851780  0.32973794  1
  H+  H151  1  0.13061793  0.35126005  0.13489049  1
  H+  H152  1  0.86339500  0.90164342  0.15924217  1
  H+  H153  1  0.65707643  0.38000215  0.37587711  1
  H+  H154  1  0.29581452  0.89138322  0.15235095  1
  H+  H155  1  0.39268447  0.27128411  0.65374391  1
  H+  H156  1  0.14344367  0.79568790  0.98173700  1
  H+  H157  1  0.59372292  0.37201606  0.50547434  1
  H+  H158  1  0.07662431  0.40416019  0.87745607  1
  H+  H159  1  0.48723311  0.11589649  0.34493888  1
  H+  H160  1  0.14271729  0.52590985  0.33327161  1
  H+  H161  1  0.71427697  0.35224231  0.52272721  1
  H+  H162  1  0.87878602  0.35348271  0.16932391  1
  H+  H163  1  0.29652869  0.16129775  0.34551295  1
  H+  H164  1  0.11384538  0.98112041  0.82039618  1
  H+  H165  1  0.88427244  0.78000024  -0.00196473  1
  H+  H166  1  -0.01993693  0.11744940  0.16535589  1
  H+  H167  1  0.12287111  0.00464370  0.19057705  1
  H+  H168  1  0.64084830  0.76570791  0.20810220  1
  H+  H169  1  0.08133405  0.65485766  0.73415596  1
  H+  H170  1  0.38756302  0.86902495  0.33804582  1
  H+  H171  1  0.53636994  0.38896099  0.35083968  1
  H+  H172  1  0.96872603  0.35245275  0.83073404  1
  H+  H173  1  0.43070041  0.84363432  0.66623765  1
  H+  H174  1  0.15094608  0.62684781  0.67724471  1
  H+  H175  1  0.62726495  0.60392026  0.32888756  1
  H+  H176  1  0.38573080  0.61973676  0.51084955  1
  H+  H177  1  0.87442854  0.52264282  0.15008785  1
  H+  H178  1  0.81013680  0.92978459  0.83032687  1
  H+  H179  1  0.63403124  0.11153269  0.51111692  1
  H+  H180  1  0.47300262  0.36479365  0.83282455  1
  H+  H181  1  0.27828026  0.89198137  0.50656569  1
  H+  H182  1  0.02413413  0.88248055  0.49697314  1
  H+  H183  1  0.88466050  0.61074660  0.50394243  1
  H+  H184  1  0.41352203  0.03012210  0.97768032  1
  H+  H185  1  0.84450083  0.47184778  0.48738454  1
  H+  H186  1  0.61366818  0.73398874  0.48924589  1
  H+  H187  1  0.85823933  0.22960703  0.67756174  1
  H+  H188  1  0.60967962  0.63254638  0.16369368  1
  H+  H189  1  0.12719133  0.88799617  0.67497705  1
  H+  H190  1  0.48467551  0.85591893  0.18505190  1
  H+  H191  1  0.16366580  0.25541271  0.64549181  1
  H+  H192  1  0.21590322  0.69102698  0.55237840  1
  H+  H193  1  0.91395770  0.57352502  0.56023340  1
  H+  H194  1  0.18822659  0.85085523  0.22922989  1
  H+  H195  1  0.62995660  0.26378084  0.14182002  1
  H+  H196  1  0.85447571  0.72339952  0.34100357  1
  H+  H197  1  0.77801013  0.14027954  0.34070618  1
  H+  H198  1  0.60768781  0.77671197  0.99394720  1
  H+  H199  1  0.25387700  0.34456921  0.64604935  1
  H+  H200  1  0.40349432  0.52118439  0.65013032  1
  H+  H201  1  0.40297591  0.76753284  0.98541627  1
  H+  H202  1  0.60688384  0.22100973  0.51140088  1
  H+  H203  1  0.39041105  0.61471797  0.99757106  1
  H+  H204  1  0.13211118  0.10513890  0.65696556  1
  H+  H205  1  0.40135756  0.86427014  0.17621017  1
  H+  H206  1  0.38303304  0.02581554  0.53545144  1
  H+  H207  1  0.14086649  0.12267651  0.98695123  1
  H+  H208  1  0.37044807  0.77530674  0.82836401  1
  H+  H209  1  0.76785874  0.86269032  0.33056222  1
  H+  H210  1  0.68298396  0.82515938  0.83282694  1
  H+  H211  1  0.72014261  0.37165750  0.98162905  1
  H+  H212  1  0.87982962  0.35793456  0.51093900  1
  H+  H213  1  0.03848653  0.16743269  0.82251591  1
  H+  H214  1  0.76243920  0.12998163  0.83085076  1
  H+  H215  1  0.44177243  0.33286322  0.16256031  1
  H+  H216  1  0.16155533  0.07659221  0.56624281  1
  H+  H217  1  0.96613026  0.37308483  0.67235855  1
  H+  H218  1  0.75303175  0.88940545  0.00285304  1
  H+  H219  1  0.67036349  0.84399677  0.59004608  1
  H+  H220  1  0.01776002  0.63035320  0.49322423  1
  H+  H221  1  0.74195934  0.37752762  0.35521129  1
  H+  H222  1  0.85489140  0.13513744  0.83320199  1
  H+  H223  1  0.10725664  0.61006389  0.01563616  1
  H+  H224  1  0.67772631  0.58823849  0.59897982  1
  H+  H225  1  0.62963902  0.11185255  0.66104897  1
  H+  H226  1  0.71942070  0.35618910  0.66945319  1
  H+  H227  1  0.63274730  1.01490309  0.12127573  1
  H+  H228  1  0.40036597  0.11815231  0.34317968  1
  H+  H229  1  0.75385811  0.37969281  0.15700771  1
  H+  H230  1  0.58386536  0.44533953  1.06124883  1
  H+  H231  1  0.62396419  0.73726904  0.66253492  1
  H+  H232  1  0.77072901  0.38791335  0.82376491  1
  H+  H233  1  0.12363889  0.86849758  0.82695361  1
  H+  H234  1  0.88564090  0.52074380  0.84162128  1
  H+  H235  1  0.26682155  0.13284674  0.50070326  1
  H+  H236  1  0.11528822  0.12203638  0.16264490  1
  H+  H237  1  0.15327524  0.78478871  0.32618853  1
  H+  H238  1  0.63723933  0.13109867  -0.01145392  1
  H+  H239  1  0.38365145  0.52213704  0.50409660  1
  H+  H240  1  0.85912879  0.97400271  0.48804427  1
  H+  H241  1  0.10763373  0.12946120  0.49817712  1
  H+  H242  1  0.86018622  0.47617361  0.00030222  1
  H+  H243  1  0.48590240  0.62824294  0.32426552  1
  H+  H244  1  0.62149828  0.10315899  0.84046259  1
  H+  H245  1  0.60754704  0.89347368  0.04545179  1
  H+  H246  1  0.14899650  0.52789528  0.98973471  1
  H+  H247  1  0.68673906  0.57276929  0.17426444  1
  H+  H248  1  0.37011970  0.72627758  0.16296054  1
  H+  H249  1  0.89937681  0.79878523  0.18162511  1
  H+  H250  1  0.97562886  0.60906893  0.84111496  1
  H+  H251  1  0.47957983  0.86735216  0.51219868  1
  H+  H252  1  0.35370843  0.42829267  0.72485247  1
  H+  H253  1  0.30256855  0.70407549  0.66734412  1
  H+  H254  1  0.83289445  0.62101783  0.15058936  1
  H+  H255  1  0.10094331  0.37569416  0.49754093  1
  H+  H256  1  0.13826242  0.77139679  0.51634253  1
  H+  H257  1  0.02043662  0.39525389  0.34081716  1
  H+  H258  1  0.25209910  0.32259334  0.22376775  1
  H+  H259  1  0.13423939  1.01734597  0.50643861  1
  H+  H260  1  0.28482968  0.39429957  1.01330955  1
  H+  H261  1  0.08720010  0.95750141  0.33710449  1
  H+  H262  1  0.41324271  0.28617926  0.33714323  1
  H+  H263  1  0.51698401  0.13079848  0.66169281  1
  H+  H264  1  0.66910291  0.08206738  0.27474483  1
  H+  H265  1  0.27638548  0.13515101  0.65871327  1
  H+  H266  1  0.38228636  0.11158026  0.63177078  1
  H+  H267  1  0.84835345  -0.03935095  0.34201695  1
  H+  H268  1  0.87706649  0.26651569  0.83430522  1
  H+  H269  1  0.65348993  0.11760675  0.17917865  1
  H+  H270  1  0.13890054  0.11609247  0.33830622  1
  H+  H271  1  0.03221282  0.62143302  0.67024790  1
  H+  H272  1  0.15259970  0.80032892  0.16646793  1
  H+  H273  1  0.09736851  0.65115941  0.20408979  1
  H+  H274  1  0.86919922  0.72982835  0.49307433  1
  H+  H275  1  0.60316692  0.21965113  0.67383912  1
  H+  H276  1  0.38659283  0.10314534  0.97439760  1
  H+  H277  1  0.39033397  0.86838505  0.51079857  1
  H+  H278  1  0.64491953  0.05110286  1.00911840  1
  H+  H279  1  0.27282513  0.14201046  0.80727923  1
  H+  H280  1  0.92330709  0.96266407  0.70335306  1
  H+  H281  1  0.77718747  0.15171957  0.00247064  1
  H+  H282  1  0.89821278  0.60684189  0.65460156  1
  H+  H283  1  0.58201978  0.37470577  0.14342278  1
  H+  H284  1  0.35514489  0.63737537  0.82271910  1
  H+  H285  1  0.82965542  0.41748884  0.73188179  1
  H+  H286  1  0.87668332  0.85789579  0.33426170  1
  H+  H287  1  1.01927220  0.13721662  0.66488643  1
  H+  H288  1  0.08143848  0.92238737  0.04894759  1
  H+  H289  1  0.37603445  0.72851199  0.50471906  1
  H+  H290  1  0.18301922  0.56323979  0.23552692  1
  H+  H291  1  0.35437448  0.33052428  0.15970116  1
  H+  H292  1  0.59865581  0.13091763  0.10075352  1
  H+  H293  1  0.93743543  0.60809399  0.28895407  1
  H+  H294  1  0.38871918  0.63780160  0.32263587  1
  H+  H295  1  0.34302612  0.67295552  0.06608575  1
  H+  H296  1  0.07137779  0.69662440  0.08007998  1
  H+  H297  1  0.82483323  0.90677966  0.43205102  1
  H+  H298  1  0.05684608  0.82553449  0.11321770  1
  H+  H299  1  0.61973571  0.42130903  0.00270402  1
  H+  H300  1  0.33997675  0.93032834  0.44883281  1
  H+  H301  1  0.89373748  0.84749664  0.65925997  1
  H+  H302  1  0.59238178  0.29244817  0.27634716  1
  H+  H303  1  0.83461573  0.90641438  0.73510947  1
  H+  H304  1  0.91953353  0.33607216  0.92583837  1
  H+  H305  1  0.89392493  0.82847476  0.93735844  1
  H+  H306  1  0.42389965  0.58048264  0.57241435  1
  H+  H307  1  0.52374641  0.88926454  0.34990450  1
  H+  H308  1  0.86777605  0.42644897  0.39488606  1
  H+  H309  1  0.16726680  0.09367892  0.88688905  1
  H+  H310  1  0.83169384  0.66753224  0.43538598  1
  H+  H311  1  0.62394189  0.83051501  0.93332988  1
  H+  H312  1  0.92709800  0.10353551  0.91185518  1
  H+  H313  1  0.42827181  0.60154882  0.26026306  1
  H+  H314  1  0.16957709  0.07416535  0.24166215  1
  H+  H315  1  0.76792026  0.39637847  0.44499556  1
  H+  H316  1  0.86081669  0.22778031  0.49680207  1
  H+  H317  1  0.40945541  0.32960955  0.88988266  1
  H+  H318  1  0.48905817  0.97408446  0.04903449  1
  H+  H319  1  0.93966301  0.59402759  0.19269705  1
  H+  H320  1  0.36868557  0.91860165  0.09865731  1
  H+  H321  1  0.28229322  0.63759423  0.33315612  1
  H+  H322  1  0.51885883  0.13220651  0.51468585  1
  H+  H323  1  0.66928502  0.08363751  0.56723067  1
  H+  H324  1  0.10764857  0.63335670  0.50188095  1
  H+  H325  1  0.17543839  0.59161003  0.93287299  1
  H+  H326  1  0.34320550  0.42648544  0.09830184  1
  H+  H327  1  0.58286447  0.66934234  0.39346890  1
  H+  H328  1  0.84252212  0.65894858  0.72605976  1
  H+  H329  1  0.65393661  0.07693857  0.90014117  1
  H+  H330  1  0.19694023  0.33376426  0.86742339  1
  H+  H331  1  0.64804500  0.55575751  0.98618885  1
  H+  H332  1  0.07910322  0.16586648  0.72470229  1
  H+  H333  1  0.32889153  0.14461233  0.05265776  1
  H+  H334  1  0.82550338  0.16534778  0.73515156  1
  H+  H335  1  0.62580193  0.27856833  0.27455145  1
  H+  H336  1  0.66802676  0.58626490  0.88853466  1
  H+  H337  1  0.57656436  0.41176572  0.44601146  1
  H+  H338  1  0.23164122  0.86667652  0.82313696  1
  H+  H339  1  0.64237205  0.56365993  0.23913122  1
  H+  H340  1  0.58022380  0.91615412  0.43847181  1
  H+  H341  1  0.39598271  0.82533906  0.59868668  1
  H+  H342  1  0.56435014  0.18943665  0.04555817  1
  H+  H343  1  0.83819316  0.17483869  0.09919269  1
  H+  H344  1  0.92026268  0.32931663  0.25946920  1
  H+  H345  1  0.66262510  0.33973032  0.89016826  1
  H+  H346  1  0.13080776  0.29079600  0.27647272  1
  H+  H347  1  0.62008483  -0.00949965  0.66557316  1
  H+  H348  1  0.13959236  0.82405577  0.88689059  1
  H+  H349  1  0.19797769  0.84624379  0.61293404  1
  H+  H350  1  0.07720363  0.44194661  0.06098453  1
  H+  H351  1  0.86928525  0.23696147  0.00150114  1
  H+  H352  1  0.83808170  0.17500001  0.39918249  1
  H+  H353  1  0.06303452  0.43171446  0.75570860  1
  H+  H354  1  0.26906442  0.10502768  0.15201070  1
  H+  H355  1  0.40689556  0.83769831  0.88458023  1
  H+  H356  1  0.17009600  0.34659040  0.95437273  1
  H+  H357  1  0.06965437  0.40719067  0.44087494  1
  H+  H358  1  0.34259083  0.17539696  0.41005228  1
  H+  H359  1  0.91804922  0.83106506  0.56319264  1
  H+  H360  1  0.07783034  0.15110875  0.40834712  1
  H+  H361  1  0.18796377  0.60712381  0.58795122  1
  H+  H362  1  0.56838716  0.15662747  0.76419279  1
  H+  H363  1  0.08512107  0.20070590  0.34563622  1
  H+  H364  1  0.09799084  0.38158614  0.34300926  1
  H+  H365  1  0.36897356  0.73259805  0.33659131  1
  H+  H366  1  0.58157735  0.41905295  0.76189827  1
  H+  H367  1  0.58719328  0.15935995  0.41770680  1
  H+  H368  1  0.82170785  0.65702174  0.05590675  1
  H+  H369  1  0.05003657  0.56174119  0.07209805  1
  H+  H370  1  0.90797475  0.08293530  0.56004336  1
  H+  H371  1  0.18210763  0.32512831  0.55637116  1
  H+  H372  1  0.33795872  0.16408085  0.71624555  1
  H+  H373  1  0.73800373  0.63828287  -0.02101613  1
  H+  H374  1  0.08298930  0.90707818  0.43844651  1
  H+  H375  1  0.03233237  0.26079101  0.28686002  1
  H+  H376  1  0.13964044  0.86000114  0.51622666  1
  H+  H377  1  0.29377116  0.89361891  0.75735964  1
  H+  H378  1  0.91664677  0.83876486  0.27492790  1
  H+  H379  1  0.82203401  0.91925728  0.10154001  1
  H+  H380  1  0.33499188  0.41340106  0.40044223  1
  H+  H381  1  0.59589454  0.68007885  0.10602856  1
  H+  H382  1  0.82770217  0.40892987  0.05498250  1
  H+  H383  1  0.77272325  0.62034115  0.81648266  1
  O2-  O384  1  0.09641566  0.16318745  0.15058170  1
  O2-  O385  1  0.07980218  0.16120293  0.48103194  1
  O2-  O386  1  0.09154002  0.18396189  0.79973025  1
  O2-  O387  1  0.05576993  0.47910852  0.12145411  1
  O2-  O388  1  0.06418990  0.40015974  0.48554784  1
  O2-  O389  1  0.09243041  0.41147814  0.83461856  1
  O2-  O390  1  0.05630510  0.72916686  0.10967906  1
  O2-  O391  1  0.08052545  0.66364184  0.48260067  1
  O2-  O392  1  0.07545101  0.65938360  0.81152377  1
  O2-  O393  1  0.07600588  0.88573307  0.12658462  1
  O2-  O394  1  0.08571252  0.91036667  0.48345073  1
  O2-  O395  1  0.08308607  0.91958885  0.80756743  1
  O2-  O396  1  0.32576189  0.13931031  0.13272328  1
  O2-  O397  1  0.32886654  0.16659202  0.48824812  1
  O2-  O398  1  0.33108446  0.17194659  0.78939414  1
  O2-  O399  1  0.33464084  0.42626415  0.14406480  1
  O2-  O400  1  0.33619239  0.42839478  0.47969132  1
  O2-  O401  1  0.35050445  0.43617835  0.80286570  1
  O2-  O402  1  0.34346628  0.66896627  0.14300777  1
  O2-  O403  1  0.34599616  0.66588928  0.49500699  1
  O2-  O404  1  0.32393748  0.66715586  0.80870575  1
  O2-  O405  1  0.35801359  0.91578006  0.14323137  1
  O2-  O406  1  0.33970233  0.92827761  0.49452955  1
  O2-  O407  1  0.29743208  0.89582503  0.80316051  1
  O2-  O408  1  0.59172197  0.16040962  0.13553214  1
  O2-  O409  1  0.57692097  0.15973884  0.49633555  1
  O2-  O410  1  0.57398463  0.16160025  0.80994016  1
  O2-  O411  1  0.54715117  0.40246146  0.13782585  1
  O2-  O412  1  0.56334455  0.40117860  0.49022693  1
  O2-  O413  1  0.58162355  0.41979773  0.80768940  1
  O2-  O414  1  0.59209789  0.67495536  0.15101959  1
  O2-  O415  1  0.58674229  0.67434391  0.47276635  1
  O2-  O416  1  0.56149402  0.62677164  0.79585424  1
  O2-  O417  1  0.60399581  0.99114177  0.08077722  1
  O2-  O418  1  0.58108270  0.91504253  0.48532123  1
  O2-  O419  1  0.62692935  0.93885365  0.78912679  1
  O2-  O420  1  0.84170997  0.17582264  0.14430626  1
  O2-  O421  1  0.83288603  0.16917813  0.47776900  1
  O2-  O422  1  0.82237738  0.16073878  0.81461685  1
  O2-  O423  1  0.81837981  0.41458328  0.16457334  1
  O2-  O424  1  0.81597991  0.41019074  0.47417080  1
  O2-  O425  1  0.83229020  0.41996742  0.81038176  1
  O2-  O426  1  0.78778982  0.63182569  0.13338274  1
  O2-  O427  1  0.83856729  0.66817185  0.48045911  1
  O2-  O428  1  0.83485853  0.65691562  0.80609942  1
  O2-  O429  1  0.82934318  0.92743501  0.14587813  1
  O2-  O430  1  0.82887144  0.91153639  0.47767905  1
  O2-  O431  1  0.78994284  0.87705733  0.80691097  1
  O2-  O432  1  0.16320185  0.06538507  0.19694669  1
  O2-  O433  1  0.16212005  0.07839435  0.52032082  1
  O2-  O434  1  0.16505062  0.08920898  0.84169313  1
  O2-  O435  1  0.19481728  0.27746195  0.23477362  1
  O2-  O436  1  0.17048245  0.33399726  0.51258324  1
  O2-  O437  1  0.18472679  0.34557813  0.82664085  1
  O2-  O438  1  0.18872068  0.54590610  0.19378576  1
  O2-  O439  1  0.19344049  0.62994200  0.54520080  1
  O2-  O440  1  0.16630232  0.58689360  0.85598767  1
  O2-  O441  1  0.19304591  0.85701908  0.18382004  1
  O2-  O442  1  0.17089649  0.83119173  0.53220147  1
  O2-  O443  1  0.15068055  0.83147803  0.84161830  1
  O2-  O444  1  0.43851853  0.08732017  0.16806398  1
  O2-  O445  1  0.41314400  0.08763926  0.54949530  1
  O2-  O446  1  0.48405249  0.13490202  0.82559289  1
  O2-  O447  1  0.37973326  0.29555022  0.17185634  1
  O2-  O448  1  0.40633008  0.33793313  0.52265076  1
  O2-  O449  1  0.41130634  0.33676331  0.84425040  1
  O2-  O450  1  0.42917297  0.59309253  0.18631469  1
  O2-  O451  1  0.41790509  0.58367261  0.52145736  1
  O2-  O452  1  0.40578489  0.58563691  0.85725713  1
  O2-  O453  1  0.42454170  0.82997087  0.19698601  1
  O2-  O454  1  0.41792796  0.83550520  0.52616710  1
  O2-  O455  1  0.39288814  0.83601116  0.84099341  1
  O2-  O456  1  0.67885954  0.08077889  0.18661073  1
  O2-  O457  1  0.66833787  0.08317794  0.52208242  1
  O2-  O458  1  0.65449444  0.07559695  0.85484795  1
  O2-  O459  1  0.65052522  0.32412476  0.15695387  1
  O2-  O460  1  0.65401838  0.32066391  0.53638801  1
  O2-  O461  1  0.66529494  0.33737685  0.84448609  1
  O2-  O462  1  0.63124854  0.55651421  0.19368176  1
  O2-  O463  1  0.67817276  0.60364176  0.53000175  1
  O2-  O464  1  0.66723764  0.58064707  0.84308367  1
  O2-  O465  1  0.65272073  0.80876633  0.24056662  1
  O2-  O466  1  0.66653159  0.83746769  0.51991002  1
  O2-  O467  1  0.62395901  0.80534388  0.84838112  1
  O2-  O468  1  0.91878505  0.09513928  0.17434425  1
  O2-  O469  1  0.91114561  0.08102660  0.51496699  1
  O2-  O470  1  0.92994451  0.10880813  0.86571216  1
  O2-  O471  1  0.92107227  0.33615099  0.18005607  1
  O2-  O472  1  0.90849234  0.32834991  0.52840268  1
  O2-  O473  1  0.91001070  0.32826619  0.84736587  1
  O2-  O474  1  0.90666572  0.58651374  0.15580791  1
  O2-  O475  1  0.91092893  0.57454867  0.51471869  1
  O2-  O476  1  0.91574598  0.58078275  0.85821707  1
  O2-  O477  1  0.93593081  0.85837835  0.19338974  1
  O2-  O478  1  0.91948361  0.83492988  0.51785903  1
  O2-  O479  1  0.83382706  0.78024837  0.86887098  1
  O2-  O480  1  0.17715243  0.09242798  0.32271524  1
  O2-  O481  1  0.16496285  0.07798104  0.64096185  1
  O2-  O482  1  0.16792473  0.09239165  0.96692901  1
  O2-  O483  1  0.08748861  0.28695155  0.30782701  1
  O2-  O484  1  0.20914648  0.29991781  0.61988577  1
  O2-  O485  1  0.17153139  0.34387199  0.99853543  1
  O2-  O486  1  0.17691623  0.58454298  0.31512331  1
  O2-  O487  1  0.18792360  0.59661726  0.66346305  1
  O2-  O488  1  0.17847001  0.59001295  0.97844757  1
  O2-  O489  1  0.17788750  0.84386937  0.30880037  1
  O2-  O490  1  0.19518158  0.84413591  0.65837071  1
  O2-  O491  1  0.10244478  0.80149093  0.95620332  1
  O2-  O492  1  0.42660686  0.08308664  0.33157531  1
  O2-  O493  1  0.41433067  0.08188446  0.61663244  1
  O2-  O494  1  0.42651377  0.08427658  0.95740973  1
  O2-  O495  1  0.44492676  0.34615105  0.32235376  1
  O2-  O496  1  0.42521142  0.33359580  0.64235963  1
  O2-  O497  1  0.41105704  0.32207836  0.96506720  1
  O2-  O498  1  0.42548353  0.60485200  0.30599660  1
  O2-  O499  1  0.43158173  0.58083115  0.63151933  1
  O2-  O500  1  0.42096762  0.58444176  0.98205616  1
  O2-  O501  1  0.41589465  0.83697876  0.32227641  1
  O2-  O502  1  0.37733820  0.81706916  0.64294314  1
  O2-  O503  1  0.44054927  0.82448902  0.96516022  1
  O2-  O504  1  0.67273885  0.08480780  0.31958850  1
  O2-  O505  1  0.66291454  0.08302049  0.64778991  1
  O2-  O506  1  0.66748867  0.09858526  0.97921387  1
  O2-  O507  1  0.69419928  0.35299600  0.38434538  1
  O2-  O508  1  0.65745982  0.32338726  0.65667082  1
  O2-  O509  1  0.66118759  0.34967167  0.96573160  1
  O2-  O510  1  0.65917917  0.57531437  0.31281839  1
  O2-  O511  1  0.67819464  0.58257825  0.64551157  1
  O2-  O512  1  0.67765903  0.61349592  0.96446603  1
  O2-  O513  1  0.68979081  0.78463900  0.28781732  1
  O2-  O514  1  0.67110380  0.84716864  0.63710867  1
  O2-  O515  1  0.62351236  0.83544246  0.97803705  1
  O2-  O516  1  0.90149018  0.06018706  0.32843490  1
  O2-  O517  1  0.90588757  0.08832136  0.64040054  1
  O2-  O518  1  0.91817176  0.09098172  0.98583323  1
  O2-  O519  1  0.92011500  0.33162227  0.30486768  1
  O2-  O520  1  0.90975110  0.33180453  0.65308520  1
  O2-  O521  1  0.92415403  0.33992098  0.97124120  1
  O2-  O522  1  0.93339748  0.59908911  0.33262513  1
  O2-  O523  1  0.92588770  0.57442607  0.63886869  1
  O2-  O524  1  0.91443102  0.57772146  0.98093508  1
  O2-  O525  1  0.90934632  0.82779544  0.31916739  1
  O2-  O526  1  0.92432399  0.82052556  0.64082339  1
  O2-  O527  1  0.90507552  0.83917122  0.98154686  1
  O2-  O528  1  0.08816140  0.17033857  0.02634455  1
  O2-  O529  1  0.07565775  0.14508053  0.36237734  1
  O2-  O530  1  0.07824274  0.15694206  0.67961173  1
  O2-  O531  1  0.08656688  0.42494280  0.01880775  1
  O2-  O532  1  0.07930265  0.42160837  0.35831774  1
  O2-  O533  1  0.04646457  0.44915894  0.71820347  1
  O2-  O534  1  0.05991897  0.60681082  0.04186562  1
  O2-  O535  1  0.10707113  0.68240302  0.35975905  1
  O2-  O536  1  0.09007937  0.65315970  0.68948074  1
  O2-  O537  1  0.07611867  0.92583302  0.00432235  1
  O2-  O538  1  0.06940695  0.90142307  0.35524689  1
  O2-  O539  1  0.09069276  0.91395817  0.68368854  1
  O2-  O540  1  0.33257717  0.14931489  0.00736097  1
  O2-  O541  1  0.35227380  0.17989057  0.36509642  1
  O2-  O542  1  0.33828049  0.16260598  0.66988861  1
  O2-  O543  1  0.34628921  0.42143634  0.02480528  1
  O2-  O544  1  0.33326928  0.40164167  0.35604431  1
  O2-  O545  1  0.35468662  0.42558427  0.67945887  1
  O2-  O546  1  0.34372293  0.67136384  0.02035786  1
  O2-  O547  1  0.34475802  0.66953594  0.34438601  1
  O2-  O548  1  0.27594951  0.64735736  0.68838101  1
  O2-  O549  1  0.43198564  0.95021936  0.03029320  1
  O2-  O550  1  0.34150578  0.92518549  0.37014412  1
  O2-  O551  1  0.28540758  0.89555158  0.67924986  1
  O2-  O552  1  0.57637773  0.18218703  0.00329959  1
  O2-  O553  1  0.59782223  0.17021897  0.37319768  1
  O2-  O554  1  0.57207107  0.15652796  0.68434910  1
  O2-  O555  1  0.61448612  0.46770113  0.02226034  1
  O2-  O556  1  0.59658456  0.42097445  0.36979639  1
  O2-  O557  1  0.58562284  0.41764193  0.68584515  1
  O2-  O558  1  0.58667655  0.68112839  0.02206623  1
  O2-  O559  1  0.57712493  0.65835240  0.34877579  1
  O2-  O560  1  0.59621618  0.67595787  0.67481875  1
  O2-  O561  1  0.58437209  0.90112332  0.08425736  1
  O2-  O562  1  0.58214904  0.91728367  0.36791827  1
  O2-  O563  1  0.59202097  0.92713860  0.68113235  1
  O2-  O564  1  0.83700238  0.17722975  0.01802127  1
  O2-  O565  1  0.83972436  0.17355268  0.35373969  1
  O2-  O566  1  0.82523885  0.16722705  0.68978997  1
  O2-  O567  1  0.82924534  0.41267378  0.01078879  1
  O2-  O568  1  0.86929188  0.43454761  0.35036775  1
  O2-  O569  1  0.82501657  0.41355224  0.68651863  1
  O2-  O570  1  0.83966853  0.67265805  0.01305734  1
  O2-  O571  1  0.82342433  0.66311621  0.35703623  1
  O2-  O572  1  0.84386495  0.65953978  0.68076802  1
  O2-  O573  1  0.81346782  0.91900210  0.01623025  1
  O2-  O574  1  0.82163045  0.89807586  0.35517255  1
  O2-  O575  1  0.86231912  0.92556154  0.69430279  1
