# generated using pymatgen
data_H2O
_symmetry_space_group_name_H-M   'P 1'
_cell_length_a   17.99158674
_cell_length_b   17.99110023
_cell_length_c   21.99411890
_cell_angle_alpha   89.98363244
_cell_angle_beta   90.00787399
_cell_angle_gamma   120.03198160
_symmetry_Int_Tables_number   1
_chemical_formula_structural   H2O
_chemical_formula_sum   'H384 O192'
_cell_volume   6163.45633015
_cell_formula_units_Z   192
loop_
 _symmetry_equiv_pos_site_id
 _symmetry_equiv_pos_as_xyz
  1  'x, y, z'
loop_
 _atom_type_symbol
 _atom_type_oxidation_number
  H+  1.0
  O2-  -2.0
loop_
 _atom_site_type_symbol
 _atom_site_label
 _atom_site_symmetry_multiplicity
 _atom_site_fract_x
 _atom_site_fract_y
 _atom_site_fract_z
 _atom_site_occupancy
  H+  H0  1  0.60930763  0.47648394  0.82307868  1
  H+  H1  1  0.14939929  0.30401779  0.52044729  1
  H+  H2  1  0.04544380  0.63258375  0.33307809  1
  H+  H3  1  0.40512196  0.52939812  0.83556029  1
  H+  H4  1  0.63217711  0.84548218  0.50838089  1
  H+  H5  1  0.36898682  0.77248242  0.51214461  1
  H+  H6  1  0.52554560  0.13415779  0.83233873  1
  H+  H7  1  0.66207838  0.27621706  0.83767394  1
  H+  H8  1  0.39024609  0.02146036  0.32543184  1
  H+  H9  1  0.36394316  0.42757811  0.52912750  1
  H+  H10  1  0.82658057  0.90353778  0.10603444  1
  H+  H11  1  0.63318527  0.11721825  0.83507479  1
  H+  H12  1  0.90149933  0.37047055  0.51320004  1
  H+  H13  1  0.86086019  0.47276184  0.66805224  1
  H+  H14  1  0.77405656  0.13455663  0.34212428  1
  H+  H15  1  0.12781016  0.60937716  0.83737447  1
  H+  H16  1  0.86577211  0.98481556  0.33600130  1
  H+  H17  1  0.38960463  0.87381144  0.80979461  1
  H+  H18  1  0.27632287  0.39828257  0.16353987  1
  H+  H19  1  0.11193488  0.13902822  0.31289934  1
  H+  H20  1  0.13041996  0.85950444  0.99228545  1
  H+  H21  1  0.26973808  0.88962769  1.00861297  1
  H+  H22  1  0.22541147  0.61063038  0.65719841  1
  H+  H23  1  1.02793652  0.14029051  0.16319547  1
  H+  H24  1  0.87318936  0.51077610  0.17774404  1
  H+  H25  1  0.74510271  0.23453320  0.56195281  1
  H+  H26  1  0.02765045  0.64177133  0.48774969  1
  H+  H27  1  0.16683786  0.07819732  0.93579091  1
  H+  H28  1  0.62420010  0.48329801  0.00600236  1
  H+  H29  1  0.10842674  0.14616367  0.67032980  1
  H+  H30  1  0.39623424  0.28407926  0.65722482  1
  H+  H31  1  0.72114438  0.11442841  0.82562077  1
  H+  H32  1  0.51971288  0.63632228  0.49436536  1
  H+  H33  1  0.27125254  0.64509821  0.48749188  1
  H+  H34  1  0.13002127  0.11220744  0.84279300  1
  H+  H35  1  0.58174635  0.91723924  -0.05879961  1
  H+  H36  1  0.11660991  0.37052282  0.66613581  1
  H+  H37  1  0.67982648  0.58265975  0.89711781  1
  H+  H38  1  0.15387517  0.54261718  0.17119426  1
  H+  H39  1  0.04260092  0.13753800  0.00913541  1
  H+  H40  1  0.54072618  0.63607219  0.83356099  1
  H+  H41  1  0.02242201  0.88641624  0.82490649  1
  H+  H42  1  0.63770265  0.11406848  0.32853327  1
  H+  H43  1  0.64598526  0.61986057  -0.00569208  1
  H+  H44  1  0.77779594  0.63419024  0.66678534  1
  H+  H45  1  0.97977971  0.87577914  0.32792135  1
  H+  H46  1  0.85657881  0.38231325  0.67668045  1
  H+  H47  1  0.36295930  0.62572759  0.68539924  1
  H+  H48  1  0.61589074  0.71784724  0.66453105  1
  H+  H49  1  0.11113001  0.97393706  0.33453041  1
  H+  H50  1  0.02920663  0.89291914  0.16588310  1
  H+  H51  1  0.60533276  0.89387263  0.33776908  1
  H+  H52  1  0.57025228  0.20861745  0.51338615  1
  H+  H53  1  0.09397028  0.16588528  0.56558042  1
  H+  H54  1  0.36546997  0.13360088  0.33327065  1
  H+  H55  1  0.37535933  0.95768899  0.16149743  1
  H+  H56  1  0.11905150  0.23337026  0.00819970  1
  H+  H57  1  0.86303631  0.93205022  0.00492268  1
  H+  H58  1  0.36356583  0.11518591  1.00930846  1
  H+  H59  1  0.47969936  0.11071039  0.32733290  1
  H+  H60  1  0.10307541  0.48329496  0.67911829  1
  H+  H61  1  0.60704845  0.71977977  0.00543460  1
  H+  H62  1  0.79525122  0.40492891  0.49321311  1
  H+  H63  1  0.88157030  0.76649061  0.83244856  1
  H+  H64  1  0.14288490  0.11821647  0.17470773  1
  H+  H65  1  1.02523552  0.64651199  0.81656054  1
  H+  H66  1  0.62700059  0.79091190  0.32583149  1
  H+  H67  1  0.78618654  0.65368622  0.15483309  1
  H+  H68  1  0.88736916  0.07027798  1.00992424  1
  H+  H69  1  0.74217948  0.63721918  0.98806158  1
  H+  H70  1  0.88889357  0.27090702  0.17340455  1
  H+  H71  1  0.27114643  0.15683200  0.66877235  1
  H+  H72  1  0.91632109  0.59848391  0.32702282  1
  H+  H73  1  0.88711969  0.30022852  1.00279688  1
  H+  H74  1  0.42469734  0.84052336  0.72375689  1
  H+  H75  1  0.59894490  0.56167064  0.30189847  1
  H+  H76  1  0.09238189  -0.04035256  1.00659011  1
  H+  H77  1  0.72269301  0.87252530  0.32502522  1
  H+  H78  1  0.73816638  0.36289215  0.33444496  1
  H+  H79  1  0.60488502  0.22623365  0.00284571  1
  H+  H80  1  0.62202630  0.18576312  0.15133598  1
  H+  H81  1  0.69352971  0.61532231  0.33069201  1
  H+  H82  1  -0.04127548  0.81596215  0.02417079  1
  H+  H83  1  0.64695141  0.36243283  0.33744845  1
  H+  H84  1  0.10771049  0.72773070  0.00309597  1
  H+  H85  1  0.11511835  0.22981968  0.31498706  1
  H+  H86  1  0.62748271  0.72621498  0.83481122  1
  H+  H87  1  0.21773254  0.61501850  0.84189178  1
  H+  H88  1  0.12712561  0.40084603  0.82846096  1
  H+  H89  1  0.95614798  0.11203914  0.52753382  1
  H+  H90  1  0.64819326  0.37917983  0.49849167  1
  H+  H91  1  0.46237517  0.09415005  0.50731711  1
  H+  H92  1  0.22897586  0.33182819  0.67755992  1
  H+  H93  1  0.47734448  0.35975338  0.49712099  1
  H+  H94  1  0.21771471  0.86266057  0.50155791  1
  H+  H95  1  0.35429051  0.89432541  0.67605230  1
  H+  H96  1  0.61388679  0.47696740  0.49534650  1
  H+  H97  1  0.10523326  0.87612095  0.48938364  1
  H+  H98  1  0.89399125  0.26915665  0.32955311  1
  H+  H99  1  0.60461193  0.98121500  0.34429794  1
  H+  H100  1  0.38204345  0.48026571  0.35601867  1
  H+  H101  1  0.61924690  0.22792841  0.67752608  1
  H+  H102  1  0.63453015  0.60571044  0.50880812  1
  H+  H103  1  0.35277193  0.73212931  0.81553694  1
  H+  H104  1  0.53431270  0.62918613  0.68519015  1
  H+  H105  1  0.76813590  0.15549327  -0.00241117  1
  H+  H106  1  0.37826847  0.52545461  0.49608242  1
  H+  H107  1  0.36269960  0.64927439  0.48454306  1
  H+  H108  1  0.75822959  0.17211113  0.51835054  1
  H+  H109  1  0.37822146  0.53026318  0.99106479  1
  H+  H110  1  0.77246546  0.12643545  0.15729106  1
  H+  H111  1  0.24267486  0.39114461  0.51113860  1
  H+  H112  1  1.02253885  0.14362362  0.82232424  1
  H+  H113  1  0.34557648  0.98036840  0.66975754  1
  H+  H114  1  0.12563040  0.40498156  0.49321301  1
  H+  H115  1  0.61993157  0.98157333  0.64218384  1
  H+  H116  1  0.85275460  0.84160388  1.02641284  1
  H+  H117  1  0.14896947  0.09543302  0.48039296  1
  H+  H118  1  0.88533369  0.02512991  0.82803020  1
  H+  H119  1  0.62294100  -0.01355017  0.99167892  1
  H+  H120  1  0.17529701  0.34347328  0.23571592  1
  H+  H121  1  0.47629947  0.87055939  0.82462138  1
  H+  H122  1  0.86378809  0.66105325  0.32412559  1
  H+  H123  1  0.13030920  0.66118284  0.15798766  1
  H+  H124  1  0.21924291  0.86545046  0.65755093  1
  H+  H125  1  0.61594566  0.46504239  0.33792566  1
  H+  H126  1  0.38871812  0.77735312  0.33102977  1
  H+  H127  1  0.76387972  0.37406408  0.16828204  1
  H+  H128  1  0.47983566  0.86683993  0.66285229  1
  H+  H129  1  0.08379612  0.17146866  0.76484511  1
  H+  H130  1  0.63766001  0.12565028  -0.01744864  1
  H+  H131  1  0.58519883  0.66062921  0.33853259  1
  H+  H132  1  0.31144971  0.35090952  0.71473025  1
  H+  H133  1  0.58167479  0.91556946  0.58756069  1
  H+  H134  1  0.27129943  0.88579639  0.33562375  1
  H+  H135  1  0.73261404  0.86962120  0.84440149  1
  H+  H136  1  0.86452231  0.40068129  1.01520687  1
  H+  H137  1  0.08733913  0.16645571  0.49423845  1
  H+  H138  1  0.39280210  0.51980133  0.73436354  1
  H+  H139  1  0.62961561  0.07308606  0.17014220  1
  H+  H140  1  0.38750683  0.35736915  0.49191178  1
  H+  H141  1  -0.02930345  0.86180310  0.50449487  1
  H+  H142  1  0.86606244  0.88874014  0.83141672  1
  H+  H143  1  0.67666403  0.10276400  0.92377295  1
  H+  H144  1  0.11962965  0.36163374  0.00145236  1
  H+  H145  1  0.12897998  1.02981795  0.65467298  1
  H+  H146  1  0.83895329  0.62370789  0.34564944  1
  H+  H147  1  0.88854494  0.78122312  0.18356881  1
  H+  H148  1  0.61187304  0.88929683  0.85721319  1
  H+  H149  1  0.13524486  0.77623062  0.83547137  1
  H+  H150  1  0.80384063  0.73955512  0.35050639  1
  H+  H151  1  0.87440085  0.02045142  0.50987527  1
  H+  H152  1  0.52609573  0.37700666  0.34058648  1
  H+  H153  1  0.49891830  0.85184004  0.49697274  1
  H+  H154  1  0.38848902  0.66983829  0.16668901  1
  H+  H155  1  0.88946131  0.48909249  0.83300468  1
  H+  H156  1  0.87835206  0.46748374  0.33824745  1
  H+  H157  1  0.47732514  0.37920206  0.98461476  1
  H+  H158  1  0.39021976  0.53522355  0.18355886  1
  H+  H159  1  0.09785394  0.22986468  0.67244508  1
  H+  H160  1  0.61993627  0.14052023  0.68376249  1
  H+  H161  1  0.42523755  0.07822481  0.23057605  1
  H+  H162  1  0.26213685  0.39232229  0.00714709  1
  H+  H163  1  0.14067980  0.02757955  0.17081203  1
  H+  H164  1  0.36503084  0.22266558  0.48629690  1
  H+  H165  1  0.23659612  0.37030760  0.33382998  1
  H+  H166  1  0.72085414  0.35973526  0.00078851  1
  H+  H167  1  0.63430683  0.36201662  0.99349192  1
  H+  H168  1  0.47447736  0.36600064  0.17130539  1
  H+  H169  1  0.64552718  0.51749552  0.65645999  1
  H+  H170  1  0.61411554  0.39854665  0.16476872  1
  H+  H171  1  -0.00872034  0.37162982  0.85895440  1
  H+  H172  1  0.37490170  0.39750923  0.81213927  1
  H+  H173  1  0.59214972  0.01132231  0.49863960  1
  H+  H174  1  0.22648318  0.10704320  0.32468509  1
  H+  H175  1  0.73000081  0.10922611  0.68037637  1
  H+  H176  1  0.47290381  0.87809237  0.99175044  1
  H+  H177  1  0.64187045  0.86416769  0.99355307  1
  H+  H178  1  0.38967149  0.27028280  0.32609513  1
  H+  H179  1  0.36720333  0.22369070  0.15939865  1
  H+  H180  1  0.14699254  0.11282149  -0.00313192  1
  H+  H181  1  0.36394466  0.39710234  0.16037139  1
  H+  H182  1  0.13879253  0.53214093  0.01852480  1
  H+  H183  1  0.86384425  0.17466745  -0.01189204  1
  H+  H184  1  0.27832289  0.13489054  0.16258261  1
  H+  H185  1  0.61514148  0.48655410  0.15635687  1
  H+  H186  1  0.43462242  0.60019494  0.24048863  1
  H+  H187  1  0.64499068  0.62401391  0.16650950  1
  H+  H188  1  0.73039146  0.36282153  0.65576510  1
  H+  H189  1  0.09214896  0.17372911  0.10658972  1
  H+  H190  1  0.69081833  0.33783574  0.89369413  1
  H+  H191  1  0.39496111  0.36142578  0.33313917  1
  H+  H192  1  0.46813811  0.11095502  0.99718859  1
  H+  H193  1  0.43165624  0.65520238  0.33906816  1
  H+  H194  1  0.89980872  0.28107368  0.50913031  1
  H+  H195  1  0.13226458  1.02449276  0.84103443  1
  H+  H196  1  0.66525067  0.07595234  0.27131491  1
  H+  H197  1  0.14097659  0.28137748  0.17777384  1
  H+  H198  1  0.11266219  0.72981608  0.66647749  1
  H+  H199  1  0.11655663  0.64178189  0.66678692  1
  H+  H200  1  0.14189637  0.77569664  0.32375925  1
  H+  H201  1  0.60429291  0.28123279  0.19543152  1
  H+  H202  1  0.66927827  0.30596566  0.48075103  1
  H+  H203  1  0.02855598  0.39604322  0.16815819  1
  H+  H204  1  0.52314437  0.11212995  0.15567415  1
  H+  H205  1  0.62126987  0.38684875  0.66980737  1
  H+  H206  1  1.02284243  0.89116391  0.67077063  1
  H+  H207  1  0.26974386  0.14941630  0.82321648  1
  H+  H208  1  0.80738737  0.01747213  0.96974658  1
  H+  H209  1  0.61090402  0.97847778  0.85546511  1
  H+  H210  1  0.14339949  0.33180205  0.93851316  1
  H+  H211  1  -0.02067750  0.61380325  0.65704603  1
  H+  H212  1  0.48109251  0.87543538  0.33180993  1
  H+  H213  1  0.38628549  0.78832435  0.99328887  1
  H+  H214  1  -0.03067912  0.35864845  0.67508368  1
  H+  H215  1  0.77178135  0.63482253  0.82196064  1
  H+  H216  1  0.53374100  0.38948471  0.66587345  1
  H+  H217  1  0.36290688  0.10933017  0.66015176  1
  H+  H218  1  0.88539543  0.02294918  0.16865777  1
  H+  H219  1  0.89079554  0.62065631  0.49980944  1
  H+  H220  1  0.02153404  0.39637367  0.01670725  1
  H+  H221  1  0.14198916  0.53090029  0.50152626  1
  H+  H222  1  0.14957808  0.37452875  0.33063982  1
  H+  H223  1  0.76439537  0.88776577  0.16213748  1
  H+  H224  1  0.38137047  0.10778944  0.49939182  1
  H+  H225  1  0.38924004  0.02179590  0.83989447  1
  H+  H226  1  0.64556871  0.76667489  0.51037964  1
  H+  H227  1  0.26913446  0.88770813  0.82589028  1
  H+  H228  1  0.36809994  0.71809156  0.67770511  1
  H+  H229  1  0.09139994  0.42663548  0.39765991  1
  H+  H230  1  0.15821068  0.53280703  0.32405827  1
  H+  H231  1  0.11252757  0.89411434  0.67078533  1
  H+  H232  1  0.64759018  -0.00382245  0.18304248  1
  H+  H233  1  0.60803803  0.72909336  0.15751476  1
  H+  H234  1  0.29521628  0.64934076  0.33470607  1
  H+  H235  1  0.11894874  0.89314817  0.16283608  1
  H+  H236  1  0.13178083  0.77124022  0.50248954  1
  H+  H237  1  0.64837663  0.61747996  0.84112124  1
  H+  H238  1  0.88672233  0.88614366  0.33015881  1
  H+  H239  1  0.03268086  0.39634515  0.49517425  1
  H+  H240  1  0.13782154  0.00625326  0.49733468  1
  H+  H241  1  0.77817068  0.87905724  0.67954203  1
  H+  H242  1  0.52435442  0.63821916  0.16256950  1
  H+  H243  1  0.14259184  0.27145148  0.83555396  1
  H+  H244  1  0.33482959  0.90433990  0.10189314  1
  H+  H245  1  0.54397630  0.84342339  0.16670656  1
  H+  H246  1  0.38216849  0.86981006  0.33110867  1
  H+  H247  1  0.14413413  0.78603484  0.17126576  1
  H+  H248  1  0.88147296  0.86757128  0.18177007  1
  H+  H249  1  0.11806978  0.48608181  0.83216247  1
  H+  H250  1  0.97506569  0.11446926  0.31302498  1
  H+  H251  1  0.85531006  0.13601675  0.49839662  1
  H+  H252  1  0.63559477  1.01754857  0.49100261  1
  H+  H253  1  0.97736165  0.62124389  1.00139248  1
  H+  H254  1  0.88769300  0.85901783  0.66164549  1
  H+  H255  1  0.96597083  0.10322661  0.66715646  1
  H+  H256  1  0.77275647  0.88672631  0.48992303  1
  H+  H257  1  0.87004216  0.37565298  0.34205100  1
  H+  H258  1  0.28916559  0.40446450  0.80038990  1
  H+  H259  1  0.88691961  0.62867023  0.83285017  1
  H+  H260  1  0.38976666  0.38023500  0.98627887  1
  H+  H261  1  0.26535055  0.11766635  0.00970055  1
  H+  H262  1  0.27797594  0.12969904  0.48709896  1
  H+  H263  1  0.86195774  0.13262708  0.34011327  1
  H+  H264  1  0.64484340  0.86235039  0.65392414  1
  H+  H265  1  0.13961705  0.64659770  0.33763126  1
  H+  H266  1  0.47145405  0.61319062  -0.00857005  1
  H+  H267  1  0.03431469  0.39257108  0.33758238  1
  H+  H268  1  0.62549198  0.16367994  0.50889819  1
  H+  H269  1  0.64333663  0.60662275  0.65230362  1
  H+  H270  1  0.61845241  0.22754957  0.34499132  1
  H+  H271  1  0.85968792  0.22276324  0.70430390  1
  H+  H272  1  0.36861718  0.65019441  1.00199449  1
  H+  H273  1  0.89031050  0.77156131  0.65667662  1
  H+  H274  1  0.10547881  0.88140643  0.33354468  1
  H+  H275  1  0.24250566  0.63277183  0.17025865  1
  H+  H276  1  0.34906381  -0.02734210  0.48924262  1
  H+  H277  1  0.47564532  0.37543458  0.82933142  1
  H+  H278  1  0.34900828  0.88408776  0.49362334  1
  H+  H279  1  0.86794516  0.63650003  0.66937240  1
  H+  H280  1  0.13475960  0.86526116  0.83739406  1
  H+  H281  1  0.86318203  0.89068687  0.49077360  1
  H+  H282  1  0.22635205  0.62345939  1.01490720  1
  H+  H283  1  0.90792567  0.80826236  0.89712358  1
  H+  H284  1  0.11751298  0.39646812  0.16798116  1
  H+  H285  1  0.35524390  0.24055804  0.81930081  1
  H+  H286  1  0.76983974  0.63528249  0.49702063  1
  H+  H287  1  0.39483409  0.10573547  0.17085428  1
  H+  H288  1  0.32787365  0.15218008  0.07254600  1
  H+  H289  1  0.69513701  0.11592266  0.61469685  1
  H+  H290  1  0.58649598  0.41748841  0.43460154  1
  H+  H291  1  0.88279896  0.35602148  0.17755713  1
  H+  H292  1  0.41405767  0.07696256  0.90033974  1
  H+  H293  1  0.08752211  0.67403510  0.75901041  1
  H+  H294  1  0.91358606  0.83542817  0.56513459  1
  H+  H295  1  0.67125634  0.33439743  0.59618397  1
  H+  H296  1  0.34423398  0.68599198  0.39818915  1
  H+  H297  1  0.66673919  0.33804285  0.24739290  1
  H+  H298  1  0.42663112  0.33534687  0.59584151  1
  H+  H299  1  0.09227052  0.68615053  0.10122349  1
  H+  H300  1  0.83445205  0.16965764  0.43575873  1
  H+  H301  1  0.57705420  0.15464329  0.05633452  1
  H+  H302  1  0.33560884  0.16227216  0.39295366  1
  H+  H303  1  0.38786983  0.82145449  0.15820645  1
  H+  H304  1  0.35399563  0.68954810  0.06271689  1
  H+  H305  1  0.41576360  0.35180948  0.88947742  1
  H+  H306  1  0.34703591  0.42226268  0.41444134  1
  H+  H307  1  0.09177218  0.66953992  0.42970695  1
  H+  H308  1  0.65198236  0.84577278  0.23094773  1
  H+  H309  1  0.15710929  0.35381256  0.60544094  1
  H+  H310  1  0.57764521  0.65943740  0.06345642  1
  H+  H311  1  0.16707013  0.58440252  0.59768967  1
  H+  H312  1  0.16410150  0.83510463  0.93202983  1
  H+  H313  1  0.23399051  0.87208676  0.17526468  1
  H+  H314  1  0.58523695  0.42183422  0.06314569  1
  H+  H315  1  0.90368242  0.08804294  0.88267789  1
  H+  H316  1  0.08177186  0.92122414  0.76539665  1
  H+  H317  1  0.10745239  0.63880737  0.01666337  1
  H+  H318  1  0.67609456  0.83325127  0.90532439  1
  H+  H319  1  0.90512112  0.07836516  0.26197664  1
  H+  H320  1  0.80819003  0.39737333  0.82474919  1
  H+  H321  1  0.86114568  0.70499296  0.10586352  1
  H+  H322  1  0.07748872  0.91095287  0.06944143  1
  H+  H323  1  0.95243111  0.65174579  0.88680446  1
  H+  H324  1  0.32529936  0.42549714  0.06452706  1
  H+  H325  1  0.16128344  0.08169632  0.59274251  1
  H+  H326  1  0.18950862  0.59469813  0.26516110  1
  H+  H327  1  0.72220025  0.84752030  1.00506583  1
  H+  H328  1  0.93081329  0.56899077  0.26275172  1
  H+  H329  1  0.88641040  0.67399031  -0.01275165  1
  H+  H330  1  0.85260228  0.48236988  0.02453669  1
  H+  H331  1  0.91371826  0.31969126  0.61589126  1
  H+  H332  1  0.07976555  0.42719197  0.74155891  1
  H+  H333  1  0.16995974  0.07746004  0.26427075  1
  H+  H334  1  0.32037792  0.92225539  0.76327631  1
  H+  H335  1  0.59753273  0.91531351  0.74850769  1
  H+  H336  1  0.32764878  0.91341299  0.39737031  1
  H+  H337  1  0.92795197  0.35883661  0.94263885  1
  H+  H338  1  0.85608205  0.72793152  0.49436634  1
  H+  H339  1  0.39684853  0.51608854  0.66433245  1
  H+  H340  1  0.68015530  0.82959253  0.60265583  1
  H+  H341  1  0.58276035  0.16565094  0.40274106  1
  H+  H342  1  0.38909230  0.07474216  0.60119197  1
  H+  H343  1  0.85342184  0.42271833  0.43452075  1
  H+  H344  1  0.22518578  0.33052455  0.87503354  1
  H+  H345  1  0.12105228  0.15628236  0.42156029  1
  H+  H346  1  0.42504905  0.58553520  0.89577873  1
  H+  H347  1  0.85874819  0.13792409  0.79749003  1
  H+  H348  1  0.40742006  0.59711774  0.54971033  1
  H+  H349  1  0.67787973  0.59047556  0.22209026  1
  H+  H350  1  0.07590776  0.90761334  0.42940874  1
  H+  H351  1  0.88705850  0.11267989  0.16543907  1
  H+  H352  1  0.90846005  0.38053910  0.85419808  1
  H+  H353  1  0.82795728  0.16668482  0.09646365  1
  H+  H354  1  0.32702013  0.17928859  0.72919019  1
  H+  H355  1  0.41618134  0.33295784  0.23058786  1
  H+  H356  1  0.57707358  0.66994967  0.43682241  1
  H+  H357  1  0.92118055  0.32743076  0.26926437  1
  H+  H358  1  0.55737370  0.88010701  0.43785878  1
  H+  H359  1  0.86684074  0.96845102  0.68029838  1
  H+  H360  1  0.07485636  0.11898610  0.42195434  1
  H+  H361  1  0.14138367  0.61964089  0.50309144  1
  H+  H362  1  0.36114362  0.89197810  0.00778410  1
  H+  H363  1  0.92070286  0.58752428  0.59766880  1
  H+  H364  1  0.88700126  0.60649430  0.17859303  1
  H+  H365  1  0.15907768  0.83524279  0.59783207  1
  H+  H366  1  0.83612860  0.91251077  0.76957411  1
  H+  H367  1  0.89653600  0.06726666  0.61359088  1
  H+  H368  1  0.31390191  0.65681703  0.76950127  1
  H+  H369  1  0.39375118  0.82875722  0.57315471  1
  H+  H370  1  0.91480272  0.84734915  0.26462804  1
  H+  H371  1  0.82311721  0.40688715  0.10866924  1
  H+  H372  1  0.58481359  0.16759388  0.77146893  1
  H+  H373  1  0.37742582  0.01671721  1.00219546  1
  H+  H374  1  0.89819511  0.53517461  0.50102407  1
  H+  H375  1  0.77987287  0.68452062  0.40989913  1
  H+  H376  1  0.66785554  0.57554647  0.56752212  1
  H+  H377  1  0.83562237  0.92354993  0.39715003  1
  H+  H378  1  0.64558132  0.93895134  0.74662185  1
  H+  H379  1  0.16901573  0.83837722  0.26519102  1
  H+  H380  1  0.58004275  0.41908169  0.76338949  1
  H+  H381  1  0.90682601  0.56781175  0.94970321  1
  H+  H382  1  0.83094894  0.66579909  0.75967173  1
  H+  H383  1  0.08281340  0.41815908  0.07572617  1
  O2-  O384  1  0.09003658  0.17242000  0.15168435  1
  O2-  O385  1  0.07132330  0.18422983  0.53184434  1
  O2-  O386  1  0.08429329  0.17168693  0.81061680  1
  O2-  O387  1  0.08883007  0.42839367  0.15308992  1
  O2-  O388  1  0.09045504  0.42949741  0.47571874  1
  O2-  O389  1  0.08986493  0.42350676  0.81650181  1
  O2-  O390  1  0.10241049  0.69414414  0.14578325  1
  O2-  O391  1  0.08961435  0.67071624  0.47515150  1
  O2-  O392  1  0.08663671  0.67611422  0.80459111  1
  O2-  O393  1  0.08677614  0.92205943  0.14700111  1
  O2-  O394  1  0.07644617  0.90904099  0.47470492  1
  O2-  O395  1  0.08296722  0.91994879  0.81101049  1
  O2-  O396  1  0.33831106  0.16230663  0.14583448  1
  O2-  O397  1  0.33769272  0.16193819  0.47074615  1
  O2-  O398  1  0.32486818  0.18180353  0.80180995  1
  O2-  O399  1  0.33703180  0.43159372  0.14849224  1
  O2-  O400  1  0.33940737  0.43313108  0.49097254  1
  O2-  O401  1  0.35011005  0.43142499  0.78973609  1
  O2-  O402  1  0.36174426  0.70178049  0.14818569  1
  O2-  O403  1  0.33244837  0.68138226  0.47263236  1
  O2-  O404  1  0.31567294  0.66892508  0.81326246  1
  O2-  O405  1  0.34083331  0.89802001  0.14673218  1
  O2-  O406  1  0.31974080  0.91193298  0.47302998  1
  O2-  O407  1  0.32800938  0.91993622  0.80825548  1
  O2-  O408  1  0.58058431  0.12898367  0.13610647  1
  O2-  O409  1  0.57793155  0.16827519  0.48810479  1
  O2-  O410  1  0.58693418  0.16479684  0.81737995  1
  O2-  O411  1  0.58208411  0.42411670  0.14596144  1
  O2-  O412  1  0.58514482  0.41548142  0.48004204  1
  O2-  O413  1  0.57053815  0.41759401  0.80795061  1
  O2-  O414  1  0.58382467  0.66835801  0.14520083  1
  O2-  O415  1  0.58092818  0.66226941  0.48081104  1
  O2-  O416  1  0.60288443  0.66641782  0.82060138  1
  O2-  O417  1  0.60663144  0.88528786  0.16333696  1
  O2-  O418  1  0.54995221  0.85383542  0.47834164  1
  O2-  O419  1  0.57605311  0.91617184  0.86633257  1
  O2-  O420  1  0.83188144  0.16250311  0.14133630  1
  O2-  O421  1  0.83673278  0.17591117  0.48110122  1
  O2-  O422  1  0.82569579  0.16640794  0.78474323  1
  O2-  O423  1  0.82412910  0.40271591  0.15439775  1
  O2-  O424  1  0.85594383  0.42919836  0.47995996  1
  O2-  O425  1  0.87155010  0.43152192  0.81792244  1
  O2-  O426  1  0.84991192  0.68810011  0.14910420  1
  O2-  O427  1  0.82662012  0.66921730  0.47591390  1
  O2-  O428  1  0.83313853  0.66865954  0.80541548  1
  O2-  O429  1  0.82572634  0.91214233  0.15092432  1
  O2-  O430  1  0.83309076  0.92047096  0.47372589  1
  O2-  O431  1  0.83762515  0.91992344  0.81540650  1
  O2-  O432  1  0.17406345  0.08746151  0.18716170  1
  O2-  O433  1  0.17155254  0.06969722  0.50867702  1
  O2-  O434  1  0.15963521  0.08268429  0.86008857  1
  O2-  O435  1  0.17155375  0.34294419  0.19027523  1
  O2-  O436  1  0.18046400  0.36653184  0.52659884  1
  O2-  O437  1  0.17833747  0.33128450  0.85333130  1
  O2-  O438  1  0.18444032  0.60202099  0.18806932  1
  O2-  O439  1  0.17402710  0.59139685  0.51764704  1
  O2-  O440  1  0.15599649  0.57905481  0.85462650  1
  O2-  O441  1  0.17347943  0.84736341  0.18908655  1
  O2-  O442  1  0.15744361  0.83197911  0.51755816  1
  O2-  O443  1  0.16405317  0.83506000  0.85429079  1
  O2-  O444  1  0.42637991  0.07665579  0.18506316  1
  O2-  O445  1  0.40115378  0.06923665  0.51759272  1
  O2-  O446  1  0.42645702  0.08025559  0.85678059  1
  O2-  O447  1  0.41362192  0.33182441  0.18534986  1
  O2-  O448  1  0.41489965  0.32554770  0.50792938  1
  O2-  O449  1  0.41315915  0.34917076  0.84384611  1
  O2-  O450  1  0.42483315  0.59697966  0.19617302  1
  O2-  O451  1  0.41104782  0.59359993  0.50565965  1
  O2-  O452  1  0.44023408  0.58754172  0.85231662  1
  O2-  O453  1  0.41925480  0.79073650  0.16992932  1
  O2-  O454  1  0.39813337  0.83292566  0.52881413  1
  O2-  O455  1  0.42259169  0.84382229  0.80012994  1
  O2-  O456  1  0.66853231  0.05773763  0.19189643  1
  O2-  O457  1  0.71429480  0.17660853  0.54507910  1
  O2-  O458  1  0.66776924  0.08851194  0.84991471  1
  O2-  O459  1  0.65663895  0.33595517  0.20177403  1
  O2-  O460  1  0.68497049  0.35275348  0.50963223  1
  O2-  O461  1  0.70427055  0.33536613  0.85074392  1
  O2-  O462  1  0.67881520  0.59520371  0.17711053  1
  O2-  O463  1  0.66553014  0.57533632  0.52095709  1
  O2-  O464  1  0.67948090  0.58428614  0.85220828  1
  O2-  O465  1  0.65003666  0.83891846  0.18526221  1
  O2-  O466  1  0.67428926  0.82827752  0.52279945  1
  O2-  O467  1  0.67266756  0.83864086  0.86048124  1
  O2-  O468  1  0.91750467  0.08365421  0.18271448  1
  O2-  O469  1  0.89290725  0.07661615  0.53062724  1
  O2-  O470  1  0.91109030  0.08804410  0.83860927  1
  O2-  O471  1  0.91772807  0.32967571  0.19098186  1
  O2-  O472  1  0.92949985  0.33854293  0.52905972  1
  O2-  O473  1  0.93327070  0.34859950  0.87698700  1
  O2-  O474  1  0.90555392  0.56852838  0.19668530  1
  O2-  O475  1  0.92578298  0.59596181  0.51553934  1
  O2-  O476  1  0.92576618  0.61020783  0.85408617  1
  O2-  O477  1  0.91545494  0.84232621  0.19965715  1
  O2-  O478  1  0.91038708  0.83503594  0.51932206  1
  O2-  O479  1  0.91290690  0.82401532  0.85409107  1
  O2-  O480  1  0.16587747  0.07456917  0.30983376  1
  O2-  O481  1  0.15361485  0.08845392  0.63639856  1
  O2-  O482  1  0.16867489  0.07515225  0.98174302  1
  O2-  O483  1  0.17956737  0.34449138  0.31419578  1
  O2-  O484  1  0.14030919  0.33531181  0.64819947  1
  O2-  O485  1  0.14826373  0.32981487  0.98308553  1
  O2-  O486  1  0.19306201  0.59404536  0.31077459  1
  O2-  O487  1  0.16468718  0.58480548  0.64302814  1
  O2-  O488  1  0.16353487  0.59495282  1.02143803  1
  O2-  O489  1  0.16741209  0.83730199  0.31115981  1
  O2-  O490  1  0.15758778  0.83459307  0.64312588  1
  O2-  O491  1  0.16484492  0.83386608  0.97770985  1
  O2-  O492  1  0.42098756  0.08133390  0.30916352  1
  O2-  O493  1  0.38439067  0.07051906  0.64571974  1
  O2-  O494  1  0.40473432  0.07927774  0.98735584  1
  O2-  O495  1  0.42344850  0.33222554  0.31360659  1
  O2-  O496  1  0.43644137  0.34185652  0.63983884  1
  O2-  O497  1  0.41912426  0.35258448  0.96680353  1
  O2-  O498  1  0.46691284  0.62863914  0.32596250  1
  O2-  O499  1  0.40985906  0.55665294  0.69752365  1
  O2-  O500  1  0.41178256  0.59058291  0.97615440  1
  O2-  O501  1  0.41720693  0.84150024  0.31690681  1
  O2-  O502  1  0.41949114  0.83499627  0.67793080  1
  O2-  O503  1  0.41105843  0.85003201  0.98226168  1
  O2-  O504  1  0.66601307  0.08060084  0.31659834  1
  O2-  O505  1  0.67740731  0.08574150  0.65428887  1
  O2-  O506  1  0.67677651  0.10388631  0.96991336  1
  O2-  O507  1  0.67642204  0.33205724  0.32052291  1
  O2-  O508  1  0.66807699  0.32973442  0.64066016  1
  O2-  O509  1  0.66245820  0.32792359  0.98260371  1
  O2-  O510  1  0.65484146  0.56536266  0.30266912  1
  O2-  O511  1  0.67699381  0.57821161  0.63928819  1
  O2-  O512  1  0.68138466  0.59382766  0.98155125  1
  O2-  O513  1  0.66350828  0.84936530  0.30880611  1
  O2-  O514  1  0.67676437  0.83135957  0.64793398  1
  O2-  O515  1  0.66596098  0.82552526  0.98475217  1
  O2-  O516  1  0.91007407  0.07995287  0.30735128  1
  O2-  O517  1  0.90448873  0.06309783  0.65756070  1
  O2-  O518  1  0.86919783  0.03929932  0.97141504  1
  O2-  O519  1  0.92455386  0.32988682  0.31477792  1
  O2-  O520  1  0.90910143  0.31864669  0.66074184  1
  O2-  O521  1  0.92204705  0.36103737  0.99044159  1
  O2-  O522  1  0.94281359  0.56771419  0.30876095  1
  O2-  O523  1  0.91820861  0.58405381  0.64278247  1
  O2-  O524  1  0.91326345  0.59406508  0.98975185  1
  O2-  O525  1  0.91713367  0.85194981  0.31315336  1
  O2-  O526  1  0.91954611  0.83255729  0.64193644  1
  O2-  O527  1  0.89604832  0.77384085  1.03272693  1
  O2-  O528  1  0.10039539  0.17380520  0.02483194  1
  O2-  O529  1  0.07711643  0.16724192  0.30907830  1
  O2-  O530  1  0.07285307  0.16940443  0.68731695  1
  O2-  O531  1  0.08221040  0.41644139  0.03014673  1
  O2-  O532  1  0.09490997  0.42623885  0.35214292  1
  O2-  O533  1  0.07227474  0.42391010  0.69594489  1
  O2-  O534  1  0.07291518  0.66944438  0.02149036  1
  O2-  O535  1  0.10360074  0.67172910  0.35084878  1
  O2-  O536  1  0.08355237  0.66926607  0.68193480  1
  O2-  O537  1  0.06545006  0.90129986  0.02472201  1
  O2-  O538  1  0.07488389  0.91204722  0.34833394  1
  O2-  O539  1  0.08322319  0.92528373  0.68626827  1
  O2-  O540  1  0.32634545  0.14647343  0.02640924  1
  O2-  O541  1  0.33460024  0.16364486  0.34741158  1
  O2-  O542  1  0.33009570  0.17703036  0.68301457  1
  O2-  O543  1  0.32337753  0.42479974  0.01936053  1
  O2-  O544  1  0.34918101  0.42013230  0.36871279  1
  O2-  O545  1  0.26633954  0.30834276  0.68872623  1
  O2-  O546  1  0.34194996  0.68334925  0.01874373  1
  O2-  O547  1  0.35417746  0.68739318  0.35273325  1
  O2-  O548  1  0.32919192  0.65546206  0.68383434  1
  O2-  O549  1  0.32928606  0.92144092  0.02546088  1
  O2-  O550  1  0.33210849  0.91430722  0.35150784  1
  O2-  O551  1  0.31662173  0.91781108  0.68600756  1
  O2-  O552  1  0.57252678  0.16226898  0.01214653  1
  O2-  O553  1  0.58473522  0.16576857  0.35781018  1
  O2-  O554  1  0.59061325  0.17111648  0.69785812  1
  O2-  O555  1  0.58835679  0.42210655  0.01807776  1
  O2-  O556  1  0.58660692  0.40697059  0.35694543  1
  O2-  O557  1  0.59410831  0.42087043  0.68294803  1
  O2-  O558  1  0.57855155  0.65819652  0.01828845  1
  O2-  O559  1  0.55243247  0.68660036  0.35435760  1
  O2-  O560  1  0.58739135  0.65455997  0.66125141  1
  O2-  O561  1  0.59168506  0.92325842  -0.01320151  1
  O2-  O562  1  0.57092148  0.91834319  0.35534439  1
  O2-  O563  1  0.58401273  0.91847802  0.63184523  1
  O2-  O564  1  0.82852061  0.18465639  0.01675650  1
  O2-  O565  1  0.83435036  0.16454119  0.35741918  1
  O2-  O566  1  0.82629112  0.16128451  0.71823984  1
  O2-  O567  1  0.82569588  0.42046524  0.03404967  1
  O2-  O568  1  0.84222031  0.40911344  0.35678997  1
  O2-  O569  1  0.82332883  0.41221160  0.68012727  1
  O2-  O570  1  0.86569509  0.71625307  -0.02052002  1
  O2-  O571  1  0.75414284  0.69716473  0.37356814  1
  O2-  O572  1  0.83781842  0.66765589  0.68356266  1
  O2-  O573  1  0.82961256  0.88165890  0.03091785  1
  O2-  O574  1  0.83654014  0.92268339  0.35107452  1
  O2-  O575  1  0.83821998  0.90636134  0.69537440  1
