# generated using pymatgen
data_H2O
_symmetry_space_group_name_H-M   'P 1'
_cell_length_a   17.98944863
_cell_length_b   17.99320269
_cell_length_c   22.00027619
_cell_angle_alpha   89.99371884
_cell_angle_beta   90.01147062
_cell_angle_gamma   120.01146430
_symmetry_Int_Tables_number   1
_chemical_formula_structural   H2O
_chemical_formula_sum   'H384 O192'
_cell_volume   6166.44551975
_cell_formula_units_Z   192
loop_
 _symmetry_equiv_pos_site_id
 _symmetry_equiv_pos_as_xyz
  1  'x, y, z'
loop_
 _atom_type_symbol
 _atom_type_oxidation_number
  H+  1.0
  O2-  -2.0
loop_
 _atom_site_type_symbol
 _atom_site_label
 _atom_site_symmetry_multiplicity
 _atom_site_fract_x
 _atom_site_fract_y
 _atom_site_fract_z
 _atom_site_occupancy
  H+  H0  1  0.62849104  0.49842709  0.15885142  1
  H+  H1  1  0.43847255  0.36451740  0.27821711  1
  H+  H2  1  0.73707037  0.11513915  -0.00597969  1
  H+  H3  1  0.61175453  0.88938997  0.34356644  1
  H+  H4  1  0.58355574  0.91110531  0.43909054  1
  H+  H5  1  0.63086498  0.62851115  0.32277553  1
  H+  H6  1  0.89697208  0.84323215  0.65005214  1
  H+  H7  1  0.12304466  0.23000944  0.15623210  1
  H+  H8  1  0.90587796  1.01907198  0.69519662  1
  H+  H9  1  0.38811788  0.86471009  0.16906467  1
  H+  H10  1  0.62090595  0.15103129  0.82519826  1
  H+  H11  1  0.73692958  0.12626304  0.84297858  1
  H+  H12  1  0.13539082  0.11457653  0.16687081  1
  H+  H13  1  0.86987992  0.14427250  0.83327725  1
  H+  H14  1  0.53741470  0.38859069  1.00539125  1
  H+  H15  1  0.65798909  0.59681842  0.82988584  1
  H+  H16  1  0.35283929  0.12678804  0.84804402  1
  H+  H17  1  0.08742287  0.46270893  0.83731328  1
  H+  H18  1  0.01784540  0.12780439  0.00828507  1
  H+  H19  1  0.27182873  0.12312651  0.33473728  1
  H+  H20  1  0.12485493  0.41662107  0.36150463  1
  H+  H21  1  0.61535619  0.91717169  0.83251551  1
  H+  H22  1  0.51123749  0.63349361  0.01985299  1
  H+  H23  1  0.37159799  0.34127677  0.51604138  1
  H+  H24  1  0.14425377  0.02694376  0.66006958  1
  H+  H25  1  0.85279589  0.93472548  0.65971604  1
  H+  H26  1  0.86146984  0.74158992  0.48616202  1
  H+  H27  1  0.22517290  0.10177670  0.50060045  1
  H+  H28  1  0.76995462  0.89952553  0.16441634  1
  H+  H29  1  0.59676576  0.13050614  0.33238646  1
  H+  H30  1  0.13701275  0.44176370  0.01868745  1
  H+  H31  1  0.72221125  0.11397888  0.33118023  1
  H+  H32  1  0.02790537  0.63687517  0.67324396  1
  H+  H33  1  0.59000054  0.62543271  0.49289698  1
  H+  H34  1  0.29017117  0.65199797  1.00378761  1
  H+  H35  1  0.60969949  0.39354368  0.66510681  1
  H+  H36  1  0.97882597  0.36641806  0.34191623  1
  H+  H37  1  0.85034175  0.96600444  0.00897665  1
  H+  H38  1  0.60771002  0.89669309  0.67887549  1
  H+  H39  1  0.13689261  0.11191922  -0.01216809  1
  H+  H40  1  0.36362913  0.97186421  -0.00469267  1
  H+  H41  1  0.27238352  0.12469849  0.14413737  1
  H+  H42  1  0.96858716  0.86124845  0.32344599  1
  H+  H43  1  0.26923391  0.39422040  0.33345238  1
  H+  H44  1  0.13736438  0.34272184  0.29653510  1
  H+  H45  1  0.08514845  0.91527411  0.73011826  1
  H+  H46  1  0.51509906  0.64544740  0.33661543  1
  H+  H47  1  0.37798885  0.48472252  0.00083413  1
  H+  H48  1  0.88096229  0.51952083  0.83855527  1
  H+  H49  1  0.10699185  0.96385435  0.48569935  1
  H+  H50  1  0.59764331  0.43499214  0.10198591  1
  H+  H51  1  0.86179617  0.52542389  0.47227514  1
  H+  H52  1  0.64106279  0.78194036  0.17936049  1
  H+  H53  1  0.85390166  0.72500224  0.33821903  1
  H+  H54  1  0.01924377  0.64037304  0.82923591  1
  H+  H55  1  0.60139189  0.80145158  0.82408328  1
  H+  H56  1  0.13132697  0.60470793  0.51417875  1
  H+  H57  1  0.97071516  0.34899429  0.51120624  1
  H+  H58  1  0.75226946  0.64055402  0.18080991  1
  H+  H59  1  0.47980203  0.87073477  0.32965181  1
  H+  H60  1  0.11834448  0.65771565  0.00890627  1
  H+  H61  1  0.13778664  0.10327295  0.50871849  1
  H+  H62  1  0.63239968  0.52436117  0.50824459  1
  H+  H63  1  0.92503419  0.27498975  0.19648935  1
  H+  H64  1  -0.01730031  0.11980096  0.31924768  1
  H+  H65  1  0.91549577  0.08980789  0.26555436  1
  H+  H66  1  0.11960575  0.47961997  0.67919506  1
  H+  H67  1  0.16371402  0.03904261  0.98943428  1
  H+  H68  1  0.65038365  0.86960908  0.51610132  1
  H+  H69  1  0.13388509  0.77070837  0.65669925  1
  H+  H70  1  0.12765185  0.73437348  0.49376258  1
  H+  H71  1  0.50513283  0.13487001  0.00123446  1
  H+  H72  1  0.56302131  0.13641486  0.65930231  1
  H+  H73  1  0.71142243  0.34465722  0.50663345  1
  H+  H74  1  0.87036582  0.62778843  0.82282999  1
  H+  H75  1  0.32349841  0.86943490  0.72160167  1
  H+  H76  1  0.13296909  0.23759539  0.31225379  1
  H+  H77  1  0.89124672  0.27311640  0.33839492  1
  H+  H78  1  0.52978103  0.89963776  0.00357550  1
  H+  H79  1  0.28040520  0.14026686  0.67762643  1
  H+  H80  1  0.11145708  0.64086337  0.15877724  1
  H+  H81  1  0.88299650  0.12264161  0.17037465  1
  H+  H82  1  0.11158509  0.97367745  0.33321998  1
  H+  H83  1  0.37565084  0.75273780  0.64216747  1
  H+  H84  1  0.91234458  0.57694176  0.90071652  1
  H+  H85  1  0.37433683  -0.00303848  0.65723298  1
  H+  H86  1  0.63323313  0.45661286  0.83185182  1
  H+  H87  1  0.30736646  0.38942614  0.15722408  1
  H+  H88  1  0.14249284  0.27389467  0.50820759  1
  H+  H89  1  0.37774524  1.01061758  0.49877655  1
  H+  H90  1  0.40235898  0.78015657  0.99339431  1
  H+  H91  1  0.63442696  0.28632268  0.66035531  1
  H+  H92  1  0.59680000  0.72372132  1.01289281  1
  H+  H93  1  0.30107166  0.65165635  0.82283730  1
  H+  H94  1  0.38101598  0.84614154  0.48716904  1
  H+  H95  1  0.89102220  0.61185975  0.66200525  1
  H+  H96  1  0.88687927  0.36839985  0.65748341  1
  H+  H97  1  0.86832972  0.78075233  0.16913108  1
  H+  H98  1  0.12734721  0.62763835  0.34504153  1
  H+  H99  1  0.42582491  0.09960688  0.66130415  1
  H+  H100  1  0.41766146  0.38455630  0.18170260  1
  H+  H101  1  0.86118332  0.38517454  0.33768152  1
  H+  H102  1  0.53009086  0.64625340  0.17145240  1
  H+  H103  1  0.13789796  0.24841454  -0.01738575  1
  H+  H104  1  0.59660121  0.22020428  0.33303267  1
  H+  H105  1  0.60660786  0.73259598  0.34021383  1
  H+  H106  1  0.13393409  0.85663447  0.17449328  1
  H+  H107  1  0.23684365  0.86200865  0.98668716  1
  H+  H108  1  0.72698589  0.86908245  0.33420649  1
  H+  H109  1  0.01216640  0.87246503  -0.01500851  1
  H+  H110  1  0.60282195  0.12926299  0.51051090  1
  H+  H111  1  0.64114202  0.01981627  -0.00902202  1
  H+  H112  1  0.10012528  0.39494780  0.15729249  1
  H+  H113  1  0.83518342  0.41032329  0.10103974  1
  H+  H114  1  -0.02848430  0.36461646  -0.01197627  1
  H+  H115  1  0.61894876  0.69072344  0.82957932  1
  H+  H116  1  0.08635939  0.67087962  0.43735635  1
  H+  H117  1  0.63663281  0.86843748  0.17690219  1
  H+  H118  1  0.11750275  0.26143655  0.82408051  1
  H+  H119  1  0.99789052  0.84741861  1.01419908  1
  H+  H120  1  0.47605937  0.59847927  0.66911357  1
  H+  H121  1  0.48705123  0.34750528  0.83916504  1
  H+  H122  1  0.39779442  0.53512575  0.17647025  1
  H+  H123  1  0.48310363  0.59894694  0.84898803  1
  H+  H124  1  1.01725634  0.63300885  0.16156654  1
  H+  H125  1  0.74028609  0.59179268  0.83599884  1
  H+  H126  1  0.63817262  0.10815218  0.17299174  1
  H+  H127  1  0.22468626  0.85542658  0.65486531  1
  H+  H128  1  0.29686906  0.38833934  1.00126011  1
  H+  H129  1  0.98893238  0.85304039  0.65789135  1
  H+  H130  1  0.72415576  0.61257293  0.65512954  1
  H+  H131  1  0.35906371  0.72133570  0.44827796  1
  H+  H132  1  0.37089310  0.11411018  0.33142925  1
  H+  H133  1  0.17525467  0.08141136  0.25838088  1
  H+  H134  1  0.47260194  0.57600450  0.81868910  1
  H+  H135  1  0.52016862  0.38292017  0.50246390  1
  H+  H136  1  0.19868353  0.37871899  0.17080399  1
  H+  H137  1  0.70472367  0.85975783  0.83099420  1
  H+  H138  1  0.89709160  0.01941258  0.52062094  1
  H+  H139  1  0.91072982  0.32214381  0.57023889  1
  H+  H140  1  0.47635989  0.11457725  0.32308549  1
  H+  H141  1  0.72269260  0.62602705  0.32804208  1
  H+  H142  1  0.11936620  0.14594125  0.81175887  1
  H+  H143  1  0.36397746  0.21864039  0.83674795  1
  H+  H144  1  0.86141235  0.22709483  1.00785998  1
  H+  H145  1  0.65429787  0.63731489  0.17839372  1
  H+  H146  1  0.16373204  0.82718250  0.26400841  1
  H+  H147  1  0.86691136  0.71396227  0.66866920  1
  H+  H148  1  0.61602293  0.89477727  1.00346478  1
  H+  H149  1  0.86795278  0.71477016  0.82240190  1
  H+  H150  1  0.37505735  0.23252706  0.99451175  1
  H+  H151  1  0.62584298  0.47752857  1.00231081  1
  H+  H152  1  0.32914523  0.91006606  0.42726931  1
  H+  H153  1  0.38768830  0.26902199  0.66483297  1
  H+  H154  1  0.86144987  0.89117586  0.34373080  1
  H+  H155  1  0.84214177  0.74787723  0.99702976  1
  H+  H156  1  0.60849036  0.72507807  0.67404492  1
  H+  H157  1  0.53696944  0.40074501  0.34835107  1
  H+  H158  1  0.14786991  0.33927353  0.98481550  1
  H+  H159  1  0.37413568  0.11207441  -0.03234987  1
  H+  H160  1  0.84143843  0.34562381  0.48953332  1
  H+  H161  1  0.44713490  0.77744341  0.81791734  1
  H+  H162  1  0.05323481  0.22244463  0.64274650  1
  H+  H163  1  0.11736850  0.88518905  0.67132801  1
  H+  H164  1  0.37342025  0.53841553  0.33076018  1
  H+  H165  1  0.11373480  0.98411439  0.82280351  1
  H+  H166  1  0.05113488  0.13837215  0.70831814  1
  H+  H167  1  0.07643297  0.91300884  0.22612167  1
  H+  H168  1  0.62855562  0.35737300  0.33490306  1
  H+  H169  1  0.38946618  0.78398098  0.33172431  1
  H+  H170  1  0.51230552  0.12659352  0.50688974  1
  H+  H171  1  0.22880565  0.87256186  0.84105024  1
  H+  H172  1  0.86996164  0.26928044  0.83266655  1
  H+  H173  1  0.46841875  0.84302923  0.49285740  1
  H+  H174  1  1.00406466  0.88212544  0.17765116  1
  H+  H175  1  0.01649399  0.39811567  0.16866624  1
  H+  H176  1  0.38536451  0.50791296  0.66919399  1
  H+  H177  1  1.02785072  0.13924217  0.80840314  1
  H+  H178  1  1.01556792  0.63749843  0.34058444  1
  H+  H179  1  0.13216407  0.53452903  0.35538502  1
  H+  H180  1  0.96748860  0.72498033  0.53589493  1
  H+  H181  1  0.77263718  0.39415515  0.66666077  1
  H+  H182  1  0.14373320  0.54258747  0.17317790  1
  H+  H183  1  0.47545153  0.36218127  0.65706756  1
  H+  H184  1  0.74303306  0.87636534  0.52126799  1
  H+  H185  1  0.60933391  0.38384829  0.50492766  1
  H+  H186  1  0.33567489  0.16707463  0.73843885  1
  H+  H187  1  0.88153713  0.11076396  1.00179146  1
  H+  H188  1  0.88210808  0.51125497  0.17603299  1
  H+  H189  1  0.10503889  0.35164747  0.83881579  1
  H+  H190  1  0.87488031  0.87497743  0.17140603  1
  H+  H191  1  0.13146046  0.76711359  0.17067426  1
  H+  H192  1  0.12744384  0.35678934  0.66071937  1
  H+  H193  1  0.64635938  0.61143030  -0.01530864  1
  H+  H194  1  0.36716872  -0.00333670  0.86312369  1
  H+  H195  1  0.11479242  0.38728609  0.50083889  1
  H+  H196  1  0.23139493  0.36311689  0.50688170  1
  H+  H197  1  0.87127990  0.59305171  0.17155099  1
  H+  H198  1  0.79023080  0.11586088  0.67621474  1
  H+  H199  1  0.64170848  0.04301228  0.84357137  1
  H+  H200  1  0.88742358  0.61072092  -0.00083233  1
  H+  H201  1  0.45100255  0.69190080  0.81995893  1
  H+  H202  1  0.64865311  1.02680924  0.66789151  1
  H+  H203  1  0.86568585  0.47514072  0.00698813  1
  H+  H204  1  0.83888953  0.86938119  0.82540333  1
  H+  H205  1  0.71333050  0.86006877  -0.00602618  1
  H+  H206  1  0.83779929  0.38503760  0.81808930  1
  H+  H207  1  0.27224063  0.87927895  0.48820865  1
  H+  H208  1  0.71818540  0.10132315  0.50860277  1
  H+  H209  1  0.39176848  0.62117711  0.17402352  1
  H+  H210  1  0.83063969  0.92033371  0.76923283  1
  H+  H211  1  0.88941466  0.01004179  0.84346831  1
  H+  H212  1  0.23511797  0.61536620  0.67052349  1
  H+  H213  1  0.39378666  0.88131000  0.84722172  1
  H+  H214  1  0.37030847  0.73213628  0.15765311  1
  H+  H215  1  0.77590656  0.38613210  1.00470719  1
  H+  H216  1  0.89344553  0.15668072  0.67741443  1
  H+  H217  1  0.85714393  0.12512921  0.49744399  1
  H+  H218  1  0.26671620  0.36823190  0.67416639  1
  H+  H219  1  0.39748778  0.43925290  0.46447922  1
  H+  H220  1  0.60397260  0.47870516  0.66329130  1
  H+  H221  1  0.13631369  0.86285989  0.50007459  1
  H+  H222  1  0.40682015  0.37063001  0.99092605  1
  H+  H223  1  0.63564320  1.01520198  0.17722406  1
  H+  H224  1  0.32005105  0.41833714  0.83829217  1
  H+  H225  1  0.86493181  -0.01865761  0.34370852  1
  H+  H226  1  0.52153009  0.88582458  0.15870703  1
  H+  H227  1  0.37161251  0.62661214  0.67664280  1
  H+  H228  1  0.66858699  0.84361964  0.60888073  1
  H+  H229  1  0.38121439  0.02020744  0.32460594  1
  H+  H230  1  0.96315419  0.78550074  0.89060245  1
  H+  H231  1  0.83302524  0.51148831  0.49958855  1
  H+  H232  1  0.14398606  0.11261891  0.31455413  1
  H+  H233  1  0.99775422  0.37471766  0.82924495  1
  H+  H234  1  0.10890764  0.47477945  0.50779448  1
  H+  H235  1  0.71387154  0.35039985  0.33102201  1
  H+  H236  1  0.39745589  0.35101604  0.83734257  1
  H+  H237  1  0.22402590  0.11761772  0.83454625  1
  H+  H238  1  0.67910897  0.12825354  0.66988699  1
  H+  H239  1  0.14099277  0.55476209  1.00285329  1
  H+  H240  1  0.97502618  0.36804223  0.65880899  1
  H+  H241  1  0.37571908  0.09491247  0.15967103  1
  H+  H242  1  0.02182160  0.13241551  0.50982919  1
  H+  H243  1  0.58323525  0.15521539  0.10506437  1
  H+  H244  1  0.11249334  0.60677721  0.84557345  1
  H+  H245  1  0.39611983  0.86709641  0.99383790  1
  H+  H246  1  0.72005932  0.35119367  0.18033477  1
  H+  H247  1  0.93191421  0.09407304  0.57375059  1
  H+  H248  1  0.59464463  0.21936644  0.00701907  1
  H+  H249  1  0.29650945  0.52958579  0.86054148  1
  H+  H250  1  0.98954993  0.85797412  0.84292832  1
  H+  H251  1  0.28694920  0.60960382  0.80624927  1
  H+  H252  1  0.70906101  0.38445921  0.82798608  1
  H+  H253  1  0.71675126  0.61849877  0.50141548  1
  H+  H254  1  0.86307145  0.37949113  0.16098067  1
  H+  H255  1  0.35124041  0.85470470  0.65517132  1
  H+  H256  1  0.67595962  0.60785234  0.25326554  1
  H+  H257  1  0.86554120  0.14021574  0.34259195  1
  H+  H258  1  0.82930679  0.86651226  1.00710710  1
  H+  H259  1  0.52694166  0.91777351  0.83323415  1
  H+  H260  1  0.10657810  0.72856375  0.33741448  1
  H+  H261  1  0.28042569  0.14910295  0.98847359  1
  H+  H262  1  0.71170038  0.86913939  0.67475155  1
  H+  H263  1  0.86503939  0.48128989  0.66551841  1
  H+  H264  1  0.27104167  0.88474492  0.33328336  1
  H+  H265  1  0.36300408  0.49153828  0.50279578  1
  H+  H266  1  0.27501565  0.87927131  0.15047375  1
  H+  H267  1  0.35890140  0.21344354  0.49025025  1
  H+  H268  1  0.50115889  0.38000407  0.18565699  1
  H+  H269  1  0.88571215  0.03583825  0.16944356  1
  H+  H270  1  0.61983540  0.26353211  0.51811034  1
  H+  H271  1  0.85079141  0.64791468  0.48782709  1
  H+  H272  1  0.36340293  0.88993145  0.33398358  1
  H+  H273  1  0.82163249  0.21992079  0.15301727  1
  H+  H274  1  0.13323470  0.85999442  0.32239156  1
  H+  H275  1  0.16593143  0.91697196  1.01118601  1
  H+  H276  1  0.66567784  0.07935510  0.27080187  1
  H+  H277  1  0.62490615  0.21667197  0.16442531  1
  H+  H278  1  0.42729106  0.84682174  0.90213084  1
  H+  H279  1  0.11069918  0.72981792  0.82915280  1
  H+  H280  1  0.45661053  0.60788257  0.51252632  1
  H+  H281  1  0.60475701  0.96427398  0.50061142  1
  H+  H282  1  0.36193410  0.97106564  0.15365952  1
  H+  H283  1  0.35541283  0.64487747  0.34618063  1
  H+  H284  1  0.87913398  0.69040128  0.18565080  1
  H+  H285  1  0.64570472  0.36700564  0.99642863  1
  H+  H286  1  0.87810471  0.61180409  0.33015399  1
  H+  H287  1  0.61153518  0.97842571  0.34462718  1
  H+  H288  1  0.33951899  0.91830512  0.05869409  1
  H+  H289  1  0.17719795  0.08260381  0.60129796  1
  H+  H290  1  0.15102342  0.31525986  0.89233813  1
  H+  H291  1  0.58425152  0.67366343  0.10975901  1
  H+  H292  1  0.19318993  0.59464018  0.84475111  1
  H+  H293  1  0.36179641  0.43169513  0.09732246  1
  H+  H294  1  0.58631467  0.93740027  0.73649863  1
  H+  H295  1  0.40573408  0.57369238  0.57534158  1
  H+  H296  1  0.85645968  0.47152102  0.34166668  1
  H+  H297  1  0.83872034  0.15322720  0.76693857  1
  H+  H298  1  0.39541853  0.06202882  0.56134708  1
  H+  H299  1  0.90834053  0.58048388  0.27180371  1
  H+  H300  1  0.40433293  0.07032215  0.22189967  1
  H+  H301  1  0.22650785  0.62935977  0.35014077  1
  H+  H302  1  0.77668249  0.62344373  0.02074274  1
  H+  H303  1  0.40833176  0.31577165  0.57258558  1
  H+  H304  1  0.75244993  0.12185568  0.16297405  1
  H+  H305  1  0.67879808  0.09052422  0.92685245  1
  H+  H306  1  0.06965260  0.15219529  0.44850454  1
  H+  H307  1  0.83280904  0.16316394  0.40396661  1
  H+  H308  1  0.88113211  0.88432667  0.49756865  1
  H+  H309  1  0.31831068  0.43227480  0.39762176  1
  H+  H310  1  0.40670810  0.59778918  0.27127675  1
  H+  H311  1  0.11104174  0.18049541  0.37256279  1
  H+  H312  1  0.16005285  0.08996589  0.88999582  1
  H+  H313  1  0.32866912  0.38957312  0.77065187  1
  H+  H314  1  0.35688999  0.12310689  0.48884846  1
  H+  H315  1  0.08532450  0.66986514  0.73353699  1
  H+  H316  1  0.11998716  0.89737024  0.82539740  1
  H+  H317  1  0.66848686  0.07583062  0.57103739  1
  H+  H318  1  0.85797472  0.21381554  0.49887211  1
  H+  H319  1  1.00186042  0.66444256  0.51197190  1
  H+  H320  1  0.82460063  0.16616191  0.06786734  1
  H+  H321  1  0.81215441  0.37929215  0.43114768  1
  H+  H322  1  0.82120627  0.66806790  0.39892873  1
  H+  H323  1  0.92554755  0.33357513  0.25021361  1
  H+  H324  1  0.61655665  0.63970473  0.66795159  1
  H+  H325  1  0.07911678  0.67852425  0.06735274  1
  H+  H326  1  0.33246096  0.15110886  0.08576427  1
  H+  H327  1  0.82182871  0.42514824  0.75823095  1
  H+  H328  1  0.66724064  0.33988651  0.93395588  1
  H+  H329  1  0.16271946  0.57711714  0.57359896  1
  H+  H330  1  0.84635040  0.92357170  0.44622956  1
  H+  H331  1  0.44859995  0.59808843  0.94556387  1
  H+  H332  1  0.35705807  0.37033716  0.67127607  1
  H+  H333  1  0.43400107  0.33627980  0.93188172  1
  H+  H334  1  0.12697398  0.94284764  0.06640889  1
  H+  H335  1  0.35388412  0.96205128  0.79432010  1
  H+  H336  1  0.97614470  0.05699128  0.87918029  1
  H+  H337  1  0.82309533  0.92152169  0.10209357  1
  H+  H338  1  0.56020472  0.65475560  0.43445256  1
  H+  H339  1  0.08252507  0.42758157  0.42212959  1
  H+  H340  1  0.12926181  1.02300377  0.17204383  1
  H+  H341  1  0.08358538  0.16320255  0.06447414  1
  H+  H342  1  0.65939124  0.31721994  0.23860352  1
  H+  H343  1  0.65312277  0.83117637  0.93425059  1
  H+  H344  1  0.23239432  0.62918948  0.16656080  1
  H+  H345  1  0.16401731  0.60113651  0.93957259  1
  H+  H346  1  0.90346171  0.83495541  0.26686665  1
  H+  H347  1  0.87020574  0.80461544  0.93683765  1
  H+  H348  1  0.93567180  0.61007543  0.60143126  1
  H+  H349  1  0.37285244  0.63803062  0.00053166  1
  H+  H350  1  0.66492226  0.59015900  0.59510703  1
  H+  H351  1  0.83778378  0.66404140  0.07961454  1
  H+  H352  1  0.15887218  0.32907811  0.60085524  1
  H+  H353  1  0.58456420  0.91944667  0.10049543  1
  H+  H354  1  0.33281828  0.51828248  0.92286373  1
  H+  H355  1  0.92616505  0.82510688  0.55142197  1
  H+  H356  1  0.02591045  0.14804719  0.15809711  1
  H+  H357  1  0.07996831  0.41464759  0.73520822  1
  H+  H358  1  0.66662317  0.33919394  0.59832638  1
  H+  H359  1  0.90743750  0.07829688  0.94239248  1
  H+  H360  1  0.40631626  0.39992719  0.33239165  1
  H+  H361  1  0.41895518  0.83852139  0.23054832  1
  H+  H362  1  0.19427903  0.32608874  0.23309742  1
  H+  H363  1  0.34541275  0.67384573  0.09757792  1
  H+  H364  1  0.67914358  0.57806550  0.92857992  1
  H+  H365  1  0.07867906  0.91096842  0.39189633  1
  H+  H366  1  0.14642444  0.61732854  0.66959341  1
  H+  H367  1  0.67011339  0.84233826  0.27323515  1
  H+  H368  1  0.16686850  0.83859921  0.89724325  1
  H+  H369  1  0.38082076  0.69174168  0.72808268  1
  H+  H370  1  0.59146372  0.41449143  0.40789263  1
  H+  H371  1  0.54353370  0.16789875  0.83083029  1
  H+  H372  1  0.33091813  0.15236422  0.39700870  1
  H+  H373  1  0.83189962  0.65515386  0.72850064  1
  H+  H374  1  0.62366604  0.67366396  0.75894680  1
  H+  H375  1  0.89405894  0.32697421  0.89249096  1
  H+  H376  1  0.88230604  0.36188151  0.98996570  1
  H+  H377  1  0.56916879  0.17022725  0.72755159  1
  H+  H378  1  0.97814469  0.61675705  0.99402095  1
  H+  H379  1  0.07707930  0.44004649  0.07055286  1
  H+  H380  1  0.13978758  0.78283657  0.99280886  1
  H+  H381  1  0.16757055  0.83732076  0.56202354  1
  H+  H382  1  0.01447562  0.87321204  0.48447856  1
  H+  H383  1  0.38999792  0.80206692  0.57814801  1
  O2-  O384  1  0.08458531  0.17021860  0.14086459  1
  O2-  O385  1  0.08208561  0.16275464  0.49164429  1
  O2-  O386  1  0.08758262  0.17467081  0.79409376  1
  O2-  O387  1  0.07337264  0.42884034  0.14684970  1
  O2-  O388  1  0.08016685  0.41419900  0.48875651  1
  O2-  O389  1  0.06162609  0.40330288  0.82058555  1
  O2-  O390  1  0.07610220  0.66737323  0.14447494  1
  O2-  O391  1  0.09160483  0.67208379  0.48218719  1
  O2-  O392  1  0.08033714  0.66873614  0.81492476  1
  O2-  O393  1  0.06886713  0.90938027  0.18206776  1
  O2-  O394  1  0.07841189  0.90477275  0.46826967  1
  O2-  O395  1  0.08431930  0.92215368  0.81024050  1
  O2-  O396  1  0.33171141  0.14576616  0.13046025  1
  O2-  O397  1  0.32829153  0.15486015  0.47173720  1
  O2-  O398  1  0.32776810  0.15683620  0.82477611  1
  O2-  O399  1  0.36343807  0.43657629  0.14257477  1
  O2-  O400  1  0.34326304  0.43203999  0.47957606  1
  O2-  O401  1  0.32825635  0.37642568  0.81449901  1
  O2-  O402  1  0.34003043  0.67135860  0.14287906  1
  O2-  O403  1  0.32668213  0.66185520  0.42925360  1
  O2-  O404  1  0.46892428  0.74366902  0.79592023  1
  O2-  O405  1  0.33497864  0.90938512  0.13552427  1
  O2-  O406  1  0.33241389  0.90654446  0.47238878  1
  O2-  O407  1  0.34089353  0.93835713  0.83537388  1
  O2-  O408  1  0.60561139  0.15792995  0.14652966  1
  O2-  O409  1  0.57532408  0.16398649  0.50242601  1
  O2-  O410  1  0.58698464  0.17123950  0.80262177  1
  O2-  O411  1  0.59681320  0.43783735  0.14685526  1
  O2-  O412  1  0.58132194  0.41728673  0.49057880  1
  O2-  O413  1  0.60441062  0.39389933  0.82059301  1
  O2-  O414  1  0.59020931  0.67777191  0.15515489  1
  O2-  O415  1  0.55161715  0.64665724  0.47873884  1
  O2-  O416  1  0.65303691  0.68137014  0.79957022  1
  O2-  O417  1  0.58338098  0.91495996  0.14550552  1
  O2-  O418  1  0.57928390  0.90460260  0.48418820  1
  O2-  O419  1  0.58802263  0.94999274  0.81750707  1
  O2-  O420  1  0.81380798  0.16333804  0.14374073  1
  O2-  O421  1  0.82662608  0.15394144  0.48119298  1
  O2-  O422  1  0.83642161  0.16586057  0.81267507  1
  O2-  O423  1  0.83643097  0.41226291  0.14654754  1
  O2-  O424  1  0.79812562  0.35913614  0.47357164  1
  O2-  O425  1  0.81567521  0.42278748  0.80420508  1
  O2-  O426  1  0.83398252  0.67657753  0.15584064  1
  O2-  O427  1  0.82023640  0.67626297  0.47158662  1
  O2-  O428  1  0.83839546  0.65580841  0.80549636  1
  O2-  O429  1  0.82985342  0.93094133  0.14717950  1
  O2-  O430  1  0.85267350  0.92166062  0.49086756  1
  O2-  O431  1  0.81961489  0.90954707  0.81403050  1
  O2-  O432  1  0.16630853  0.08484564  0.18138805  1
  O2-  O433  1  0.16576801  0.06925540  0.51799420  1
  O2-  O434  1  0.16052176  0.09129892  0.84427672  1
  O2-  O435  1  0.19985405  0.32750153  0.18340208  1
  O2-  O436  1  0.17157185  0.33490739  0.52172599  1
  O2-  O437  1  0.13738974  0.31847352  0.84761937  1
  O2-  O438  1  0.17258867  0.60424231  0.18225800  1
  O2-  O439  1  0.15511050  0.56890642  0.52904576  1
  O2-  O440  1  0.13617596  0.57061026  0.86341615  1
  O2-  O441  1  0.16632588  0.82778894  0.18621255  1
  O2-  O442  1  0.17004742  0.83638899  0.51662021  1
  O2-  O443  1  0.16628075  0.83879813  0.85142025  1
  O2-  O444  1  0.40110637  0.06085088  0.17787621  1
  O2-  O445  1  0.40117203  0.06958571  0.51587738  1
  O2-  O446  1  0.40541693  0.08046932  0.88782557  1
  O2-  O447  1  0.44245864  0.35447951  0.20369670  1
  O2-  O448  1  0.40580136  0.31433911  0.52601963  1
  O2-  O449  1  0.42879943  0.32304128  0.85647560  1
  O2-  O450  1  0.42218504  0.59403872  0.19435942  1
  O2-  O451  1  0.39748909  0.57504479  0.53082568  1
  O2-  O452  1  0.29398266  0.48569389  0.88773281  1
  O2-  O453  1  0.42012592  0.83621663  0.18537313  1
  O2-  O454  1  0.40430169  0.80712323  0.49611394  1
  O2-  O455  1  0.42885754  0.85360960  0.85670246  1
  O2-  O456  1  0.66807329  0.07541435  0.19270842  1
  O2-  O457  1  0.65933052  0.07064277  0.52629327  1
  O2-  O458  1  0.67874631  0.10254759  0.86204899  1
  O2-  O459  1  0.66212418  0.30943541  0.19400245  1
  O2-  O460  1  0.65470637  0.32755835  0.52685357  1
  O2-  O461  1  0.65516955  0.36287005  0.85258101  1
  O2-  O462  1  0.68542971  0.60979825  0.19698558  1
  O2-  O463  1  0.65848901  0.58617984  0.52033094  1
  O2-  O464  1  0.67938500  0.56153249  0.85075161  1
  O2-  O465  1  0.67057133  0.84295413  0.19410310  1
  O2-  O466  1  0.68554684  0.85184990  0.54017632  1
  O2-  O467  1  0.64840735  0.84339540  0.84994007  1
  O2-  O468  1  0.91737800  0.09680489  0.18453035  1
  O2-  O469  1  0.92362096  0.08300507  0.52980796  1
  O2-  O470  1  0.93308003  0.06756338  0.86032326  1
  O2-  O471  1  0.92678836  0.32948731  0.20366273  1
  O2-  O472  1  0.91009927  0.31372638  0.52448924  1
  O2-  O473  1  0.89479248  0.32984802  0.84735478  1
  O2-  O474  1  0.90767594  0.57244170  0.19026690  1
  O2-  O475  1  0.95297547  0.66493656  0.53382853  1
  O2-  O476  1  0.91634549  0.57937138  0.85523564  1
  O2-  O477  1  0.90098485  0.84055901  0.18716075  1
  O2-  O478  1  0.92375493  0.82697338  0.50696695  1
  O2-  O479  1  0.93762204  0.81100151  0.86482974  1
  O2-  O480  1  0.17207477  0.07811673  0.30401383  1
  O2-  O481  1  0.17744754  0.08710349  0.64617149  1
  O2-  O482  1  0.17170074  0.09113148  0.96649842  1
  O2-  O483  1  0.17943850  0.32383594  0.29532322  1
  O2-  O484  1  0.14494986  0.31557197  0.64480693  1
  O2-  O485  1  0.17017832  0.30749486  0.96309826  1
  O2-  O486  1  0.16255314  0.59548638  0.33806349  1
  O2-  O487  1  0.17465237  0.58427890  0.65628311  1
  O2-  O488  1  0.17574490  0.61216806  0.98396954  1
  O2-  O489  1  0.16256547  0.82747738  0.30975034  1
  O2-  O490  1  0.16374524  0.83109734  0.64103953  1
  O2-  O491  1  0.17601014  0.84036624  0.97328524  1
  O2-  O492  1  0.40870148  0.08140875  0.30999982  1
  O2-  O493  1  0.39020407  0.05056409  0.63508585  1
  O2-  O494  1  0.39933583  0.07450381  0.95526840  1
  O2-  O495  1  0.43751456  0.36938954  0.32383893  1
  O2-  O496  1  0.41252715  0.32715370  0.64420076  1
  O2-  O497  1  0.43468672  0.33725588  0.97758179  1
  O2-  O498  1  0.40426976  0.60033404  0.31677376  1
  O2-  O499  1  0.41498425  0.56906558  0.65535496  1
  O2-  O500  1  0.40651939  0.57658646  0.97826369  1
  O2-  O501  1  0.41955220  0.84145799  0.31262611  1
  O2-  O502  1  0.38884814  0.80788411  0.62293172  1
  O2-  O503  1  0.43120580  0.84138556  0.97865839  1
  O2-  O504  1  0.66223991  0.08055963  0.31626299  1
  O2-  O505  1  0.69045199  0.08704648  0.64938641  1
  O2-  O506  1  0.67744890  0.08266647  0.97477188  1
  O2-  O507  1  0.65358841  0.32183822  0.31689110  1
  O2-  O508  1  0.67097952  0.34544964  0.64447169  1
  O2-  O509  1  0.67402319  0.33573134  0.97815480  1
  O2-  O510  1  0.66587295  0.60301213  0.30612983  1
  O2-  O511  1  0.66402612  0.58956581  0.64100458  1
  O2-  O512  1  0.67797409  0.58181076  0.97406743  1
  O2-  O513  1  0.66660386  0.83954297  0.31861258  1
  O2-  O514  1  0.65599294  0.83591066  0.65507375  1
  O2-  O515  1  0.65218123  0.83138420  0.97918912  1
  O2-  O516  1  0.91984728  0.08997784  0.31076636  1
  O2-  O517  1  0.99443877  0.16738265  0.64364087  1
  O2-  O518  1  0.90950953  0.07783066  0.98719221  1
  O2-  O519  1  0.92230979  0.33368602  0.32144211  1
  O2-  O520  1  0.91566102  0.33667892  0.64303909  1
  O2-  O521  1  0.91133674  0.32950513  0.97480036  1
  O2-  O522  1  0.91190331  0.58403492  0.31703227  1
  O2-  O523  1  0.92783143  0.58953561  0.64450352  1
  O2-  O524  1  0.91720066  0.58203012  0.97987671  1
  O2-  O525  1  0.90658371  0.83237920  0.31212974  1
  O2-  O526  1  0.92937192  0.81507283  0.63979824  1
  O2-  O527  1  0.83419572  0.79060706  0.97316962  1
  O2-  O528  1  0.08014432  0.15810071  0.01883265  1
  O2-  O529  1  0.09664923  0.17171815  0.32958869  1
  O2-  O530  1  0.01005557  0.10462798  0.67559714  1
  O2-  O531  1  0.08535717  0.44540519  0.02530523  1
  O2-  O532  1  0.08563728  0.43616920  0.37457950  1
  O2-  O533  1  0.08611512  0.41727005  0.69055912  1
  O2-  O534  1  0.08128678  0.68188479  0.02176602  1
  O2-  O535  1  0.07708951  0.66868900  0.35518993  1
  O2-  O536  1  0.08897208  0.66892652  0.68845721  1
  O2-  O537  1  0.16771816  0.96654864  0.03311981  1
  O2-  O538  1  0.07853296  0.91194593  0.34574424  1
  O2-  O539  1  0.08358623  0.91282056  0.68488309  1
  O2-  O540  1  0.34009307  0.16906123  0.00249112  1
  O2-  O541  1  0.33179322  0.14866554  0.35109878  1
  O2-  O542  1  0.34016211  0.17357776  0.69392124  1
  O2-  O543  1  0.35512331  0.42307278  0.01741365  1
  O2-  O544  1  0.32457640  0.43818702  0.35293741  1
  O2-  O545  1  0.32640757  0.39977078  0.68906135  1
  O2-  O546  1  0.35035718  0.67658803  0.01757168  1
  O2-  O547  1  0.32492039  0.67612366  0.36373229  1
  O2-  O548  1  0.34889762  0.66506634  0.69046045  1
  O2-  O549  1  0.33928823  0.91352996  0.01297060  1
  O2-  O550  1  0.33111356  0.91868090  0.34872936  1
  O2-  O551  1  0.32566000  0.88659099  0.67943947  1
  O2-  O552  1  0.55918710  0.16160919  0.02435067  1
  O2-  O553  1  0.56113302  0.15663462  0.34221083  1
  O2-  O554  1  0.55974428  0.17955688  0.68392795  1
  O2-  O555  1  0.59802513  0.41915248  0.02069064  1
  O2-  O556  1  0.59546737  0.41508494  0.36309162  1
  O2-  O557  1  0.57315200  0.41817797  0.67713825  1
  O2-  O558  1  0.57334058  0.66568785  0.03103768  1
  O2-  O559  1  0.57571547  0.67005256  0.35049039  1
  O2-  O560  1  0.58477959  0.66528976  0.68945148  1
  O2-  O561  1  0.59165524  0.93149772  0.01790249  1
  O2-  O562  1  0.57928170  0.91730448  0.35904666  1
  O2-  O563  1  0.58922354  0.93803585  0.69155610  1
  O2-  O564  1  0.83071199  0.16599602  0.02231348  1
  O2-  O565  1  0.83577689  0.17048237  0.35848292  1
  O2-  O566  1  0.84062076  0.12670896  0.70162498  1
  O2-  O567  1  0.83664203  0.41396289  0.02080826  1
  O2-  O568  1  0.82622154  0.40978578  0.35272464  1
  O2-  O569  1  0.83287849  0.42281616  0.68376258  1
  O2-  O570  1  0.83725391  0.65918013  0.03386504  1
  O2-  O571  1  0.82189801  0.66430637  0.35260885  1
  O2-  O572  1  0.83033112  0.65357544  0.68303965  1
  O2-  O573  1  0.81222943  0.90768046  0.02547892  1
  O2-  O574  1  0.83341822  0.92241588  0.36089491  1
  O2-  O575  1  0.85386940  0.96094908  0.69854016  1
