# generated using pymatgen
data_H2O
_symmetry_space_group_name_H-M   'P 1'
_cell_length_a   17.99421987
_cell_length_b   17.99676085
_cell_length_c   21.99748860
_cell_angle_alpha   90.01966579
_cell_angle_beta   90.01830001
_cell_angle_gamma   119.98913723
_symmetry_Int_Tables_number   1
_chemical_formula_structural   H2O
_chemical_formula_sum   'H384 O192'
_cell_volume   6169.90580092
_cell_formula_units_Z   192
loop_
 _symmetry_equiv_pos_site_id
 _symmetry_equiv_pos_as_xyz
  1  'x, y, z'
loop_
 _atom_type_symbol
 _atom_type_oxidation_number
  H+  1.0
  O2-  -2.0
loop_
 _atom_site_type_symbol
 _atom_site_label
 _atom_site_symmetry_multiplicity
 _atom_site_fract_x
 _atom_site_fract_y
 _atom_site_fract_z
 _atom_site_occupancy
  H+  H0  1  0.71177358  0.11365249  1.01256343  1
  H+  H1  1  0.06695790  0.80758447  0.21232048  1
  H+  H2  1  0.35874234  0.47445791  0.51007279  1
  H+  H3  1  0.72713026  0.12595403  0.50510110  1
  H+  H4  1  0.37188701  -0.01872166  0.98804924  1
  H+  H5  1  0.88243716  0.35667004  0.83886462  1
  H+  H6  1  0.37886417  0.10660329  0.98379372  1
  H+  H7  1  0.12774410  0.50692018  0.85020785  1
  H+  H8  1  0.40460884  0.85181254  0.67740755  1
  H+  H9  1  0.44770386  0.86460030  0.54621722  1
  H+  H10  1  0.91433129  0.63381150  0.71267401  1
  H+  H11  1  0.02439240  0.13127789  0.50315809  1
  H+  H12  1  0.51892542  0.14168587  0.81025977  1
  H+  H13  1  0.38847939  0.52745623  0.18077298  1
  H+  H14  1  0.11405251  0.24115751  0.01661864  1
  H+  H15  1  0.80196840  0.64725999  0.67182597  1
  H+  H16  1  0.63754791  0.04191400  0.50492518  1
  H+  H17  1  0.14375913  0.52897338  0.50797709  1
  H+  H18  1  0.99017364  0.13248511  0.34019293  1
  H+  H19  1  0.35383040  0.21753604  0.00456908  1
  H+  H20  1  0.13744935  0.14491367  0.17010779  1
  H+  H21  1  0.36042460  0.13143857  0.66784544  1
  H+  H22  1  0.08843542  0.93446649  0.73416012  1
  H+  H23  1  0.00254151  0.13338245  0.18524289  1
  H+  H24  1  0.11007320  0.72876914  0.34278762  1
  H+  H25  1  0.36924511  0.49448184  0.35450534  1
  H+  H26  1  0.64779515  0.82590265  0.89380127  1
  H+  H27  1  0.86879592  0.14008208  0.31680982  1
  H+  H28  1  0.63781874  0.38009204  0.99117657  1
  H+  H29  1  0.86039225  0.13175157  0.49869703  1
  H+  H30  1  0.29933239  0.40804413  0.81347660  1
  H+  H31  1  0.36298942  -0.03786154  0.68002702  1
  H+  H32  1  0.51909914  0.39046282  0.49887755  1
  H+  H33  1  0.38243392  0.27686145  0.50627916  1
  H+  H34  1  0.86137166  0.22041163  0.49363261  1
  H+  H35  1  0.13302455  1.01723811  0.32910394  1
  H+  H36  1  0.74972973  0.68736068  0.69931500  1
  H+  H37  1  0.63540423  0.10226013  0.32549727  1
  H+  H38  1  0.61009428  0.39375554  0.49307486  1
  H+  H39  1  0.27396096  0.89871369  0.82864249  1
  H+  H40  1  0.29649734  0.39076246  0.66070865  1
  H+  H41  1  0.61796046  0.76008158  -0.01290769  1
  H+  H42  1  0.65726467  0.43837312  0.11860272  1
  H+  H43  1  0.11119502  0.46795566  0.01392376  1
  H+  H44  1  0.57605330  0.18684018  0.16506335  1
  H+  H45  1  0.51156531  0.62604564  0.00404479  1
  H+  H46  1  0.52862517  0.14085136  0.33843544  1
  H+  H47  1  0.36733083  0.72604405  0.50970148  1
  H+  H48  1  0.33685642  0.63244132  0.82091157  1
  H+  H49  1  0.96890142  0.36127458  0.99755122  1
  H+  H50  1  0.11252329  0.08833663  0.30496581  1
  H+  H51  1  0.87091318  0.75835658  -0.01240241  1
  H+  H52  1  0.60207871  0.73143563  0.82588774  1
  H+  H53  1  0.16050324  0.85920514  1.00929742  1
  H+  H54  1  0.64472364  0.32856464  0.28098685  1
  H+  H55  1  0.22866168  0.36359117  0.50475469  1
  H+  H56  1  0.72785995  0.36353822  0.65380535  1
  H+  H57  1  0.11453279  0.90062481  0.82206475  1
  H+  H58  1  0.48105847  0.35824980  0.16854107  1
  H+  H59  1  0.03541251  0.66645186  0.69907701  1
  H+  H60  1  0.22204214  0.60644767  0.84767068  1
  H+  H61  1  0.92632989  0.63807231  0.84928679  1
  H+  H62  1  0.88349444  0.59284284  0.69652696  1
  H+  H63  1  0.64092847  1.01458620  0.33163906  1
  H+  H64  1  0.86455615  0.10427826  0.02759944  1
  H+  H65  1  0.60834556  0.14739597  0.79684369  1
  H+  H66  1  0.47228700  0.33515039  0.85436426  1
  H+  H67  1  0.25830064  0.37793721  0.00283087  1
  H+  H68  1  0.26490103  0.13006253  1.00597134  1
  H+  H69  1  0.63110364  0.52471966  0.53027662  1
  H+  H70  1  0.34080601  0.42944803  0.44328412  1
  H+  H71  1  0.77265075  0.12862710  0.31236040  1
  H+  H72  1  0.49307072  0.13593535  0.49762165  1
  H+  H73  1  0.11312096  0.38548176  0.52192758  1
  H+  H74  1  0.01781185  0.38326560  0.83219566  1
  H+  H75  1  0.59446969  0.95799434  0.15737743  1
  H+  H76  1  0.07964470  0.18159511  0.81551731  1
  H+  H77  1  0.88948177  0.01531289  0.50737873  1
  H+  H78  1  0.14687337  0.61760204  0.49217782  1
  H+  H79  1  0.37404435  0.97194143  0.14821664  1
  H+  H80  1  0.61932404  0.51528889  0.33324660  1
  H+  H81  1  0.36214414  -0.10271628  0.34824636  1
  H+  H82  1  -0.01969814  0.85486419  0.51113575  1
  H+  H83  1  0.53823248  0.43738328  0.80027928  1
  H+  H84  1  0.88954418  0.52095038  0.49491437  1
  H+  H85  1  0.45068411  0.82630200  0.17538775  1
  H+  H86  1  0.67006476  0.35116755  0.93387934  1
  H+  H87  1  0.70862544  0.11989245  0.84356796  1
  H+  H88  1  0.90600590  0.37656164  0.16366261  1
  H+  H89  1  0.62960887  0.28350054  0.83055432  1
  H+  H90  1  0.38531942  0.53385132  0.83115143  1
  H+  H91  1  0.89689259  0.09673174  1.04434374  1
  H+  H92  1  0.97361886  0.87547478  0.83428622  1
  H+  H93  1  0.36007683  0.15451952  0.33168046  1
  H+  H94  1  0.80548392  0.41223774  0.15816823  1
  H+  H95  1  0.14126186  1.02238984  0.16030159  1
  H+  H96  1  0.31055044  0.70060261  0.17966244  1
  H+  H97  1  0.13327683  0.12417995  0.99626901  1
  H+  H98  1  0.60622085  0.96364610  0.00626140  1
  H+  H99  1  0.84487231  -0.05652742  0.99236036  1
  H+  H100  1  0.82286854  0.71371023  0.36654487  1
  H+  H101  1  0.71145832  0.59974333  0.33654853  1
  H+  H102  1  0.13096956  0.72927452  0.98573408  1
  H+  H103  1  0.60082719  0.87108362  -0.00049277  1
  H+  H104  1  0.15569052  0.28270214  0.19035494  1
  H+  H105  1  0.77202480  0.39780222  0.00572515  1
  H+  H106  1  0.08537280  0.90009644  -0.02860810  1
  H+  H107  1  0.36588592  0.85609611  0.51424066  1
  H+  H108  1  0.75653119  0.11872262  0.67092868  1
  H+  H109  1  0.65958347  0.76798875  0.65499785  1
  H+  H110  1  0.87832695  0.73675440  0.83042449  1
  H+  H111  1  0.06212484  0.67128479  0.83380527  1
  H+  H112  1  0.11267392  0.97247769  0.49644990  1
  H+  H113  1  0.12283515  0.78079932  0.17467442  1
  H+  H114  1  0.84979236  0.12623690  0.67360825  1
  H+  H115  1  0.36567466  0.14683670  0.48506764  1
  H+  H116  1  0.87679647  0.86007672  0.83216214  1
  H+  H117  1  0.24851520  0.86810408  0.98838847  1
  H+  H118  1  0.03143829  0.89308957  0.33938468  1
  H+  H119  1  0.11719462  0.73122067  0.49554142  1
  H+  H120  1  0.11550883  0.36401645  0.99469354  1
  H+  H121  1  0.47115504  0.10327244  0.65042188  1
  H+  H122  1  0.15580030  0.16257495  0.82223900  1
  H+  H123  1  0.97501194  0.11605583  0.66324560  1
  H+  H124  1  0.23628966  0.11460922  0.84204652  1
  H+  H125  1  0.11704049  0.02914996  0.98790885  1
  H+  H126  1  0.33581294  0.16420795  0.09724542  1
  H+  H127  1  0.27452662  0.87497700  0.67710328  1
  H+  H128  1  0.76340102  0.63451562  0.99956937  1
  H+  H129  1  0.22822158  0.86980847  0.50833609  1
  H+  H130  1  0.48602127  0.86521264  -0.02075973  1
  H+  H131  1  0.83005857  -0.01780817  0.82602646  1
  H+  H132  1  0.90518371  0.54368667  0.17460785  1
  H+  H133  1  0.61711866  0.22632156  0.34387441  1
  H+  H134  1  0.62915057  0.48785315  0.16501339  1
  H+  H135  1  0.47532054  0.19713717  0.27717633  1
  H+  H136  1  0.15214037  0.38325940  0.33923342  1
  H+  H137  1  1.02514051  0.89784537  0.67193810  1
  H+  H138  1  0.87965918  0.26723605  0.84205659  1
  H+  H139  1  0.86767161  0.45940320  0.66381445  1
  H+  H140  1  0.85293802  0.63621621  0.00646143  1
  H+  H141  1  0.61936699  0.14811361  0.49263284  1
  H+  H142  1  0.12513657  -0.00118681  0.66532500  1
  H+  H143  1  0.13938409  0.50344733  0.34385814  1
  H+  H144  1  0.61053180  0.63278368  0.15728084  1
  H+  H145  1  0.38202380  0.39927914  0.81940625  1
  H+  H146  1  0.15451521  0.18025265  0.36366007  1
  H+  H147  1  0.08937935  0.17190797  0.44652270  1
  H+  H148  1  0.62609532  0.61291427  0.98446264  1
  H+  H149  1  0.17699625  0.30393383  0.82960900  1
  H+  H150  1  0.47610881  0.62579518  0.33275873  1
  H+  H151  1  0.13626512  0.11084503  0.51080513  1
  H+  H152  1  0.63745313  0.37500667  0.83151782  1
  H+  H153  1  0.39902865  0.32085030  0.93449574  1
  H+  H154  1  0.63783618  0.76582959  0.50841547  1
  H+  H155  1  0.65720637  0.86788034  0.50460291  1
  H+  H156  1  0.87866175  0.27778558  0.30785183  1
  H+  H157  1  0.63796538  0.28222600  0.49739786  1
  H+  H158  1  0.50811253  0.62434404  0.51908125  1
  H+  H159  1  0.09149319  0.48173719  0.67885517  1
  H+  H160  1  0.62069674  0.86105152  0.83411080  1
  H+  H161  1  0.11698858  0.13776962  0.66356553  1
  H+  H162  1  0.26527447  0.14324362  0.33245785  1
  H+  H163  1  0.66948762  0.30868909  0.18827604  1
  H+  H164  1  0.90970224  0.33034799  0.93770299  1
  H+  H165  1  0.39597203  0.87303082  0.97660283  1
  H+  H166  1  0.83364729  0.85399885  0.00032743  1
  H+  H167  1  0.40049723  0.36896247  0.65811036  1
  H+  H168  1  0.97183186  0.61620552  1.00573086  1
  H+  H169  1  0.11189386  0.39201778  0.82357834  1
  H+  H170  1  0.88567119  0.60626870  0.51086433  1
  H+  H171  1  0.35842627  0.92434059  0.04862613  1
  H+  H172  1  0.13928624  0.27263032  0.51023503  1
  H+  H173  1  0.88448389  0.52597871  0.00120449  1
  H+  H174  1  0.09628194  0.29282467  0.94217639  1
  H+  H175  1  0.84603053  0.36495791  0.66801282  1
  H+  H176  1  0.35618008  0.61836597  1.02154254  1
  H+  H177  1  0.70857409  0.84721144  0.98623746  1
  H+  H178  1  0.81143493  0.89664598  0.75818124  1
  H+  H179  1  0.85245620  0.48278997  0.33687170  1
  H+  H180  1  0.11579893  0.88480186  0.49624274  1
  H+  H181  1  0.16243891  0.28237244  0.65620405  1
  H+  H182  1  0.59109110  0.92632279  0.54833646  1
  H+  H183  1  0.02689292  0.37497309  0.15813827  1
  H+  H184  1  0.39179497  0.02485768  0.83179773  1
  H+  H185  1  0.91002286  0.12437792  0.18688158  1
  H+  H186  1  0.38194406  0.61608732  0.52907322  1
  H+  H187  1  0.23317860  0.59920879  0.00691945  1
  H+  H188  1  0.37411420  0.84243955  0.16846538  1
  H+  H189  1  1.00963527  0.58125189  0.63805242  1
  H+  H190  1  0.63192682  0.12403634  0.88010277  1
  H+  H191  1  0.96324137  0.07259398  0.96117934  1
  H+  H192  1  0.82940137  0.16241783  0.22743041  1
  H+  H193  1  0.13844703  0.86837692  0.33486001  1
  H+  H194  1  0.27864229  0.13573253  0.15759736  1
  H+  H195  1  0.23804677  0.37427683  0.18455841  1
  H+  H196  1  0.61380860  0.63545085  0.34589450  1
  H+  H197  1  0.36434126  0.22295963  0.66861332  1
  H+  H198  1  0.70266438  0.98066308  0.48694521  1
  H+  H199  1  0.14684650  0.79521345  0.83494557  1
  H+  H200  1  0.07140717  0.65123658  -0.05487041  1
  H+  H201  1  0.60173099  0.12827576  0.65955294  1
  H+  H202  1  0.85983041  0.38391392  0.48577507  1
  H+  H203  1  0.99304515  0.88100481  0.99156060  1
  H+  H204  1  0.64033644  0.89918491  0.34635016  1
  H+  H205  1  0.59574468  0.48135108  -0.00280134  1
  H+  H206  1  0.37532235  0.86144534  0.83452232  1
  H+  H207  1  0.85947973  0.39153461  0.00461032  1
  H+  H208  1  0.77339838  0.38981883  0.48534490  1
  H+  H209  1  0.71097087  0.09918833  0.17757322  1
  H+  H210  1  0.39292371  0.26780455  0.16949514  1
  H+  H211  1  0.14014915  0.77642510  0.66552467  1
  H+  H212  1  0.63595785  0.50157648  0.80875806  1
  H+  H213  1  0.77526637  0.38360208  0.82362135  1
  H+  H214  1  0.99924227  0.19302315  0.85593145  1
  H+  H215  1  0.89229056  0.79132533  0.66756693  1
  H+  H216  1  0.57321401  0.17086741  0.71102391  1
  H+  H217  1  0.41454324  0.10123617  0.26050697  1
  H+  H218  1  0.39109692  0.52721351  0.62601966  1
  H+  H219  1  0.62110886  0.58960698  0.62815690  1
  H+  H220  1  0.85267901  0.64250844  0.35226768  1
  H+  H221  1  0.81652867  0.11342508  0.82435945  1
  H+  H222  1  0.27438976  0.89610298  0.35133363  1
  H+  H223  1  0.37492527  0.51143338  0.98837558  1
  H+  H224  1  0.87391255  0.36389292  0.31568688  1
  H+  H225  1  -0.01053320  0.19455357  0.82251749  1
  H+  H226  1  0.14937789  0.87090688  0.66054284  1
  H+  H227  1  0.28364401  0.40442828  0.35530745  1
  H+  H228  1  0.23061626  0.10840875  0.65603637  1
  H+  H229  1  0.36406701  0.98412612  0.49640411  1
  H+  H230  1  0.47692495  0.61324823  0.17770954  1
  H+  H231  1  0.45877346  0.62923584  0.83301682  1
  H+  H232  1  0.11800854  0.37782827  0.16096287  1
  H+  H233  1  0.59046298  0.11118160  0.00900945  1
  H+  H234  1  0.85806010  0.73140688  0.16977757  1
  H+  H235  1  0.83503892  0.24276106  0.02642212  1
  H+  H236  1  0.85906367  0.84368920  0.33952002  1
  H+  H237  1  0.22667631  0.11248314  0.50560577  1
  H+  H238  1  0.62873788  0.61010174  0.52869108  1
  H+  H239  1  0.37846525  0.27301289  0.32299570  1
  H+  H240  1  0.87101263  0.25743930  0.65725968  1
  H+  H241  1  0.31304877  0.63115951  0.08177923  1
  H+  H242  1  0.61513330  0.37507519  0.66045503  1
  H+  H243  1  0.13607078  0.66223648  0.16503722  1
  H+  H244  1  0.86829634  0.89639306  0.67124168  1
  H+  H245  1  0.74535832  0.85905736  0.81670144  1
  H+  H246  1  0.36915802  0.65002512  0.34903679  1
  H+  H247  1  0.38088469  0.26052107  0.83610499  1
  H+  H248  1  0.64872000  0.06180686  0.23398309  1
  H+  H249  1  0.92914199  0.77963912  0.29541898  1
  H+  H250  1  0.57309851  0.63622995  0.84793030  1
  H+  H251  1  0.36678083  0.38695603  0.15721454  1
  H+  H252  1  0.60985727  0.72127135  0.15488122  1
  H+  H253  1  0.28268429  0.63533334  0.49770750  1
  H+  H254  1  0.87907550  0.86719180  0.16371354  1
  H+  H255  1  0.60460753  0.34187288  0.18212407  1
  H+  H256  1  0.46843679  0.10556669  -0.01231263  1
  H+  H257  1  0.71780335  0.37024814  0.33315699  1
  H+  H258  1  0.37036316  0.09603498  0.16916081  1
  H+  H259  1  0.88922492  0.76577922  0.51771893  1
  H+  H260  1  0.93450598  0.84829541  0.24869237  1
  H+  H261  1  0.36756049  0.13228065  0.82098158  1
  H+  H262  1  0.08071070  0.42024561  0.57463773  1
  H+  H263  1  0.16963998  0.83564341  0.56819729  1
  H+  H264  1  0.73040723  0.83774733  0.32121315  1
  H+  H265  1  0.47886867  0.36412816  0.32999564  1
  H+  H266  1  0.45983886  0.35887716  0.99265006  1
  H+  H267  1  0.97216626  0.62219803  0.33533888  1
  H+  H268  1  0.86367237  0.64592204  0.17612736  1
  H+  H269  1  0.36611338  0.76690007  0.83309376  1
  H+  H270  1  0.62369706  0.85147215  0.16796032  1
  H+  H271  1  0.76323818  0.87288081  0.15323119  1
  H+  H272  1  0.13412611  0.25553515  0.35413791  1
  H+  H273  1  0.61906589  0.02228903  0.69584110  1
  H+  H274  1  0.90701442  0.07694224  0.82135094  1
  H+  H275  1  0.11471925  0.98955562  0.82335956  1
  H+  H276  1  0.13268716  0.64324046  0.69500251  1
  H+  H277  1  0.59890054  0.38202726  0.34987715  1
  H+  H278  1  0.97317978  0.87518667  0.15688172  1
  H+  H279  1  0.38502374  0.36741414  0.51207301  1
  H+  H280  1  0.14720968  0.60613062  -0.00440226  1
  H+  H281  1  0.59899841  -0.02633574  0.83089204  1
  H+  H282  1  0.90028713  0.82303029  0.92784552  1
  H+  H283  1  0.96930073  0.36099807  0.51282051  1
  H+  H284  1  0.34462612  0.37345898  0.00262695  1
  H+  H285  1  0.24223851  0.63758577  0.33834954  1
  H+  H286  1  0.14887136  0.63065641  0.33259956  1
  H+  H287  1  0.67506537  0.63425871  0.82449484  1
  H+  H288  1  0.32970640  0.41405615  0.10091665  1
  H+  H289  1  0.34589275  0.67662268  0.41256437  1
  H+  H290  1  0.42535879  0.33255601  0.25963556  1
  H+  H291  1  0.17156042  0.06708310  0.22666857  1
  H+  H292  1  0.18991759  0.34152542  0.59812114  1
  H+  H293  1  0.56514868  0.41435282  0.40709318  1
  H+  H294  1  0.33220868  0.16118921  0.76337694  1
  H+  H295  1  0.03088007  0.15882538  0.04044995  1
  H+  H296  1  0.17943367  0.34767101  0.28104557  1
  H+  H297  1  0.39876184  0.77488972  0.64316334  1
  H+  H298  1  0.89394237  0.02977794  0.90957419  1
  H+  H299  1  0.08339466  0.67009732  0.40207931  1
  H+  H300  1  1.02863133  0.64065938  0.49275526  1
  H+  H301  1  0.53194020  0.88624513  0.61144553  1
  H+  H302  1  0.82136111  0.85561301  0.40259409  1
  H+  H303  1  0.92141569  0.34526334  0.22871637  1
  H+  H304  1  0.66899221  0.07430475  0.94717644  1
  H+  H305  1  0.95651807  0.35170936  0.65671482  1
  H+  H306  1  0.81503978  0.65225254  0.45400913  1
  H+  H307  1  0.67870405  0.82553800  0.59549502  1
  H+  H308  1  0.33155905  0.91370904  0.76868272  1
  H+  H309  1  0.63730334  0.27322962  0.64636442  1
  H+  H310  1  0.55405240  0.13509552  0.06651416  1
  H+  H311  1  0.44762404  0.96014116  0.12162834  1
  H+  H312  1  0.10927227  0.18067669  0.72388937  1
  H+  H313  1  0.41748305  0.59213753  0.27320113  1
  H+  H314  1  0.08033612  0.40086397  0.07231003  1
  H+  H315  1  0.56411536  0.89836615  0.09780364  1
  H+  H316  1  0.32611641  0.17371820  0.42977628  1
  H+  H317  1  0.10381247  0.89222172  0.14041262  1
  H+  H318  1  0.17121615  0.09414946  0.89938333  1
  H+  H319  1  0.86885916  0.87917506  0.49695962  1
  H+  H320  1  0.62661661  0.70874998  0.39261451  1
  H+  H321  1  0.39558841  0.82989380  0.27319267  1
  H+  H322  1  0.19475137  0.61793458  0.24244044  1
  H+  H323  1  0.09641654  0.44345600  0.40060601  1
  H+  H324  1  0.45360971  0.08684309  0.17530180  1
  H+  H325  1  0.92789946  0.83963206  0.60353084  1
  H+  H326  1  0.16972605  0.07622740  0.59428662  1
  H+  H327  1  0.19742261  0.36447122  0.88764096  1
  H+  H328  1  0.81111946  0.18412217  0.08559710  1
  H+  H329  1  0.11363604  0.18715433  0.11555542  1
  H+  H330  1  0.99095785  0.63206472  0.17914483  1
  H+  H331  1  0.91750990  0.59923947  0.27465208  1
  H+  H332  1  0.28074842  0.65160916  0.76976156  1
  H+  H333  1  0.57562719  0.65851598  0.06193334  1
  H+  H334  1  0.51220703  0.37090893  0.66135581  1
  H+  H335  1  0.82721563  0.41893788  0.39321801  1
  H+  H336  1  0.06387298  0.41003287  0.72616569  1
  H+  H337  1  0.54807230  0.62735293  0.45480130  1
  H+  H338  1  0.77338724  0.88541827  0.66572393  1
  H+  H339  1  0.16769270  0.84045622  0.27528836  1
  H+  H340  1  0.77815792  0.87375131  0.49285313  1
  H+  H341  1  0.81743958  0.89607882  0.09236771  1
  H+  H342  1  0.42266176  0.33097566  0.59872643  1
  H+  H343  1  0.89709312  0.32334517  0.56175486  1
  H+  H344  1  0.61387784  0.01662656  0.62485896  1
  H+  H345  1  0.44456855  0.14561176  0.55380864  1
  H+  H346  1  0.94107821  0.09504512  0.27824892  1
  H+  H347  1  0.75600776  0.62436496  0.83703184  1
  H+  H348  1  0.58659202  0.17165412  0.43094398  1
  H+  H349  1  0.65643498  0.57649599  0.23730047  1
  H+  H350  1  0.91459150  0.07361736  0.56799542  1
  H+  H351  1  0.59209807  0.10635900  0.16490240  1
  H+  H352  1  0.88657678  0.02527726  0.66489146  1
  H+  H353  1  0.39505057  0.04592437  0.60380907  1
  H+  H354  1  0.86264137  0.23029833  0.17611819  1
  H+  H355  1  0.17185153  0.85640108  0.89490884  1
  H+  H356  1  0.94280079  0.55598359  0.58424476  1
  H+  H357  1  0.41889121  0.83482108  0.91205842  1
  H+  H358  1  0.66970494  0.34222851  0.55627063  1
  H+  H359  1  0.07668420  0.92377586  0.07932833  1
  H+  H360  1  0.63318613  0.77378967  0.31454886  1
  H+  H361  1  0.61447682  0.66299507  0.73458014  1
  H+  H362  1  0.08354925  0.91957829  0.40415333  1
  H+  H363  1  0.17009074  0.56467792  0.91736047  1
  H+  H364  1  0.84669104  0.67757075  0.77244140  1
  H+  H365  1  0.51569369  0.88555098  0.81743157  1
  H+  H366  1  0.40248240  0.57840858  0.93273754  1
  H+  H367  1  0.42297217  0.08785003  0.88950885  1
  H+  H368  1  0.66539189  0.83001837  0.22518251  1
  H+  H369  1  0.09957948  0.67872727  0.10335007  1
  H+  H370  1  0.72596243  0.61459965  0.18331649  1
  H+  H371  1  0.62403241  0.93097190  0.41058128  1
  H+  H372  1  0.80480285  0.15729211  0.76552932  1
  H+  H373  1  0.33261508  0.92522544  0.43639070  1
  H+  H374  1  0.93986410  0.60497562  0.91200486  1
  H+  H375  1  0.66337835  0.58652978  0.92594331  1
  H+  H376  1  0.56676962  0.42796880  0.05909922  1
  H+  H377  1  0.83105942  0.40422884  0.76380193  1
  H+  H378  1  0.58966202  0.42125677  0.71836505  1
  H+  H379  1  0.84842937  0.43595848  0.09288126  1
  H+  H380  1  0.11294867  0.70429762  0.77032602  1
  H+  H381  1  0.76671107  0.63130278  0.51802329  1
  H+  H382  1  0.36307129  0.43524258  0.71584736  1
  H+  H383  1  0.38281575  0.78582728  0.33688912  1
  O2-  O384  1  0.11343410  0.18298111  0.16036329  1
  O2-  O385  1  0.08704749  0.16339753  0.49157144  1
  O2-  O386  1  0.13876839  0.20273234  0.80201470  1
  O2-  O387  1  0.08398998  0.39813485  0.13786596  1
  O2-  O388  1  0.08067973  0.41660694  0.53027554  1
  O2-  O389  1  0.07791608  0.42068169  0.81643080  1
  O2-  O390  1  0.09849426  0.68452543  0.14734683  1
  O2-  O391  1  0.08908053  0.67220268  0.47786141  1
  O2-  O392  1  0.11992099  0.70897006  0.81611406  1
  O2-  O393  1  0.08070168  0.92838303  0.12441444  1
  O2-  O394  1  0.08231631  0.91254693  0.48062903  1
  O2-  O395  1  0.08381379  0.93073990  0.80512458  1
  O2-  O396  1  0.33978459  0.16717517  0.14283296  1
  O2-  O397  1  0.32840614  0.17181148  0.47487038  1
  O2-  O398  1  0.33470266  0.16205360  0.80873000  1
  O2-  O399  1  0.33568080  0.41699479  0.14583065  1
  O2-  O400  1  0.33550490  0.41815824  0.48941994  1
  O2-  O401  1  0.36072778  0.43513883  0.80090553  1
  O2-  O402  1  0.26855460  0.63952074  0.16840747  1
  O2-  O403  1  0.34766883  0.66629018  0.49419906  1
  O2-  O404  1  0.30026691  0.65918134  0.81462266  1
  O2-  O405  1  0.38499370  0.93219548  0.12244406  1
  O2-  O406  1  0.32966777  0.92420198  0.48349362  1
  O2-  O407  1  0.33481825  0.92143117  0.81459808  1
  O2-  O408  1  0.55319138  0.12831760  0.14925398  1
  O2-  O409  1  0.58715345  0.17839825  0.47619317  1
  O2-  O410  1  0.57668136  0.17781035  0.78993295  1
  O2-  O411  1  0.60821946  0.42874369  0.14352444  1
  O2-  O412  1  0.57842591  0.42453192  0.48169790  1
  O2-  O413  1  0.59393630  0.44220961  0.79265720  1
  O2-  O414  1  0.58001488  0.66063198  0.13919358  1
  O2-  O415  1  0.56436581  0.64603804  0.49684845  1
  O2-  O416  1  0.57488950  0.66843690  0.81178045  1
  O2-  O417  1  0.56123093  0.89729464  0.14288487  1
  O2-  O418  1  0.64294004  0.93469236  0.48659688  1
  O2-  O419  1  0.57832654  0.91820131  0.81036705  1
  O2-  O420  1  0.82941201  0.16629932  0.18123539  1
  O2-  O421  1  0.82710077  0.15830646  0.48420408  1
  O2-  O422  1  0.80152634  0.15733927  0.81113366  1
  O2-  O423  1  0.86105751  0.44405613  0.13846076  1
  O2-  O424  1  0.83324900  0.41739897  0.46920242  1
  O2-  O425  1  0.83376114  0.40260390  0.80882242  1
  O2-  O426  1  0.82392193  0.66781282  0.16840725  1
  O2-  O427  1  0.82469228  0.65773080  0.49874067  1
  O2-  O428  1  0.85298271  0.67528141  0.81701550  1
  O2-  O429  1  0.82275094  0.89917022  0.13732097  1
  O2-  O430  1  0.83845263  0.90515742  0.47594886  1
  O2-  O431  1  0.80714599  0.89056669  0.80405494  1
  O2-  O432  1  0.17767918  0.07813784  0.18224524  1
  O2-  O433  1  0.16772678  0.07963959  0.52362889  1
  O2-  O434  1  0.17489994  0.09246858  0.85397707  1
  O2-  O435  1  0.17975903  0.34379522  0.20308012  1
  O2-  O436  1  0.16883982  0.33455943  0.52150075  1
  O2-  O437  1  0.19608839  0.36419576  0.84290380  1
  O2-  O438  1  0.18775115  0.62246519  0.19678842  1
  O2-  O439  1  0.18065169  0.58783090  0.49273289  1
  O2-  O440  1  0.16340253  0.56619634  0.87078057  1
  O2-  O441  1  0.12400763  0.83183774  0.19432256  1
  O2-  O442  1  0.16682264  0.83682231  0.52263552  1
  O2-  O443  1  0.17073380  0.85946377  0.85024035  1
  O2-  O444  1  0.39223145  0.06055314  0.18908351  1
  O2-  O445  1  0.43242243  0.11345752  0.51585394  1
  O2-  O446  1  0.42394637  0.08757690  0.84377851  1
  O2-  O447  1  0.42399156  0.32782967  0.18733388  1
  O2-  O448  1  0.41503570  0.33488117  0.52514711  1
  O2-  O449  1  0.41225813  0.32054907  0.85410463  1
  O2-  O450  1  0.42038565  0.58554321  0.19829992  1
  O2-  O451  1  0.40775423  0.57863247  0.54503021  1
  O2-  O452  1  0.40006327  0.59105902  0.84844089  1
  O2-  O453  1  0.39089445  0.80439576  0.18925947  1
  O2-  O454  1  0.38838524  0.82221043  0.53463542  1
  O2-  O455  1  0.40384907  0.82744658  0.84727927  1
  O2-  O456  1  0.64875602  0.06385801  0.18756046  1
  O2-  O457  1  0.66517149  0.10282884  0.51667346  1
  O2-  O458  1  0.64987398  0.08541619  0.86328429  1
  O2-  O459  1  0.61290932  0.29638817  0.20208495  1
  O2-  O460  1  0.66752638  0.34398134  0.51109393  1
  O2-  O461  1  0.66049147  0.34081188  0.84988121  1
  O2-  O462  1  0.66161369  0.57714970  0.19216737  1
  O2-  O463  1  0.65897059  0.58281497  0.54884301  1
  O2-  O464  1  0.69089566  0.59516084  0.84392305  1
  O2-  O465  1  0.65741520  0.82368633  0.18011264  1
  O2-  O466  1  0.67876297  0.82486836  0.52117472  1
  O2-  O467  1  0.64702883  0.82542513  0.84805920  1
  O2-  O468  1  0.94391385  0.09865644  0.20152814  1
  O2-  O469  1  0.91991311  0.07542528  0.52288563  1
  O2-  O470  1  0.85233563  0.04318431  0.84224194  1
  O2-  O471  1  0.92568616  0.33965548  0.18244705  1
  O2-  O472  1  0.90564619  0.32992297  0.51670621  1
  O2-  O473  1  0.91322782  0.32707786  0.85699086  1
  O2-  O474  1  0.93120199  0.60096030  0.19455956  1
  O2-  O475  1  0.92219182  0.57933741  0.51387462  1
  O2-  O476  1  0.96417528  0.62147879  0.87044027  1
  O2-  O477  1  0.91867588  0.84476611  0.17988761  1
  O2-  O478  1  0.92199252  0.82751992  0.53025532  1
  O2-  O479  1  0.91414173  0.83860476  0.84939724  1
  O2-  O480  1  0.15887343  0.07489735  0.30695509  1
  O2-  O481  1  0.16911269  0.07525580  0.64123142  1
  O2-  O482  1  0.15755328  0.09059734  0.97767290  1
  O2-  O483  1  0.17895937  0.34774168  0.32661259  1
  O2-  O484  1  0.20038165  0.34195894  0.64267907  1
  O2-  O485  1  0.14115240  0.32811445  0.97143894  1
  O2-  O486  1  0.18526709  0.60757084  0.31657084  1
  O2-  O487  1  0.15923223  0.59759288  0.69615468  1
  O2-  O488  1  0.17297369  0.56946973  0.98709532  1
  O2-  O489  1  0.16612405  0.83554260  0.31995549  1
  O2-  O490  1  0.17552744  0.83792411  0.64571699  1
  O2-  O491  1  0.18471646  0.83829370  0.97865391  1
  O2-  O492  1  0.43722180  0.14188847  0.29627051  1
  O2-  O493  1  0.40644483  0.06989873  0.64494181  1
  O2-  O494  1  0.41004457  0.07880933  0.96611931  1
  O2-  O495  1  0.42025267  0.33302287  0.30608990  1
  O2-  O496  1  0.42693896  0.33156985  0.64488342  1
  O2-  O497  1  0.39826729  0.32241859  0.97967042  1
  O2-  O498  1  0.41604783  0.59544580  0.31913175  1
  O2-  O499  1  0.40765720  0.58608800  0.61169025  1
  O2-  O500  1  0.40704090  0.57359686  0.97737510  1
  O2-  O501  1  0.40192995  0.84198512  0.31705589  1
  O2-  O502  1  0.43794635  0.82314686  0.66864796  1
  O2-  O503  1  0.42479252  0.84046695  0.96020087  1
  O2-  O504  1  0.66131940  0.07048112  0.30699202  1
  O2-  O505  1  0.64095557  0.05928986  0.66013749  1
  O2-  O506  1  0.65819372  0.06805744  0.99129631  1
  O2-  O507  1  0.65329536  0.33489904  0.32547794  1
  O2-  O508  1  0.66665061  0.33592635  0.63688681  1
  O2-  O509  1  0.67545435  0.35772200  0.97851675  1
  O2-  O510  1  0.65309319  0.57530743  0.31793833  1
  O2-  O511  1  0.59605205  0.58210666  0.66984496  1
  O2-  O512  1  0.65476530  0.58003294  0.97047538  1
  O2-  O513  1  0.67736205  0.83218490  0.30252078  1
  O2-  O514  1  0.68166083  0.82732835  0.64145328  1
  O2-  O515  1  0.64727704  0.82024506  0.97080723  1
  O2-  O516  1  0.93266663  0.09591709  0.32332096  1
  O2-  O517  1  0.91444012  0.08570000  0.64912752  1
  O2-  O518  1  0.92226134  0.01738152  0.94391115  1
  O2-  O519  1  0.90861886  0.34034425  0.29884285  1
  O2-  O520  1  0.89670770  0.31662992  0.64044617  1
  O2-  O521  1  0.90855499  0.33537345  0.98293508  1
  O2-  O522  1  0.91180673  0.59819281  0.31980419  1
  O2-  O523  1  0.95415411  0.53573936  0.62353330  1
  O2-  O524  1  0.91298768  0.58850674  0.98973418  1
  O2-  O525  1  0.94200470  0.83904637  0.29426948  1
  O2-  O526  1  0.93164743  0.84866865  0.64938402  1
  O2-  O527  1  0.90057295  0.82171485  0.97306352  1
  O2-  O528  1  0.09285927  0.18342238  0.03607519  1
  O2-  O529  1  0.10921749  0.19392830  0.37045528  1
  O2-  O530  1  0.09111428  0.17040963  0.68061591  1
  O2-  O531  1  0.07711367  0.40552586  0.02437411  1
  O2-  O532  1  0.11227767  0.44296230  0.35848244  1
  O2-  O533  1  0.05924194  0.41855896  0.68240088  1
  O2-  O534  1  0.09382772  0.66533834  -0.01325732  1
  O2-  O535  1  0.07889386  0.66764418  0.35632287  1
  O2-  O536  1  0.09766474  0.69314849  0.69665745  1
  O2-  O537  1  0.05827910  0.91992289  0.00054717  1
  O2-  O538  1  0.08959054  0.92456232  0.35849595  1
  O2-  O539  1  0.08818133  0.93300399  0.68704432  1
  O2-  O540  1  0.32591833  0.15673752  0.01915573  1
  O2-  O541  1  0.32482038  0.17903630  0.34843937  1
  O2-  O542  1  0.33044068  0.16205110  0.68277552  1
  O2-  O543  1  0.31773418  0.40731069  0.01759139  1
  O2-  O544  1  0.34272121  0.43597876  0.37258554  1
  O2-  O545  1  0.36077412  0.42549765  0.67141977  1
  O2-  O546  1  0.32167968  0.64303969  0.03804653  1
  O2-  O547  1  0.34084038  0.68025984  0.36769706  1
  O2-  O548  1  0.24553319  0.63857104  0.70207983  1
  O2-  O549  1  0.34899033  0.91994498  0.00337169  1
  O2-  O550  1  0.33387596  0.92843535  0.36665679  1
  O2-  O551  1  0.33337020  0.90306449  0.69607953  1
  O2-  O552  1  0.55531473  0.13694491  0.02162652  1
  O2-  O553  1  0.58727618  0.16422672  0.35469707  1
  O2-  O554  1  0.57408130  0.16457509  0.66592294  1
  O2-  O555  1  0.56349305  0.42141161  0.01463023  1
  O2-  O556  1  0.56319077  0.40901790  0.36092890  1
  O2-  O557  1  0.58019282  0.40412298  0.67413433  1
  O2-  O558  1  0.57341097  0.65857488  0.01611845  1
  O2-  O559  1  0.58775385  0.67001945  0.36164304  1
  O2-  O560  1  0.64684555  0.66893163  0.69632186  1
  O2-  O561  1  0.56847473  0.90039610  0.01429274  1
  O2-  O562  1  0.61506679  0.93090683  0.36536797  1
  O2-  O563  1  0.55698726  0.93436391  0.58230166  1
  O2-  O564  1  0.78724340  0.19514922  0.04910050  1
  O2-  O565  1  0.83446753  0.16699979  0.30241636  1
  O2-  O566  1  0.81560730  0.15317405  0.68763191  1
  O2-  O567  1  0.83309439  0.42473162  0.02163491  1
  O2-  O568  1  0.81975984  0.42093710  0.34797386  1
  O2-  O569  1  0.82308768  0.40329129  0.68153613  1
  O2-  O570  1  0.82320671  0.66931130  0.01407514  1
  O2-  O571  1  0.80973164  0.65411353  0.37298442  1
  O2-  O572  1  0.80857001  0.69422504  0.69769079  1
  O2-  O573  1  0.80560597  0.88788610  0.01273403  1
  O2-  O574  1  0.80637456  0.82028527  0.36451058  1
  O2-  O575  1  0.83279098  0.92053535  0.68628380  1
