# generated using pymatgen
data_H2O
_symmetry_space_group_name_H-M   'P 1'
_cell_length_a   17.99019957
_cell_length_b   17.98524279
_cell_length_c   21.99276150
_cell_angle_alpha   89.99478278
_cell_angle_beta   90.01913048
_cell_angle_gamma   120.00533722
_symmetry_Int_Tables_number   1
_chemical_formula_structural   H2O
_chemical_formula_sum   'H384 O192'
_cell_volume   6162.24976845
_cell_formula_units_Z   192
loop_
 _symmetry_equiv_pos_site_id
 _symmetry_equiv_pos_as_xyz
  1  'x, y, z'
loop_
 _atom_type_symbol
 _atom_type_oxidation_number
  H+  1.0
  O2-  -2.0
loop_
 _atom_site_type_symbol
 _atom_site_label
 _atom_site_symmetry_multiplicity
 _atom_site_fract_x
 _atom_site_fract_y
 _atom_site_fract_z
 _atom_site_occupancy
  H+  H0  1  0.98167218  0.10104580  0.34586032  1
  H+  H1  1  0.33836025  0.91928881  0.10006203  1
  H+  H2  1  0.62303923  0.90513666  0.83051296  1
  H+  H3  1  0.23284176  0.87891711  0.84508047  1
  H+  H4  1  0.61855335  0.90133102  0.33629885  1
  H+  H5  1  0.11517869  0.12193929  0.46347727  1
  H+  H6  1  0.12738710  0.81519962  0.24279959  1
  H+  H7  1  0.21138405  0.86028678  0.32907331  1
  H+  H8  1  0.03230139  0.89681660  0.82937832  1
  H+  H9  1  0.97799125  0.11647936  0.45835451  1
  H+  H10  1  0.41474134  0.82243961  0.33366171  1
  H+  H11  1  0.83390984  0.92445532  0.06891901  1
  H+  H12  1  0.62309549  0.52480751  0.81173461  1
  H+  H13  1  0.99873300  0.37119007  0.32912020  1
  H+  H14  1  0.96389974  0.33032795  0.50314154  1
  H+  H15  1  0.01279946  0.63272961  0.14795548  1
  H+  H16  1  0.26880505  0.13444472  0.67782381  1
  H+  H17  1  0.10948362  0.22453373  0.82824685  1
  H+  H18  1  0.09589173  0.63224257  0.33759993  1
  H+  H19  1  0.14127687  0.51606777  0.66759555  1
  H+  H20  1  0.47591435  0.87158045  0.17558336  1
  H+  H21  1  0.34937864  0.22161843  0.49572726  1
  H+  H22  1  0.39055024  0.88067037  0.17407308  1
  H+  H23  1  0.23421910  0.12613203  0.84847950  1
  H+  H24  1  0.52488780  0.14021241  0.32351116  1
  H+  H25  1  0.13727345  0.36410410  0.84151000  1
  H+  H26  1  0.86718783  0.12756356  0.58444894  1
  H+  H27  1  0.86554387  0.90261262  0.00774998  1
  H+  H28  1  0.14615231  0.57518329  0.93269012  1
  H+  H29  1  0.19964449  0.34727110  0.32148331  1
  H+  H30  1  0.45172570  0.72629493  0.38024162  1
  H+  H31  1  0.88225770  0.86855776  0.33456815  1
  H+  H32  1  0.60260236  0.93610329  0.42863209  1
  H+  H33  1  0.13982555  0.86354403  0.66072784  1
  H+  H34  1  0.10870308  0.88639718  1.01029670  1
  H+  H35  1  0.88718740  0.02933998  0.46155763  1
  H+  H36  1  0.51451877  0.10652201  0.01487471  1
  H+  H37  1  0.09519031  0.63272164  -0.00157390  1
  H+  H38  1  0.76950022  0.12613954  0.15535342  1
  H+  H39  1  0.63891582  0.77663682  0.50145530  1
  H+  H40  1  0.73119451  0.36288599  0.99444977  1
  H+  H41  1  0.61098263  0.22762567  0.50653934  1
  H+  H42  1  0.87943073  0.64506609  0.50583454  1
  H+  H43  1  0.86828120  0.72949217  0.82730634  1
  H+  H44  1  0.10768490  0.22204806  0.67339633  1
  H+  H45  1  0.65377774  0.43376054  0.16870386  1
  H+  H46  1  0.14960164  0.62505762  0.82853923  1
  H+  H47  1  0.64730683  0.86964097  0.49851669  1
  H+  H48  1  0.88464965  0.24591817  0.53144538  1
  H+  H49  1  0.35331027  0.72765126  0.83967249  1
  H+  H50  1  0.45416968  0.35604040  0.50243648  1
  H+  H51  1  -0.03908401  0.47985607  0.50053184  1
  H+  H52  1  0.35876292  0.91681860  0.48114347  1
  H+  H53  1  0.83286519  0.17231585  0.77933164  1
  H+  H54  1  0.64497233  0.77833041  0.65575353  1
  H+  H55  1  0.36146235  0.25614052  0.65641180  1
  H+  H56  1  0.10249252  0.97208910  0.16673956  1
  H+  H57  1  0.86239590  0.74333421  0.49937198  1
  H+  H58  1  0.89566377  0.87557032  0.65556230  1
  H+  H59  1  0.17880580  0.26817159  0.36396727  1
  H+  H60  1  0.41636663  0.08215405  0.93925164  1
  H+  H61  1  0.63379939  0.61768351  0.50215372  1
  H+  H62  1  0.61817671  0.63541166  0.82146042  1
  H+  H63  1  0.60973386  0.88255367  1.00771758  1
  H+  H64  1  0.13327337  0.26369069  0.49167684  1
  H+  H65  1  0.02493188  0.12289449  0.15755470  1
  H+  H66  1  0.11588539  0.11784605  0.36137423  1
  H+  H67  1  0.83698780  0.14801167  0.09939886  1
  H+  H68  1  0.06649671  0.39523226  0.38367831  1
  H+  H69  1  0.36486714  0.70869665  0.69799930  1
  H+  H70  1  0.48131897  0.12695679  0.17024750  1
  H+  H71  1  0.31774833  0.64616926  0.24445936  1
  H+  H72  1  0.87526303  0.25672786  0.32675714  1
  H+  H73  1  0.61772871  0.88008293  0.65295972  1
  H+  H74  1  0.35834855  0.22155944  0.01151672  1
  H+  H75  1  0.88601023  0.12116927  0.67507797  1
  H+  H76  1  0.63126116  0.64423277  0.29900037  1
  H+  H77  1  0.62093909  0.72527427  0.00887139  1
  H+  H78  1  0.47400326  0.50804795  0.55194914  1
  H+  H79  1  0.94238696  0.68879190  0.39407939  1
  H+  H80  1  0.46673906  0.85383083  0.84248220  1
  H+  H81  1  0.43227216  0.58391798  0.94296876  1
  H+  H82  1  0.85652087  0.97081578  0.36642188  1
  H+  H83  1  0.59994832  0.65671214  0.10630417  1
  H+  H84  1  0.39635742  0.03528976  0.84449442  1
  H+  H85  1  0.86253444  0.97133501  0.16745189  1
  H+  H86  1  0.37128921  0.98620306  0.15527423  1
  H+  H87  1  0.10823565  0.39564058  0.17829896  1
  H+  H88  1  0.32363279  0.37483354  0.34814276  1
  H+  H89  1  0.88165343  0.51238972  0.16192464  1
  H+  H90  1  0.21948165  0.60611681  0.52476095  1
  H+  H91  1  0.37221609  0.47831977  1.00601346  1
  H+  H92  1  0.47479539  0.84835985  0.67113250  1
  H+  H93  1  0.60660742  0.47944442  0.49441515  1
  H+  H94  1  0.01590457  0.37979795  0.16209320  1
  H+  H95  1  0.97521900  0.86755681  0.99847240  1
  H+  H96  1  0.89075051  0.87272132  0.49278711  1
  H+  H97  1  0.78149576  0.37897972  0.83158355  1
  H+  H98  1  0.34435459  0.37030147  0.67071661  1
  H+  H99  1  0.11745070  0.63923087  0.66622853  1
  H+  H100  1  0.38100811  1.02998527  0.31948240  1
  H+  H101  1  0.88599056  0.34114568  0.99523046  1
  H+  H102  1  0.44689509  0.92449365  0.55248879  1
  H+  H103  1  0.96918868  0.86268321  0.17632814  1
  H+  H104  1  0.88124346  0.77158635  0.17817878  1
  H+  H105  1  0.77521334  0.63916797  0.34868747  1
  H+  H106  1  0.38524733  0.11884664  0.32623741  1
  H+  H107  1  0.38105086  0.37598425  0.14489501  1
  H+  H108  1  0.07797742  0.43953616  0.48066550  1
  H+  H109  1  0.88495082  0.11873587  0.18325482  1
  H+  H110  1  0.22145732  0.87523436  0.50144425  1
  H+  H111  1  0.86771602  1.04809107  0.00557157  1
  H+  H112  1  0.86132021  0.45834891  0.33528856  1
  H+  H113  1  0.63800186  0.26530598  0.31664452  1
  H+  H114  1  0.85607530  0.36051516  0.49224223  1
  H+  H115  1  0.63642251  0.52355931  1.00562262  1
  H+  H116  1  0.71516699  0.85729799  0.33738906  1
  H+  H117  1  0.87114781  0.48283720  0.67193547  1
  H+  H118  1  0.27700614  0.39191501  0.83119971  1
  H+  H119  1  0.25331602  0.62813021  0.83885943  1
  H+  H120  1  0.65058380  0.37590642  0.99428208  1
  H+  H121  1  0.96159333  0.61001989  0.99327014  1
  H+  H122  1  0.26684389  0.13488114  1.00808989  1
  H+  H123  1  0.36399986  0.89365680  0.83395186  1
  H+  H124  1  0.02711815  0.88583881  0.67133918  1
  H+  H125  1  0.58316199  0.91473778  0.09992043  1
  H+  H126  1  0.84017206  0.59063617  0.85067342  1
  H+  H127  1  0.48488793  0.61194302  0.85034073  1
  H+  H128  1  0.78648905  0.38978414  0.67383529  1
  H+  H129  1  0.57567100  0.74610787  0.35044360  1
  H+  H130  1  0.11280958  0.13831810  0.82772439  1
  H+  H131  1  0.95816209  0.09541986  0.84654961  1
  H+  H132  1  0.36332072  0.62080762  0.47943966  1
  H+  H133  1  0.76813738  0.61987703  0.16190219  1
  H+  H134  1  0.60479994  0.10832570  0.01234127  1
  H+  H135  1  0.49202743  0.65026209  0.34500780  1
  H+  H136  1  0.02596804  0.38797174  0.82872879  1
  H+  H137  1  0.32674810  0.25528127  0.26939534  1
  H+  H138  1  0.11872947  0.00304856  0.34357509  1
  H+  H139  1  0.64937387  0.03552850  0.32160311  1
  H+  H140  1  0.73036119  1.09628691  -0.01206017  1
  H+  H141  1  0.27252950  0.88728542  0.67708151  1
  H+  H142  1  0.39318795  0.60179944  0.66805871  1
  H+  H143  1  0.88498221  0.78048229  -0.00357993  1
  H+  H144  1  0.61977459  0.61504608  0.16480220  1
  H+  H145  1  0.72224765  0.61820022  0.50685460  1
  H+  H146  1  0.13856918  1.02298545  0.66417525  1
  H+  H147  1  0.16170245  0.07795731  0.24366224  1
  H+  H148  1  0.22054462  0.35830682  0.65631348  1
  H+  H149  1  0.53484154  0.64470184  0.67651926  1
  H+  H150  1  0.89156609  0.85956423  0.83958188  1
  H+  H151  1  0.72923187  0.86676233  0.99996142  1
  H+  H152  1  0.89757617  0.37556509  0.66177678  1
  H+  H153  1  0.64549502  1.03514456  0.67048739  1
  H+  H154  1  0.47489449  0.11954248  0.51854293  1
  H+  H155  1  0.26651441  0.87889627  0.00671600  1
  H+  H156  1  0.38971326  0.26952718  0.15810666  1
  H+  H157  1  0.52607510  0.39572953  0.01702521  1
  H+  H158  1  0.98203553  0.62334905  0.65158841  1
  H+  H159  1  0.35311850  0.74094865  0.17639464  1
  H+  H160  1  0.21018770  0.09794955  0.34349500  1
  H+  H161  1  0.65441404  0.63358131  0.66236672  1
  H+  H162  1  0.64062032  0.76485562  0.18088408  1
  H+  H163  1  0.38623454  0.48364220  0.51728251  1
  H+  H164  1  0.84528588  0.50366937  0.85375806  1
  H+  H165  1  0.61257741  0.14419664  0.68217734  1
  H+  H166  1  0.39960405  0.51217452  0.32067349  1
  H+  H167  1  0.51452370  0.38665145  0.79405201  1
  H+  H168  1  0.39026397  0.36248387  -0.00506361  1
  H+  H169  1  0.08114671  0.40829501  0.06616521  1
  H+  H170  1  0.39100399  0.02730537  0.67033938  1
  H+  H171  1  0.35832816  0.88277860  0.68748632  1
  H+  H172  1  0.73786774  0.12197958  0.32275130  1
  H+  H173  1  0.65568018  0.27369652  0.84200094  1
  H+  H174  1  0.77369371  0.79979203  0.78470477  1
  H+  H175  1  0.38212621  0.85704007  0.99437847  1
  H+  H176  1  0.71532078  0.60858637  0.82489080  1
  H+  H177  1  0.89341342  0.62582985  0.65667970  1
  H+  H178  1  0.33815483  0.20907683  0.35361012  1
  H+  H179  1  0.06798102  0.61994172  0.49079846  1
  H+  H180  1  0.78507920  0.64976248  0.66910201  1
  H+  H181  1  0.77058770  0.38233829  0.15854534  1
  H+  H182  1  0.36071391  0.13745364  0.16115278  1
  H+  H183  1  0.02873776  0.39026412  0.67205618  1
  H+  H184  1  0.88009735  0.11000209  0.84843040  1
  H+  H185  1  0.54188308  0.90912755  0.48646296  1
  H+  H186  1  0.47630085  0.44119560  0.27312843  1
  H+  H187  1  0.63212689  0.13842343  0.83515164  1
  H+  H188  1  0.87521486  0.73778176  0.66859332  1
  H+  H189  1  0.86594681  0.46554387  0.00750511  1
  H+  H190  1  0.27893747  0.38943865  1.00355856  1
  H+  H191  1  0.37817009  0.72466914  0.02126411  1
  H+  H192  1  0.68235807  0.33746799  0.89871485  1
  H+  H193  1  0.78223186  0.89640163  0.66576831  1
  H+  H194  1  0.76833727  0.14039526  0.83858371  1
  H+  H195  1  0.76873901  0.37375058  0.33879869  1
  H+  H196  1  0.12384433  0.86291326  0.33741711  1
  H+  H197  1  0.61029639  0.88352541  0.16011090  1
  H+  H198  1  0.85686231  0.37517376  0.15944187  1
  H+  H199  1  0.10773224  0.37413800  0.28687198  1
  H+  H200  1  0.74576625  0.88986630  0.83831928  1
  H+  H201  1  0.02359149  0.62760657  0.83637836  1
  H+  H202  1  0.86822988  0.34323915  0.32433327  1
  H+  H203  1  0.74080901  0.10981181  0.53409213  1
  H+  H204  1  -0.02295849  0.59997397  0.84523880  1
  H+  H205  1  0.96449703  0.72865220  0.37525491  1
  H+  H206  1  0.36084009  0.35590799  0.49992173  1
  H+  H207  1  0.89106559  0.27160557  0.84439269  1
  H+  H208  1  0.26272821  0.65206668  0.16694343  1
  H+  H209  1  0.13638159  0.78175418  0.50363107  1
  H+  H210  1  0.61947868  0.72608147  0.83443873  1
  H+  H211  1  0.53167231  0.63346429  0.01100012  1
  H+  H212  1  0.85636480  0.63188732  1.01002429  1
  H+  H213  1  0.12642537  0.77200121  0.99179681  1
  H+  H214  1  0.60173776  0.60127812  0.31297771  1
  H+  H215  1  0.40668039  0.61418778  1.00654207  1
  H+  H216  1  0.38360724  0.47437710  0.15457958  1
  H+  H217  1  0.35435842  1.00020220  0.49346461  1
  H+  H218  1  0.61490749  0.14039017  0.32316753  1
  H+  H219  1  0.58611075  0.41168581  0.62733851  1
  H+  H220  1  0.08513789  0.91425025  0.73225240  1
  H+  H221  1  0.37061730  0.26073862  0.27400194  1
  H+  H222  1  0.38060724  0.10528963  0.99870574  1
  H+  H223  1  0.65209311  0.03174574  0.51144189  1
  H+  H224  1  0.87610459  0.20562242  1.00272473  1
  H+  H225  1  0.08325466  0.16517899  0.06699616  1
  H+  H226  1  0.64080720  0.62063663  0.00388309  1
  H+  H227  1  0.51571111  0.31617690  0.36542244  1
  H+  H228  1  0.36669362  0.57871686  0.29997482  1
  H+  H229  1  0.01990129  0.14969978  0.01178995  1
  H+  H230  1  0.47422444  0.86277542  0.99363729  1
  H+  H231  1  0.87119783  0.12637047  0.35007173  1
  H+  H232  1  0.14169658  0.87389573  0.83901327  1
  H+  H233  1  0.92370279  0.84077250  0.90267003  1
  H+  H234  1  0.12839984  0.11031793  -0.00570883  1
  H+  H235  1  0.10449095  0.89099124  0.49007931  1
  H+  H236  1  0.63799308  0.35281050  0.32621780  1
  H+  H237  1  0.96165656  0.60145743  0.32147570  1
  H+  H238  1  0.59535842  0.68372916  0.73475270  1
  H+  H239  1  0.39582719  0.52455964  0.85175787  1
  H+  H240  1  0.98001504  0.87294298  0.49745377  1
  H+  H241  1  0.12196251  -0.01439966  0.82622772  1
  H+  H242  1  0.71134581  0.50150411  0.32391099  1
  H+  H243  1  0.86988774  0.23924393  0.68100228  1
  H+  H244  1  0.83731230  0.74004731  0.35334474  1
  H+  H245  1  0.53715670  0.91697374  0.33651045  1
  H+  H246  1  0.13471756  0.10929539  0.66545455  1
  H+  H247  1  0.52115288  0.62521188  0.50328610  1
  H+  H248  1  0.73083922  0.36918246  0.50557550  1
  H+  H249  1  0.86160843  0.88257306  0.16459093  1
  H+  H250  1  0.97186033  0.11835134  0.66211723  1
  H+  H251  1  0.21171771  0.10928557  0.49301193  1
  H+  H252  1  0.10437026  0.76227882  0.17883276  1
  H+  H253  1  0.40741338  0.12922885  0.84857888  1
  H+  H254  1  0.77905071  0.15201989  0.68174641  1
  H+  H255  1  0.54397602  0.39526553  0.32152518  1
  H+  H256  1  0.61238357  0.14074718  0.51131344  1
  H+  H257  1  0.21934103  0.35331446  0.50521656  1
  H+  H258  1  0.64650473  0.03872435  0.84236585  1
  H+  H259  1  0.12067324  1.01904446  0.48740036  1
  H+  H260  1  0.88046519  0.26095712  0.16715750  1
  H+  H261  1  0.61442019  0.97342848  0.00250669  1
  H+  H262  1  0.61779075  0.15176524  0.16420654  1
  H+  H263  1  0.84116099  0.67618032  0.76469620  1
  H+  H264  1  0.36087280  0.14108771  0.67831067  1
  H+  H265  1  0.15180651  0.75315038  0.81630392  1
  H+  H266  1  0.22411263  0.10830610  0.18470566  1
  H+  H267  1  0.10597619  0.51113572  0.31755067  1
  H+  H268  1  0.22963073  0.65196698  0.52846102  1
  H+  H269  1  0.13477093  0.52542702  0.83294259  1
  H+  H270  1  0.85960721  0.62843207  0.15903800  1
  H+  H271  1  0.19783343  0.59142876  0.30311988  1
  H+  H272  1  0.65012543  0.28088280  0.66709759  1
  H+  H273  1  0.76947475  0.88437900  0.46420233  1
  H+  H274  1  0.64211670  0.37044253  0.50783449  1
  H+  H275  1  0.10234552  0.36397764  0.48256195  1
  H+  H276  1  0.11731919  0.51634513  0.99163869  1
  H+  H277  1  0.11422698  0.12692436  0.16207168  1
  H+  H278  1  0.38227750  0.65159420  0.50569602  1
  H+  H279  1  0.58087936  0.92688483  0.61385886  1
  H+  H280  1  0.35573218  0.96744899  0.00458730  1
  H+  H281  1  0.72496052  0.85651662  0.17849338  1
  H+  H282  1  0.02411106  0.88952929  0.34490634  1
  H+  H283  1  0.63807457  1.02553248  0.16855637  1
  H+  H284  1  0.97602483  0.64330405  0.50221342  1
  H+  H285  1  0.27597146  0.62109591  0.69159301  1
  H+  H286  1  0.36286500  0.90805253  0.33661513  1
  H+  H287  1  0.14308295  0.27664926  0.99541936  1
  H+  H288  1  0.01976137  0.50243395  0.55785452  1
  H+  H289  1  0.10372941  0.63874204  0.14920476  1
  H+  H290  1  0.84667524  0.41978503  0.77428249  1
  H+  H291  1  0.83942791  0.15712958  0.40529310  1
  H+  H292  1  0.37054024  0.71980343  0.41618217  1
  H+  H293  1  0.40071502  0.83095385  0.52572321  1
  H+  H294  1  0.58781649  0.17216218  0.74369224  1
  H+  H295  1  0.07694855  0.91629830  0.42281734  1
  H+  H296  1  0.45937290  0.35574256  0.19461203  1
  H+  H297  1  0.02066880  0.37107015  0.00774354  1
  H+  H298  1  0.90277080  0.31528031  0.22886924  1
  H+  H299  1  0.59063963  0.43730347  0.07491132  1
  H+  H300  1  0.41057567  0.82859540  0.90384886  1
  H+  H301  1  0.11986508  0.73024989  0.66180515  1
  H+  H302  1  0.32391691  0.15341439  0.41360587  1
  H+  H303  1  0.41277034  0.08651220  0.57677324  1
  H+  H304  1  0.91882234  0.61007959  0.56867463  1
  H+  H305  1  0.54271023  0.14230623  0.83570617  1
  H+  H306  1  0.48983094  0.59411714  0.16762322  1
  H+  H307  1  0.13801261  0.57866512  0.22339782  1
  H+  H308  1  0.33404180  0.41862956  0.77275235  1
  H+  H309  1  0.08483446  0.41712446  0.76812475  1
  H+  H310  1  0.42613182  0.56150605  0.22463222  1
  H+  H311  1  0.67539354  0.59903786  0.60202323  1
  H+  H312  1  0.11116298  0.30134252  0.24773379  1
  H+  H313  1  0.16843381  0.08548471  0.90301460  1
  H+  H314  1  0.92230971  0.07250396  0.28579886  1
  H+  H315  1  0.12109696  0.69432732  0.75568175  1
  H+  H316  1  0.18819252  0.58081225  0.61243200  1
  H+  H317  1  0.48751444  0.35942678  0.64804336  1
  H+  H318  1  0.37853475  0.31050194  0.59217832  1
  H+  H319  1  0.31256766  0.41328076  0.44651648  1
  H+  H320  1  0.67562637  0.08785104  0.22663843  1
  H+  H321  1  0.84097820  0.40499066  0.43423387  1
  H+  H322  1  0.73586280  0.61768489  0.00526786  1
  H+  H323  1  0.86179533  0.57139923  0.30513220  1
  H+  H324  1  0.15815282  0.32368640  0.59728820  1
  H+  H325  1  0.92348699  0.84699062  0.59509082  1
  H+  H326  1  0.89622454  0.36394589  0.84542620  1
  H+  H327  1  0.32515944  0.93741750  0.39235449  1
  H+  H328  1  0.83643542  0.40383098  0.06455483  1
  H+  H329  1  0.17241253  0.84083911  0.59925562  1
  H+  H330  1  0.33688476  0.67130606  0.31608211  1
  H+  H331  1  0.11567731  0.38477399  0.67054034  1
  H+  H332  1  0.86773514  0.98805137  0.67364097  1
  H+  H333  1  0.97113784  0.16662937  0.21792399  1
  H+  H334  1  0.56538009  0.41900883  0.73254165  1
  H+  H335  1  0.68097931  0.33463641  0.60535909  1
  H+  H336  1  0.57590936  0.41471390  0.43782787  1
  H+  H337  1  0.71300896  0.54566524  0.26084667  1
  H+  H338  1  0.42191980  0.32488412  0.94178649  1
  H+  H339  1  0.41310735  0.41765285  0.38324932  1
  H+  H340  1  0.67009632  0.09091054  0.61046133  1
  H+  H341  1  0.47952632  0.11796964  0.67128640  1
  H+  H342  1  0.09785634  0.72305377  0.34115510  1
  H+  H343  1  0.82474902  0.89177989  0.75523622  1
  H+  H344  1  0.07761329  0.16435443  0.73372146  1
  H+  H345  1  0.42856939  0.86674337  0.26718850  1
  H+  H346  1  0.58266999  0.16464409  0.10225914  1
  H+  H347  1  0.14197560  0.36454122  0.99552222  1
  H+  H348  1  0.41832004  0.09358804  0.22807120  1
  H+  H349  1  0.39239218  0.79828723  0.63088148  1
  H+  H350  1  0.91562390  0.56972659  0.22152307  1
  H+  H351  1  0.67321508  0.08113861  0.92601228  1
  H+  H352  1  0.66954912  0.33940867  0.22998119  1
  H+  H353  1  0.66567013  0.83211025  0.27247410  1
  H+  H354  1  0.87511399  0.12246060  0.51336180  1
  H+  H355  1  0.33483131  0.92520879  0.77536304  1
  H+  H356  1  0.88245998  0.56772427  0.94346058  1
  H+  H357  1  0.42579807  0.56719411  0.61063545  1
  H+  H358  1  0.82945299  0.66576281  0.06939610  1
  H+  H359  1  0.56597598  0.47152998  0.23551591  1
  H+  H360  1  0.16705733  0.33347737  0.90028284  1
  H+  H361  1  0.12407147  0.52449526  0.16354699  1
  H+  H362  1  0.67794033  0.83502590  0.59326382  1
  H+  H363  1  0.07187181  0.66893950  0.05762739  1
  H+  H364  1  0.33001035  0.65613003  0.78310739  1
  H+  H365  1  0.91953263  0.31752108  0.93540758  1
  H+  H366  1  0.16206029  0.83760805  0.93596135  1
  H+  H367  1  0.55787797  0.67474310  0.44057066  1
  H+  H368  1  0.35749622  0.67331159  0.08354716  1
  H+  H369  1  0.75968142  0.96975354  0.87329384  1
  H+  H370  1  0.32044944  0.15970221  0.10410572  1
  H+  H371  1  0.67824369  0.84831510  0.93887966  1
  H+  H372  1  0.07774909  0.91608158  0.07007336  1
  H+  H373  1  0.35498137  0.13479010  0.50446371  1
  H+  H374  1  0.34232337  0.41391190  0.08986497  1
  H+  H375  1  0.63600757  0.28691201  0.16774834  1
  H+  H376  1  0.08941609  0.87657029  0.16807105  1
  H+  H377  1  0.35880814  0.46491362  0.67624457  1
  H+  H378  1  0.58110036  0.91648120  0.77052683  1
  H+  H379  1  0.06864660  0.66885907  0.42987154  1
  H+  H380  1  0.13001104  0.02180010  0.99693920  1
  H+  H381  1  0.81985254  0.68143317  0.44066490  1
  H+  H382  1  0.92117443  0.33543379  0.60329694  1
  H+  H383  1  0.90648548  0.83644704  0.27317135  1
  O2-  O384  1  0.08405506  0.15458164  0.14235353  1
  O2-  O385  1  0.08408162  0.15820306  0.44365829  1
  O2-  O386  1  0.07923304  0.16440568  0.81234509  1
  O2-  O387  1  0.07766408  0.41309470  0.14954776  1
  O2-  O388  1  0.06349691  0.38353114  0.46350849  1
  O2-  O389  1  0.08695201  0.42241199  0.81323954  1
  O2-  O390  1  0.07361897  0.66952051  0.13454691  1
  O2-  O391  1  0.06838850  0.67246121  0.47599138  1
  O2-  O392  1  0.15388235  0.70595113  0.79386556  1
  O2-  O393  1  0.06731875  0.91390152  0.14868608  1
  O2-  O394  1  0.07254421  0.91766239  0.47277288  1
  O2-  O395  1  0.09101327  0.92508748  0.81103266  1
  O2-  O396  1  0.32489796  0.16416157  0.14955994  1
  O2-  O397  1  0.32165539  0.15872548  0.48407071  1
  O2-  O398  1  0.35953363  0.20356038  0.84212988  1
  O2-  O399  1  0.34809992  0.41092881  0.13617779  1
  O2-  O400  1  0.31781097  0.40559280  0.48974582  1
  O2-  O401  1  0.33735210  0.42621478  0.81735836  1
  O2-  O402  1  0.32586470  0.67739012  0.17109293  1
  O2-  O403  1  0.40129966  0.73692365  0.37770129  1
  O2-  O404  1  0.32188372  0.66369092  0.82784561  1
  O2-  O405  1  0.34397519  0.92430405  0.14505980  1
  O2-  O406  1  0.32309551  0.94253375  0.47177888  1
  O2-  O407  1  0.33850101  0.92903846  0.82066671  1
  O2-  O408  1  0.58760922  0.18051699  0.14729177  1
  O2-  O409  1  0.57636849  0.16491437  0.49871598  1
  O2-  O410  1  0.59994830  0.16860592  0.81649760  1
  O2-  O411  1  0.64746635  0.48032422  0.14866981  1
  O2-  O412  1  0.57544340  0.41726409  0.48267014  1
  O2-  O413  1  0.56695738  0.43314225  0.77666756  1
  O2-  O414  1  0.59751770  0.65338125  0.15154378  1
  O2-  O415  1  0.57505702  0.66956227  0.48284446  1
  O2-  O416  1  0.59005906  0.67370559  0.81055401  1
  O2-  O417  1  0.58362524  0.91683042  0.14561288  1
  O2-  O418  1  0.60215694  0.93118556  0.47448561  1
  O2-  O419  1  0.57371970  0.91002421  0.81434820  1
  O2-  O420  1  0.83266864  0.15368026  0.14414852  1
  O2-  O421  1  0.84838247  0.14182883  0.54596302  1
  O2-  O422  1  0.83297764  0.17193120  0.82432510  1
  O2-  O423  1  0.83092966  0.40861533  0.14269807  1
  O2-  O424  1  0.84736870  0.40866950  0.47941700  1
  O2-  O425  1  0.84559704  0.41540913  0.81911766  1
  O2-  O426  1  0.82749472  0.65906228  0.14814000  1
  O2-  O427  1  0.83061420  0.68045048  0.48697430  1
  O2-  O428  1  0.83073465  0.67188005  0.80939750  1
  O2-  O429  1  0.83126870  0.91402997  0.14954227  1
  O2-  O430  1  0.82972703  0.91481175  0.44692103  1
  O2-  O431  1  0.80651901  0.86039191  0.79556262  1
  O2-  O432  1  0.16289412  0.07720959  0.19854850  1
  O2-  O433  1  0.14810942  0.08308787  0.49491112  1
  O2-  O434  1  0.17288495  0.08846776  0.85748184  1
  O2-  O435  1  0.14183378  0.36292909  0.25532189  1
  O2-  O436  1  0.15406504  0.31869620  0.51351483  1
  O2-  O437  1  0.16499675  0.33094870  0.85496102  1
  O2-  O438  1  0.14922534  0.58457345  0.17865517  1
  O2-  O439  1  0.02238929  0.51104502  0.51397730  1
  O2-  O440  1  0.16713911  0.58584946  0.84978649  1
  O2-  O441  1  0.11455498  0.81591023  0.19898125  1
  O2-  O442  1  0.16379773  0.84062610  0.52076054  1
  O2-  O443  1  0.17094063  0.84358843  0.85641370  1
  O2-  O444  1  0.41936084  0.09450537  0.18256578  1
  O2-  O445  1  0.41227391  0.08911606  0.53107313  1
  O2-  O446  1  0.43153027  0.09368587  0.86257854  1
  O2-  O447  1  0.42758217  0.33386423  0.15589050  1
  O2-  O448  1  0.39247270  0.32167629  0.51214066  1
  O2-  O449  1  0.39926888  0.28257209  0.85685832  1
  O2-  O450  1  0.42823334  0.55809608  0.17950378  1
  O2-  O451  1  0.44104480  0.53525157  0.53971527  1
  O2-  O452  1  0.42923407  0.58212483  0.87166824  1
  O2-  O453  1  0.41837436  0.84885584  0.19450339  1
  O2-  O454  1  0.43897288  0.89117416  0.51555239  1
  O2-  O455  1  0.40647048  0.82566923  0.85756720  1
  O2-  O456  1  0.67254367  0.08705825  0.18112279  1
  O2-  O457  1  0.67736621  0.08652619  0.53466775  1
  O2-  O458  1  0.67781018  0.09581132  0.86058747  1
  O2-  O459  1  0.66981671  0.34670397  0.18472781  1
  O2-  O460  1  0.67186761  0.33982769  0.52231048  1
  O2-  O461  1  0.68933461  0.33521606  0.85392476  1
  O2-  O462  1  0.65225737  0.53914478  0.19861870  1
  O2-  O463  1  0.66054489  0.58504460  0.51880915  1
  O2-  O464  1  0.65352550  0.58075913  0.83470217  1
  O2-  O465  1  0.66532085  0.82520084  0.19498280  1
  O2-  O466  1  0.67812638  0.83885151  0.51118430  1
  O2-  O467  1  0.71437714  0.91048405  0.86466091  1
  O2-  O468  1  0.92712041  0.10814241  0.20753407  1
  O2-  O469  1  0.91432010  0.09251894  0.46161093  1
  O2-  O470  1  0.89835350  0.06842488  0.86087838  1
  O2-  O471  1  0.90901092  0.32072411  0.18361187  1
  O2-  O472  1  0.90906278  0.30936001  0.52593643  1
  O2-  O473  1  0.92718955  0.33317252  0.85933644  1
  O2-  O474  1  0.91111273  0.57367194  0.17657522  1
  O2-  O475  1  0.91620202  0.61604765  0.52156357  1
  O2-  O476  1  0.84165257  0.54816903  0.87840227  1
  O2-  O477  1  0.90804937  0.83191710  0.19255345  1
  O2-  O478  1  0.91836590  0.84508923  0.51464861  1
  O2-  O479  1  0.92856086  0.83888299  0.85739539  1
  O2-  O480  1  0.14954493  0.07234667  0.33022884  1
  O2-  O481  1  0.16994969  0.08406764  0.65202329  1
  O2-  O482  1  0.16080291  0.08177077  0.98042804  1
  O2-  O483  1  0.22200901  0.32919936  0.35594074  1
  O2-  O484  1  0.15878474  0.32831384  0.64235635  1
  O2-  O485  1  0.17511194  0.33700745  0.98023570  1
  O2-  O486  1  0.13509413  0.57171855  0.30263656  1
  O2-  O487  1  0.17691485  0.57995814  0.65598178  1
  O2-  O488  1  0.13893655  0.57573233  0.97707210  1
  O2-  O489  1  0.14860437  0.82606918  0.32171054  1
  O2-  O490  1  0.17324466  0.83626108  0.64458692  1
  O2-  O491  1  0.15986003  0.83498235  0.98135545  1
  O2-  O492  1  0.41486985  0.09155785  0.30580346  1
  O2-  O493  1  0.42008073  0.08609679  0.65322216  1
  O2-  O494  1  0.40825823  0.07263632  0.98414791  1
  O2-  O495  1  0.51557450  0.42222989  0.25835138  1
  O2-  O496  1  0.38366258  0.31594862  0.63710525  1
  O2-  O497  1  0.42305718  0.33206557  0.98623862  1
  O2-  O498  1  0.41732447  0.56952726  0.30256294  1
  O2-  O499  1  0.42887097  0.57678136  0.65562753  1
  O2-  O500  1  0.43435164  0.58178717  0.98968862  1
  O2-  O501  1  0.43556674  0.87832633  0.31286126  1
  O2-  O502  1  0.41017774  0.81507432  0.67288855  1
  O2-  O503  1  0.41403735  0.82864030  0.97822027  1
  O2-  O504  1  0.68035454  0.09477047  0.30365542  1
  O2-  O505  1  0.67228977  0.09473170  0.65614500  1
  O2-  O506  1  0.67065203  0.07021991  0.97392869  1
  O2-  O507  1  0.67240716  0.33048846  0.30651462  1
  O2-  O508  1  0.69257775  0.33700212  0.64937784  1
  O2-  O509  1  0.67291603  0.34067812  0.97721819  1
  O2-  O510  1  0.74746404  0.55146017  0.29891199  1
  O2-  O511  1  0.68735207  0.60724369  0.64611155  1
  O2-  O512  1  0.67134491  0.58680828  0.99093688  1
  O2-  O513  1  0.65875899  0.83583897  0.31762117  1
  O2-  O514  1  0.67503500  0.83879378  0.63843981  1
  O2-  O515  1  0.66999858  0.83195262  0.98240487  1
  O2-  O516  1  0.92099572  0.06919216  0.33079795  1
  O2-  O517  1  0.90916220  0.08999163  0.65104389  1
  O2-  O518  1  0.90240640  0.11143746  0.99893302  1
  O2-  O519  1  0.89851688  0.31362784  0.30654016  1
  O2-  O520  1  0.92722259  0.34287820  0.64835015  1
  O2-  O521  1  0.91572239  0.30976874  0.98103137  1
  O2-  O522  1  0.90828525  0.55780897  0.30024159  1
  O2-  O523  1  0.92154225  0.59583684  0.63589181  1
  O2-  O524  1  0.89763085  0.57507229  0.98865962  1
  O2-  O525  1  0.90817821  0.83562123  0.31850321  1
  O2-  O526  1  0.92434269  0.84382701  0.64033089  1
  O2-  O527  1  0.91508013  0.84078454  0.98183742  1
  O2-  O528  1  0.08061603  0.16940916  0.02140378  1
  O2-  O529  1  0.08987731  0.15889338  0.37624987  1
  O2-  O530  1  0.07481405  0.16168172  0.68810629  1
  O2-  O531  1  0.08182085  0.40746117  0.02111176  1
  O2-  O532  1  0.06184286  0.40451671  0.33939561  1
  O2-  O533  1  0.08980021  0.41914689  0.68726935  1
  O2-  O534  1  0.06848935  0.66787521  0.01203683  1
  O2-  O535  1  0.06534927  0.66102533  0.35491365  1
  O2-  O536  1  0.08533573  0.66907793  0.67623199  1
  O2-  O537  1  0.07822312  0.91727221  0.02448093  1
  O2-  O538  1  0.08335121  0.91966481  0.36064401  1
  O2-  O539  1  0.08697828  0.91079257  0.68696386  1
  O2-  O540  1  0.32577713  0.16101084  0.02584687  1
  O2-  O541  1  0.32155352  0.15122240  0.36696982  1
  O2-  O542  1  0.33044416  0.17149149  0.69077234  1
  O2-  O543  1  0.33952802  0.41605904  0.01922638  1
  O2-  O544  1  0.38789562  0.41528209  0.34359540  1
  O2-  O545  1  0.31853361  0.40453064  0.68783771  1
  O2-  O546  1  0.36433742  0.66899568  0.03953127  1
  O2-  O547  1  0.30421757  0.62302404  0.28754718  1
  O2-  O548  1  0.33502067  0.64705234  0.70953137  1
  O2-  O549  1  0.32796125  0.90671591  0.01959154  1
  O2-  O550  1  0.32376863  0.93060490  0.34737466  1
  O2-  O551  1  0.33096753  0.91713116  0.69662941  1
  O2-  O552  1  0.56915237  0.12505950  0.03655242  1
  O2-  O553  1  0.58630574  0.17278654  0.33579672  1
  O2-  O554  1  0.58141663  0.17263465  0.69775532  1
  O2-  O555  1  0.58722217  0.43279512  0.03010239  1
  O2-  O556  1  0.56144582  0.37528439  0.35930098  1
  O2-  O557  1  0.54842396  0.38072565  0.66095666  1
  O2-  O558  1  0.59456427  0.66547471  0.02522278  1
  O2-  O559  1  0.52543613  0.70031391  0.37318557  1
  O2-  O560  1  0.59581798  0.68396444  0.68894727  1
  O2-  O561  1  0.58057632  0.91412090  0.02153690  1
  O2-  O562  1  0.59664978  0.93840686  0.35322452  1
  O2-  O563  1  0.58097348  0.90911842  0.65582497  1
  O2-  O564  1  0.84722390  0.14493907  0.02019233  1
  O2-  O565  1  0.83996703  0.15763817  0.36094223  1
  O2-  O566  1  0.83898068  0.17941189  0.69722409  1
  O2-  O567  1  0.84118137  0.40404251  0.01934415  1
  O2-  O568  1  0.82947155  0.40019248  0.35447453  1
  O2-  O569  1  0.84881086  0.42451138  0.68844777  1
  O2-  O570  1  0.82731374  0.66569760  0.02382532  1
  O2-  O571  1  0.79357615  0.68883911  0.37622161  1
  O2-  O572  1  0.84678998  0.67771361  0.68426108  1
  O2-  O573  1  0.83326003  0.93011471  0.02392280  1
  O2-  O574  1  0.81977677  0.90907906  0.37992822  1
  O2-  O575  1  0.84065778  0.92489837  0.68403673  1
