# generated using pymatgen
data_H2O
_symmetry_space_group_name_H-M   'P 1'
_cell_length_a   17.99334710
_cell_length_b   17.99210229
_cell_length_c   21.99920777
_cell_angle_alpha   90.01166651
_cell_angle_beta   90.00091057
_cell_angle_gamma   119.98777951
_symmetry_Int_Tables_number   1
_chemical_formula_structural   H2O
_chemical_formula_sum   'H384 O192'
_cell_volume   6168.57708255
_cell_formula_units_Z   192
loop_
 _symmetry_equiv_pos_site_id
 _symmetry_equiv_pos_as_xyz
  1  'x, y, z'
loop_
 _atom_type_symbol
 _atom_type_oxidation_number
  H+  1.0
  O2-  -2.0
loop_
 _atom_site_type_symbol
 _atom_site_label
 _atom_site_symmetry_multiplicity
 _atom_site_fract_x
 _atom_site_fract_y
 _atom_site_fract_z
 _atom_site_occupancy
  H+  H0  1  0.32730351  0.94822862  0.83184220  1
  H+  H1  1  0.16159020  0.34775934  0.22740661  1
  H+  H2  1  0.11543980  0.72864848  0.50180300  1
  H+  H3  1  0.38411405  0.57534241  1.00664613  1
  H+  H4  1  0.86196462  0.64710901  0.17645302  1
  H+  H5  1  0.62927453  0.27406616  0.50446869  1
  H+  H6  1  0.85694717  0.14763491  0.01936311  1
  H+  H7  1  0.60718017  0.23426626  0.69032778  1
  H+  H8  1  0.00608968  0.39088420  0.16561391  1
  H+  H9  1  0.61468469  0.38429932  0.00682792  1
  H+  H10  1  0.78210064  0.40192261  0.66815443  1
  H+  H11  1  0.90774311  0.33509595  0.23122277  1
  H+  H12  1  0.02848278  0.38639445  -0.00555875  1
  H+  H13  1  0.49829473  0.62555396  0.35163816  1
  H+  H14  1  0.35660312  0.70528236  0.34293119  1
  H+  H15  1  0.15005413  0.16572609  0.31061211  1
  H+  H16  1  0.35966586  0.21565914  0.83089632  1
  H+  H17  1  0.91039937  0.08888066  0.94420104  1
  H+  H18  1  0.86203301  0.48596482  0.82410921  1
  H+  H19  1  0.72566669  0.11427478  0.49968455  1
  H+  H20  1  0.99355091  0.95248002  0.32010693  1
  H+  H21  1  0.35437817  0.88842250  0.16149328  1
  H+  H22  1  0.44600874  0.32457731  0.50546551  1
  H+  H23  1  0.56489960  0.16476463  0.77526216  1
  H+  H24  1  0.61959748  0.73126774  0.82802889  1
  H+  H25  1  0.99136414  0.61545342  0.17644089  1
  H+  H26  1  0.89256919  0.79392259  0.18444013  1
  H+  H27  1  0.87848943  0.78069327  0.30259534  1
  H+  H28  1  0.89390812  0.28107185  1.00127257  1
  H+  H29  1  0.73042780  0.11371546  0.65506433  1
  H+  H30  1  0.39622006  0.59697083  0.65459234  1
  H+  H31  1  0.57879339  0.65519377  0.73154914  1
  H+  H32  1  0.74535886  0.62603824  0.50616701  1
  H+  H33  1  0.22480529  0.60619548  0.33435868  1
  H+  H34  1  0.61017170  0.47160938  0.01252833  1
  H+  H35  1  0.47704431  0.11319311  0.17201136  1
  H+  H36  1  1.01894162  0.13608767  0.15973868  1
  H+  H37  1  0.48400273  0.61180771  0.99625223  1
  H+  H38  1  0.66699484  -0.01725246  0.65971922  1
  H+  H39  1  0.10859303  0.65335377  0.70809326  1
  H+  H40  1  0.38582696  1.02241194  0.17537692  1
  H+  H41  1  0.13629652  0.26070070  0.83480858  1
  H+  H42  1  0.48952927  0.59556162  0.66873474  1
  H+  H43  1  0.68242985  0.96196287  0.05142264  1
  H+  H44  1  0.58444336  0.72700056  0.35159132  1
  H+  H45  1  0.86153521  0.47431243  0.34235433  1
  H+  H46  1  0.88424528  0.12056728  0.66921998  1
  H+  H47  1  0.12242783  0.11041448  -0.01131794  1
  H+  H48  1  0.89229587  0.92064686  0.32635419  1
  H+  H49  1  0.10485382  0.22729106  0.16118175  1
  H+  H50  1  0.21159859  0.11803123  1.00257123  1
  H+  H51  1  0.77362019  0.39823388  0.82317042  1
  H+  H52  1  0.14076057  1.00747815  0.84060309  1
  H+  H53  1  0.35828477  -0.01619298  0.49648815  1
  H+  H54  1  0.22880667  0.86599476  0.50235403  1
  H+  H55  1  0.86936181  0.38636627  -0.00226241  1
  H+  H56  1  0.52199755  0.96607453  0.37605903  1
  H+  H57  1  0.60674680  0.88937852  0.82352277  1
  H+  H58  1  0.61171166  0.85772821  0.33573442  1
  H+  H59  1  0.22685931  0.39863233  0.32364967  1
  H+  H60  1  0.05095674  0.88692360  0.32834851  1
  H+  H61  1  0.30092684  0.87519074  0.41239343  1
  H+  H62  1  0.87745646  0.50918760  0.98479949  1
  H+  H63  1  0.63717978  0.99911340  0.01130958  1
  H+  H64  1  0.72666008  0.12939239  0.99767522  1
  H+  H65  1  0.52110370  0.38607608  0.66365503  1
  H+  H66  1  0.36169066  0.67155206  0.00181314  1
  H+  H67  1  0.39064587  0.31319969  0.17648976  1
  H+  H68  1  0.47235954  0.11885853  0.99849097  1
  H+  H69  1  0.69998062  0.59816966  0.32448905  1
  H+  H70  1  0.75139485  0.59844209  0.02303827  1
  H+  H71  1  0.47244805  0.87702067  -0.00945511  1
  H+  H72  1  0.35799516  0.24175562  0.49805527  1
  H+  H73  1  0.51961348  0.88974238  0.81851020  1
  H+  H74  1  0.38079518  0.79295628  0.99416470  1
  H+  H75  1  0.48179866  0.35970782  0.99523796  1
  H+  H76  1  0.26973235  0.37533081  0.82453090  1
  H+  H77  1  0.61343237  0.85447562  0.18646322  1
  H+  H78  1  0.94541413  0.04603931  0.30452160  1
  H+  H79  1  0.63324054  0.11991504  -0.00489702  1
  H+  H80  1  -0.01177641  0.09031178  0.85432674  1
  H+  H81  1  0.71683385  0.86084340  0.83518906  1
  H+  H82  1  0.14118911  0.62577142  0.17841713  1
  H+  H83  1  0.56959016  0.57414217  0.85911690  1
  H+  H84  1  0.35636325  0.72317646  0.81712807  1
  H+  H85  1  0.57704167  0.66859599  0.07183946  1
  H+  H86  1  0.39100108  0.12118488  0.31702621  1
  H+  H87  1  0.87790808  0.13981923  0.33640557  1
  H+  H88  1  0.35818591  0.21213311  0.67206857  1
  H+  H89  1  0.51061711  0.48669126  0.89366323  1
  H+  H90  1  0.60875276  0.22808681  0.00480880  1
  H+  H91  1  0.01723455  0.12974400  0.68177634  1
  H+  H92  1  0.02120664  0.88204774  0.48496323  1
  H+  H93  1  0.10307651  0.48096734  0.33973942  1
  H+  H94  1  0.88924222  0.26894447  0.84543032  1
  H+  H95  1  0.49134764  0.12050634  0.84416788  1
  H+  H96  1  0.67239789  0.87770658  0.61667781  1
  H+  H97  1  0.10393987  0.36921120  0.67047990  1
  H+  H98  1  0.36242679  0.36917227  0.00356595  1
  H+  H99  1  0.43380336  0.32485709  0.24125338  1
  H+  H100  1  0.73052415  0.35917626  0.32305879  1
  H+  H101  1  0.85830625  0.38582667  0.15286592  1
  H+  H102  1  1.02641717  0.89622517  0.15136953  1
  H+  H103  1  0.48429412  0.12075728  0.31942976  1
  H+  H104  1  0.66373930  0.33320364  0.93205514  1
  H+  H105  1  0.07318264  0.42855632  0.43548725  1
  H+  H106  1  0.88706528  0.27296174  0.50683737  1
  H+  H107  1  0.86000647  0.59023312  0.00166286  1
  H+  H108  1  -0.02130920  0.60972215  0.51166437  1
  H+  H109  1  0.62269281  0.38235894  0.33606411  1
  H+  H110  1  0.67076883  0.33041249  0.26272524  1
  H+  H111  1  0.38451505  0.11333254  0.84621090  1
  H+  H112  1  0.36917700  0.14327076  0.03190216  1
  H+  H113  1  0.23025516  0.78797385  0.37999303  1
  H+  H114  1  0.86075905  0.38067267  0.49251466  1
  H+  H115  1  0.12495006  0.36664406  0.16760324  1
  H+  H116  1  0.01633277  0.37411303  0.67293730  1
  H+  H117  1  0.27289641  0.63794683  0.50428772  1
  H+  H118  1  0.87295478  0.62828796  0.49888055  1
  H+  H119  1  0.11068294  0.24203845  0.51157218  1
  H+  H120  1  0.87036678  0.98164742  0.13332580  1
  H+  H121  1  0.13932203  1.02810531  0.31302989  1
  H+  H122  1  0.58636585  0.45412074  0.82594785  1
  H+  H123  1  0.26397860  0.37047006  0.66825384  1
  H+  H124  1  0.63313018  0.86011974  0.98848703  1
  H+  H125  1  0.89090265  0.37452081  0.65942295  1
  H+  H126  1  0.77250036  0.38219046  0.49209099  1
  H+  H127  1  0.98048065  0.13055553  0.52886760  1
  H+  H128  1  0.84347055  0.12595450  0.82604277  1
  H+  H129  1  0.89194713  0.74405242  -0.02401210  1
  H+  H130  1  0.36643852  0.45831002  -0.00423051  1
  H+  H131  1  0.11815806  0.50672054  0.67251514  1
  H+  H132  1  0.85996395  0.96683429  0.83070304  1
  H+  H133  1  0.35783590  0.46537497  0.82346053  1
  H+  H134  1  0.13627764  0.86964021  0.16602869  1
  H+  H135  1  0.74723245  0.86739931  0.35962849  1
  H+  H136  1  0.39730166  0.27140536  1.00576657  1
  H+  H137  1  0.10349286  0.12225039  0.68277322  1
  H+  H138  1  0.87062759  0.12038400  0.16757763  1
  H+  H139  1  0.51240334  0.13221135  0.49202474  1
  H+  H140  1  0.59612060  0.12598081  0.83449084  1
  H+  H141  1  0.08731090  0.84836604  0.81578309  1
  H+  H142  1  0.11753627  0.73328879  0.01142585  1
  H+  H143  1  0.14022031  0.50339386  0.82813841  1
  H+  H144  1  0.87875384  0.85585831  0.51598548  1
  H+  H145  1  0.64370679  0.50631132  0.48926908  1
  H+  H146  1  0.88057119  0.35842038  0.32531424  1
  H+  H147  1  0.23200245  0.60649600  0.82493367  1
  H+  H148  1  0.75925707  0.13319479  0.82822875  1
  H+  H149  1  0.11671921  0.73649883  0.16582193  1
  H+  H150  1  0.90093843  0.91696305  -0.03073433  1
  H+  H151  1  0.64393187  0.52764734  0.65570269  1
  H+  H152  1  0.80197914  0.87964359  0.66366772  1
  H+  H153  1  0.30151627  0.36525345  0.31945804  1
  H+  H154  1  0.33437098  0.15615672  0.73282262  1
  H+  H155  1  0.06289255  0.16764585  0.31751108  1
  H+  H156  1  0.60035304  0.97745196  0.16644278  1
  H+  H157  1  0.38022443  0.03146906  0.99941769  1
  H+  H158  1  0.32449350  0.66469033  0.64344829  1
  H+  H159  1  0.22809331  0.35182792  -0.01456416  1
  H+  H160  1  0.14301841  0.35967502  0.97914187  1
  H+  H161  1  0.02025587  0.88037989  0.82065746  1
  H+  H162  1  0.63706330  0.82230802  0.27706103  1
  H+  H163  1  0.38397926  0.49848018  0.66321799  1
  H+  H164  1  0.46267218  0.86237281  0.17708151  1
  H+  H165  1  0.27342549  0.12311943  0.82946308  1
  H+  H166  1  0.19990456  0.59482010  0.68524562  1
  H+  H167  1  0.37835144  0.34938743  0.84343274  1
  H+  H168  1  0.59722790  0.72052613  0.50320014  1
  H+  H169  1  0.65490921  0.66986441  0.80973640  1
  H+  H170  1  0.13495428  0.61574477  0.51918272  1
  H+  H171  1  0.15278049  0.79216083  0.90138664  1
  H+  H172  1  0.10552002  0.22242409  0.00420706  1
  H+  H173  1  0.71939501  0.11321504  0.17024921  1
  H+  H174  1  0.47102215  0.61255234  0.83545487  1
  H+  H175  1  0.08614661  0.87230304  0.66162067  1
  H+  H176  1  0.32678593  0.41693031  0.09745284  1
  H+  H177  1  0.60518634  0.85142681  0.52249805  1
  H+  H178  1  0.50856678  0.36292437  0.82028679  1
  H+  H179  1  0.91219794  0.59132275  0.93158073  1
  H+  H180  1  0.63282806  0.27156781  0.84277619  1
  H+  H181  1  0.71949150  0.85858490  0.98502792  1
  H+  H182  1  0.94934889  0.01087721  0.90022003  1
  H+  H183  1  0.61578461  0.22686849  0.33594388  1
  H+  H184  1  0.62029736  0.50903707  0.31425275  1
  H+  H185  1  0.10351469  0.39320360  0.34032128  1
  H+  H186  1  0.33366641  0.40597631  0.41642622  1
  H+  H187  1  0.13052386  0.86456664  0.98475424  1
  H+  H188  1  0.26957800  0.64115962  0.15631241  1
  H+  H189  1  0.36011399  0.63610880  0.81750740  1
  H+  H190  1  0.22135244  0.86973929  -0.00894752  1
  H+  H191  1  0.37878993  0.34704972  0.65593198  1
  H+  H192  1  0.23262339  0.88752912  0.32508479  1
  H+  H193  1  0.35507749  0.61542790  0.34590222  1
  H+  H194  1  0.99656460  0.66350065  0.85382467  1
  H+  H195  1  0.57188841  0.16394858  0.43307175  1
  H+  H196  1  0.60896109  0.63743449  0.16026847  1
  H+  H197  1  0.12059479  1.00634137  0.66944351  1
  H+  H198  1  0.72676098  0.36028452  0.98918132  1
  H+  H199  1  0.36213862  0.96265615  0.67586332  1
  H+  H200  1  0.38407533  0.50148347  0.32679119  1
  H+  H201  1  0.51513248  0.88812765  0.49998610  1
  H+  H202  1  0.63574479  0.11401204  0.50223090  1
  H+  H203  1  0.91287151  0.76117207  1.00625163  1
  H+  H204  1  0.86442407  0.13805666  0.49627395  1
  H+  H205  1  0.82804381  0.91897355  0.76567863  1
  H+  H206  1  0.88864582  0.77322689  0.83029311  1
  H+  H207  1  0.16868544  0.92444183  0.31946791  1
  H+  H208  1  0.61700413  0.13908061  0.33770163  1
  H+  H209  1  0.11834746  0.12494755  0.82951469  1
  H+  H210  1  0.82444939  0.17182386  0.20958200  1
  H+  H211  1  0.11356712  0.63526218  0.34978897  1
  H+  H212  1  0.42730218  0.79710363  0.65745406  1
  H+  H213  1  0.72421731  0.36181325  0.16598281  1
  H+  H214  1  0.77969473  0.89807325  0.52688379  1
  H+  H215  1  0.89009436  0.52087403  0.50495934  1
  H+  H216  1  0.94789383  0.11468483  0.25953785  1
  H+  H217  1  0.38738640  0.10188283  0.66124530  1
  H+  H218  1  0.51963405  0.14201564  0.68591464  1
  H+  H219  1  0.62854939  0.61086773  1.00695253  1
  H+  H220  1  0.28013257  0.13363574  0.32124023  1
  H+  H221  1  0.14257353  1.06596328  0.57843532  1
  H+  H222  1  0.22099605  0.62167734  -0.02069659  1
  H+  H223  1  0.03003541  0.64386440  0.35344792  1
  H+  H224  1  0.73196882  0.61979460  0.64856359  1
  H+  H225  1  0.86093657  0.47528820  0.14884700  1
  H+  H226  1  0.02758531  0.91043808  -0.01081407  1
  H+  H227  1  0.13810146  0.86400808  0.49637473  1
  H+  H228  1  0.87966160  0.27462052  0.17137332  1
  H+  H229  1  0.87274985  0.60504446  0.34121717  1
  H+  H230  1  0.38993420  0.78009788  0.51028501  1
  H+  H231  1  0.90655337  0.08827929  0.57502788  1
  H+  H232  1  0.13499192  0.53396430  0.18108093  1
  H+  H233  1  0.40108199  0.36669483  0.32995966  1
  H+  H234  1  0.18144980  0.08246704  0.25014646  1
  H+  H235  1  0.12954920  0.25659433  0.67211660  1
  H+  H236  1  0.89092857  0.54561483  0.67947146  1
  H+  H237  1  0.86386514  0.23621321  0.67417517  1
  H+  H238  1  0.35734212  0.88893007  0.49524125  1
  H+  H239  1  0.62458877  0.64850263  0.49075207  1
  H+  H240  1  0.98006748  0.63535423  0.69178457  1
  H+  H241  1  0.48705408  0.35732319  0.33149871  1
  H+  H242  1  0.15519351  0.29953444  0.31532655  1
  H+  H243  1  0.34576829  0.37298408  0.48158886  1
  H+  H244  1  0.53258386  0.38519544  0.16620996  1
  H+  H245  1  0.83033635  0.41002832  0.39900080  1
  H+  H246  1  0.13893550  0.52709041  0.97688091  1
  H+  H247  1  0.62936030  0.35741393  0.83645985  1
  H+  H248  1  0.21418921  0.35664091  0.46830308  1
  H+  H249  1  1.08974248  0.71106166  0.75635736  1
  H+  H250  1  0.89865842  0.80470299  0.56590691  1
  H+  H251  1  0.82784433  0.69460502  0.35380469  1
  H+  H252  1  0.35798080  0.12482384  0.47724288  1
  H+  H253  1  0.90023862  0.63387193  0.84283567  1
  H+  H254  1  0.10749449  0.48214251  0.49826012  1
  H+  H255  1  0.86795616  0.71949965  0.74401199  1
  H+  H256  1  0.72131531  0.60970272  0.82852489  1
  H+  H257  1  0.11868922  0.98446872  -0.00077839  1
  H+  H258  1  0.64176391  0.03047671  0.33028123  1
  H+  H259  1  0.94885811  0.53554465  0.21910653  1
  H+  H260  1  0.63940342  0.36831600  0.65811116  1
  H+  H261  1  0.35663328  0.73062935  0.15634715  1
  H+  H262  1  0.63714804  0.56594929  0.94779667  1
  H+  H263  1  0.87403883  0.85441892  0.82567228  1
  H+  H264  1  0.73559503  0.11359795  0.32575668  1
  H+  H265  1  0.35973090  0.90272662  0.00615681  1
  H+  H266  1  0.60770325  0.72517505  0.00901578  1
  H+  H267  1  -0.03437503  0.12048970  0.00373133  1
  H+  H268  1  0.84418928  0.98349695  0.00116031  1
  H+  H269  1  0.60921147  0.22801019  0.15854765  1
  H+  H270  1  0.64134969  0.36875068  0.50524057  1
  H+  H271  1  0.07907515  0.91641279  0.08836857  1
  H+  H272  1  0.09236506  0.67674346  0.10555325  1
  H+  H273  1  1.10672449  0.15548983  0.53798017  1
  H+  H274  1  0.62685054  0.02166665  0.83935674  1
  H+  H275  1  0.25645576  0.13690258  0.10406970  1
  H+  H276  1  0.97391134  0.36545084  0.50721058  1
  H+  H277  1  0.37377496  0.85217355  0.83290532  1
  H+  H278  1  0.45203011  0.84754859  0.33200034  1
  H+  H279  1  -0.01896423  0.35376891  0.84432178  1
  H+  H280  1  0.39788710  0.86739859  0.66028162  1
  H+  H281  1  0.82730685  0.91408419  0.05194081  1
  H+  H282  1  0.25044333  0.84979462  0.83048448  1
  H+  H283  1  0.74576475  0.64034353  0.85401273  1
  H+  H284  1  0.92031711  0.78112108  0.30778023  1
  H+  H285  1  0.63762828  0.36547938  0.17125771  1
  H+  H286  1  0.51706254  0.63336258  0.16140113  1
  H+  H287  1  0.21463176  0.09272021  0.67035189  1
  H+  H288  1  0.82749615  0.17813085  0.07843518  1
  H+  H289  1  0.80946945  0.89792731  0.41741215  1
  H+  H290  1  0.66251705  0.08469379  0.23037641  1
  H+  H291  1  0.87239202  0.72017685  0.49352052  1
  H+  H292  1  0.58522290  0.41406369  0.10323662  1
  H+  H293  1  0.40078815  0.31089335  0.59677300  1
  H+  H294  1  0.82845578  0.17476155  0.73300404  1
  H+  H295  1  0.07801510  0.15060885  0.77375060  1
  H+  H296  1  0.38493999  0.61629829  0.17237510  1
  H+  H297  1  0.10082807  0.10374070  0.43747209  1
  H+  H298  1  0.83749976  0.42931798  0.72862994  1
  H+  H299  1  0.67041090  0.07635279  0.59702081  1
  H+  H300  1  0.61960413  0.90065287  0.70176791  1
  H+  H301  1  0.55089150  0.43071036  0.47999109  1
  H+  H302  1  0.14306982  0.11576901  0.15842312  1
  H+  H303  1  0.83932725  0.16568807  0.43356678  1
  H+  H304  1  0.42459642  0.84440384  0.56817511  1
  H+  H305  1  0.81815292  0.63314027  0.07948953  1
  H+  H306  1  0.14388312  0.02783692  0.15228159  1
  H+  H307  1  0.32884066  0.65777259  0.44426041  1
  H+  H308  1  0.16750972  0.07149088  0.89861157  1
  H+  H309  1  0.38008090  0.52548415  0.17000197  1
  H+  H310  1  0.41505853  0.08897915  0.91074413  1
  H+  H311  1  0.66684662  0.33122523  0.60274696  1
  H+  H312  1  0.56570230  0.92482016  0.41431705  1
  H+  H313  1  0.32147273  0.89620559  0.72952160  1
  H+  H314  1  0.65690586  0.82805272  0.89490576  1
  H+  H315  1  0.57842775  0.16929957  0.06513776  1
  H+  H316  1  0.32270696  0.68144504  0.06466280  1
  H+  H317  1  0.41560357  0.57542376  0.27351421  1
  H+  H318  1  0.94947608  0.80948691  0.66830954  1
  H+  H319  1  0.88358266  0.03004258  0.66748721  1
  H+  H320  1  0.15801112  0.57895245  0.57774735  1
  H+  H321  1  0.42315101  0.07220520  0.60558847  1
  H+  H322  1  0.57436912  0.91814957  0.10837602  1
  H+  H323  1  0.85886670  0.03675388  0.20382036  1
  H+  H324  1  0.41523904  0.58353512  0.89542297  1
  H+  H325  1  0.36962190  0.22498888  0.32935366  1
  H+  H326  1  0.16878494  0.57756009  0.88788727  1
  H+  H327  1  0.10237687  0.13346927  0.41276243  1
  H+  H328  1  0.88560501  0.64564080  0.74850361  1
  H+  H329  1  0.92404841  0.32972417  0.93568844  1
  H+  H330  1  0.12928157  0.78535908  0.65648223  1
  H+  H331  1  0.26509556  0.39377001  0.15435782  1
  H+  H332  1  0.88396484  0.66555697  0.64929271  1
  H+  H333  1  0.60462464  0.42502915  0.39476199  1
  H+  H334  1  0.93355283  0.88446056  0.91251130  1
  H+  H335  1  0.07673153  0.16722232  0.06609555  1
  H+  H336  1  0.08565856  0.40723605  0.76441680  1
  H+  H337  1  0.61152750  0.62798220  0.67131101  1
  H+  H338  1  0.33210542  0.15870548  0.41792546  1
  H+  H339  1  0.42356915  0.08727671  0.24965304  1
  H+  H340  1  0.32325512  0.39901420  0.72863482  1
  H+  H341  1  0.56731913  0.66767046  0.41926128  1
  H+  H342  1  0.14059904  0.28559805  0.60589963  1
  H+  H343  1  0.66042475  0.58287601  0.22912878  1
  H+  H344  1  0.86707616  0.98194539  0.51011089  1
  H+  H345  1  0.92744309  0.87916082  0.22738958  1
  H+  H346  1  0.86994373  0.22463377  0.33563569  1
  H+  H347  1  0.64082588  0.52959357  0.16758293  1
  H+  H348  1  0.35462296  0.82576812  0.33525082  1
  H+  H349  1  0.67612874  0.59552230  0.56092929  1
  H+  H350  1  0.11570922  1.02231582  0.51302196  1
  H+  H351  1  0.34356925  0.51798483  0.49998717  1
  H+  H352  1  0.34546143  0.66705153  0.71504687  1
  H+  H353  1  0.77262957  0.64431920  0.16940032  1
  H+  H354  1  0.07770371  0.92523665  0.42516390  1
  H+  H355  1  0.65907284  0.08321941  0.89936494  1
  H+  H356  1  0.17561501  0.86181799  0.22949482  1
  H+  H357  1  0.60858680  0.13840188  0.15861334  1
  H+  H358  1  0.57591163  0.41401796  0.72464729  1
  H+  H359  1  0.81545215  0.64144089  0.41347602  1
  H+  H360  1  0.91486657  0.33664114  0.60091909  1
  H+  H361  1  0.26827402  0.89399947  0.16034125  1
  H+  H362  1  0.06113342  0.89435280  0.72706985  1
  H+  H363  1  0.05629074  0.45168655  0.11143090  1
  H+  H364  1  0.12098831  0.38000390  0.82334005  1
  H+  H365  1  0.39881557  0.82440870  0.23427462  1
  H+  H366  1  0.87233887  0.89531187  0.14264664  1
  H+  H367  1  0.83509207  0.41545841  0.05546996  1
  H+  H368  1  0.10276943  0.41574523  0.04423895  1
  H+  H369  1  0.41075988  0.82989776  0.89070134  1
  H+  H370  1  0.97183102  0.36408104  0.32394689  1
  H+  H371  1  0.89473861  0.90258756  0.68051021  1
  H+  H372  1  0.08669094  0.66423495  0.44574224  1
  H+  H373  1  0.11182140  0.64298861  0.00630920  1
  H+  H374  1  0.32726385  0.92563966  0.06761276  1
  H+  H375  1  0.61854183  0.76869683  0.18450742  1
  H+  H376  1  0.12898680  0.36271723  0.47810288  1
  H+  H377  1  0.15110442  0.83453461  0.59181432  1
  H+  H378  1  0.16774259  0.32223927  0.89272355  1
  H+  H379  1  0.17019099  0.59102971  0.27313988  1
  H+  H380  1  0.60960083  0.97570812  0.49837675  1
  H+  H381  1  0.91487642  0.59415253  0.28070458  1
  H+  H382  1  0.33758217  0.05135454  0.54371453  1
  H+  H383  1  0.41077128  0.31954994  0.90301900  1
  O2-  O384  1  0.07860496  0.16761031  0.14480239  1
  O2-  O385  1  0.08455050  0.19605449  0.54438356  1
  O2-  O386  1  0.08424978  0.15336428  0.81958359  1
  O2-  O387  1  0.06672046  0.42830166  0.14832638  1
  O2-  O388  1  0.07333338  0.42323750  0.48051731  1
  O2-  O389  1  0.09422834  0.41503017  0.80998907  1
  O2-  O390  1  0.08901943  0.67519239  0.15162277  1
  O2-  O391  1  0.08568002  0.66567711  0.49129751  1
  O2-  O392  1  0.08377041  0.75133216  0.82569254  1
  O2-  O393  1  0.08509866  0.92086369  0.13364731  1
  O2-  O394  1  0.08075322  0.91616243  0.47038405  1
  O2-  O395  1  0.07998615  0.89970282  0.80730962  1
  O2-  O396  1  0.27691919  0.16317047  0.06249725  1
  O2-  O397  1  0.33031788  0.15776785  0.46307941  1
  O2-  O398  1  0.33508521  0.15541536  0.81575646  1
  O2-  O399  1  0.32609424  0.42587299  0.14166504  1
  O2-  O400  1  0.32490079  0.40826156  0.46195395  1
  O2-  O401  1  0.33122627  0.40490590  0.81010241  1
  O2-  O402  1  0.32782412  0.67202541  0.13705303  1
  O2-  O403  1  0.33240413  0.67157913  0.48827351  1
  O2-  O404  1  0.32772489  0.66269757  0.80020642  1
  O2-  O405  1  0.32957131  0.92328098  0.14531464  1
  O2-  O406  1  0.32611461  0.91582637  0.47703971  1
  O2-  O407  1  0.30970675  0.89166160  0.81469559  1
  O2-  O408  1  0.57755141  0.16753234  0.14271666  1
  O2-  O409  1  0.57279152  0.16520384  0.47834735  1
  O2-  O410  1  0.56246722  0.15587864  0.82384877  1
  O2-  O411  1  0.59215861  0.42086456  0.14817665  1
  O2-  O412  1  0.60995039  0.44426020  0.47378962  1
  O2-  O413  1  0.56862195  0.39914795  0.80505315  1
  O2-  O414  1  0.57734834  0.66675241  0.14545434  1
  O2-  O415  1  0.58340370  0.66792793  0.47937633  1
  O2-  O416  1  0.60052772  0.66964003  0.81362292  1
  O2-  O417  1  0.56659157  0.91587102  0.15288757  1
  O2-  O418  1  0.57704515  0.91472454  0.48366497  1
  O2-  O419  1  0.58165388  0.92419470  0.80897632  1
  O2-  O420  1  0.82724739  0.17026625  0.16520729  1
  O2-  O421  1  0.83402981  0.16724779  0.47841995  1
  O2-  O422  1  0.82042597  0.16247652  0.81366217  1
  O2-  O423  1  0.82986604  0.41572153  0.13323469  1
  O2-  O424  1  0.83165793  0.41112377  0.47494799  1
  O2-  O425  1  0.83111043  0.42986158  0.80431341  1
  O2-  O426  1  0.83552533  0.67705979  0.15711003  1
  O2-  O427  1  0.84045995  0.65816385  0.48224259  1
  O2-  O428  1  0.86685319  0.67870114  0.77464345  1
  O2-  O429  1  0.84080336  0.92057621  0.12186279  1
  O2-  O430  1  0.83197615  0.91886646  0.50176265  1
  O2-  O431  1  0.82041719  0.91066566  0.81040087  1
  O2-  O432  1  0.18052820  0.09016224  0.16275803  1
  O2-  O433  1  0.13433755  0.07624214  0.53558730  1
  O2-  O434  1  0.17060996  0.06891264  0.85333027  1
  O2-  O435  1  0.15499607  0.33710072  0.18245875  1
  O2-  O436  1  0.15015723  0.32300364  0.46804934  1
  O2-  O437  1  0.16685604  0.32302358  0.84699637  1
  O2-  O438  1  0.17139638  0.59478657  0.19337236  1
  O2-  O439  1  0.16312074  0.58232086  0.53306301  1
  O2-  O440  1  0.17081751  0.56947914  0.84166480  1
  O2-  O441  1  0.16680936  0.84226765  0.18545849  1
  O2-  O442  1  0.16604535  0.83376518  0.51530459  1
  O2-  O443  1  0.16094366  0.76964803  0.86179125  1
  O2-  O444  1  0.41903635  0.08260840  0.19188791  1
  O2-  O445  1  0.38948176  0.06003925  0.52308117  1
  O2-  O446  1  0.41711000  0.08531589  0.86447859  1
  O2-  O447  1  0.44084613  0.31763362  0.19655897  1
  O2-  O448  1  0.38707881  0.30162084  0.51876171  1
  O2-  O449  1  0.40955765  0.31955390  0.85737579  1
  O2-  O450  1  0.41359626  0.58520668  0.18752130  1
  O2-  O451  1  0.34592605  0.55509733  0.53458958  1
  O2-  O452  1  0.41164299  0.58148215  0.85021201  1
  O2-  O453  1  0.40063929  0.82931314  0.18895965  1
  O2-  O454  1  0.42062249  0.84193835  0.52189751  1
  O2-  O455  1  0.40748242  0.82399202  0.84591378  1
  O2-  O456  1  0.65759244  0.08260782  0.18514519  1
  O2-  O457  1  0.66511137  0.08216877  0.51468030  1
  O2-  O458  1  0.65524718  0.08344336  0.85412544  1
  O2-  O459  1  0.66605274  0.33166182  0.18453774  1
  O2-  O460  1  0.66535169  0.33340289  0.52078825  1
  O2-  O461  1  0.66317187  0.33272239  0.85475213  1
  O2-  O462  1  0.66800288  0.58991733  0.18303860  1
  O2-  O463  1  0.68189273  0.59951938  0.51582333  1
  O2-  O464  1  0.56929549  0.52532669  0.88025120  1
  O2-  O465  1  0.64039933  0.82433709  0.20597786  1
  O2-  O466  1  0.60762385  0.80491989  0.54657043  1
  O2-  O467  1  0.65565972  0.82688510  0.84925420  1
  O2-  O468  1  0.90025137  0.08239997  0.17745252  1
  O2-  O469  1  0.91573237  0.09123550  0.53012812  1
  O2-  O470  1  0.93395919  0.04876108  0.87626615  1
  O2-  O471  1  0.90893689  0.33738469  0.18532353  1
  O2-  O472  1  0.91320435  0.33265300  0.52315409  1
  O2-  O473  1  0.92516775  0.32523103  0.86516160  1
  O2-  O474  1  0.93410482  0.57254541  0.19581659  1
  O2-  O475  1  0.91624674  0.57964854  0.52197286  1
  O2-  O476  1  0.93614768  0.61505866  0.86409380  1
  O2-  O477  1  0.92604563  0.85746475  0.18555551  1
  O2-  O478  1  0.90853935  0.82219617  0.52319768  1
  O2-  O479  1  0.91215966  0.83360291  0.84217530  1
  O2-  O480  1  0.18113765  0.08794090  0.29479534  1
  O2-  O481  1  0.15321751  0.06857207  0.65929449  1
  O2-  O482  1  0.16044031  0.08770024  0.97540995  1
  O2-  O483  1  0.16995870  0.36141871  0.30578648  1
  O2-  O484  1  0.15614264  0.31089432  0.64738358  1
  O2-  O485  1  0.16791808  0.32277101  0.96896484  1
  O2-  O486  1  0.16497054  0.58400368  0.31812065  1
  O2-  O487  1  0.14458934  0.57004575  0.66487841  1
  O2-  O488  1  0.16441130  0.58597734  0.95931460  1
  O2-  O489  1  0.20528376  0.90841883  0.29580107  1
  O2-  O490  1  0.14201044  0.83911961  0.63617179  1
  O2-  O491  1  0.16216360  0.83357449  0.97480437  1
  O2-  O492  1  0.42457109  0.09130509  0.30186561  1
  O2-  O493  1  0.42361190  0.07601670  0.65093689  1
  O2-  O494  1  0.41111303  0.09275045  0.98446773  1
  O2-  O495  1  0.42691895  0.32921924  0.31593813  1
  O2-  O496  1  0.41105036  0.31868070  0.64175888  1
  O2-  O497  1  0.42040790  0.32502434  0.98083319  1
  O2-  O498  1  0.41161541  0.56817113  0.31825927  1
  O2-  O499  1  0.42408854  0.56069708  0.65034895  1
  O2-  O500  1  0.42458451  0.57724734  0.97637669  1
  O2-  O501  1  0.39492564  0.81045306  0.31391523  1
  O2-  O502  1  0.43901107  0.85202902  0.64036491  1
  O2-  O503  1  0.41391502  0.85106213  0.97494991  1
  O2-  O504  1  0.67475805  0.08782077  0.31120260  1
  O2-  O505  1  0.67234457  0.06959202  0.64152985  1
  O2-  O506  1  0.66770443  0.09319822  0.98046497  1
  O2-  O507  1  0.66962560  0.32751479  0.30827490  1
  O2-  O508  1  0.66984744  0.33647029  0.64789354  1
  O2-  O509  1  0.66487145  0.33185267  0.97767211  1
  O2-  O510  1  0.64646460  0.56983966  0.30080885  1
  O2-  O511  1  0.66953583  0.58807886  0.64060338  1
  O2-  O512  1  0.65491848  0.57717623  0.99090284  1
  O2-  O513  1  0.63591513  0.82200094  0.32389260  1
  O2-  O514  1  0.68784702  0.84994373  0.58128303  1
  O2-  O515  1  0.65685606  0.82474891  0.97247446  1
  O2-  O516  1  0.95023573  0.10466919  0.30332767  1
  O2-  O517  1  0.91530947  0.09054766  0.65427288  1
  O2-  O518  1  0.90479389  0.09524407  0.98867284  1
  O2-  O519  1  0.91132317  0.32974346  0.30774860  1
  O2-  O520  1  0.91692272  0.33898283  0.64656131  1
  O2-  O521  1  0.92768497  0.33889634  0.98193676  1
  O2-  O522  1  0.91221990  0.58509558  0.32491932  1
  O2-  O523  1  0.91667490  0.60900266  0.68485996  1
  O2-  O524  1  0.89998174  0.57318532  0.97683722  1
  O2-  O525  1  0.94255131  0.95062296  0.29819543  1
  O2-  O526  1  0.88399861  0.77419214  0.67049771  1
  O2-  O527  1  0.95255244  0.92969537  0.94420201  1
  O2-  O528  1  0.07080037  0.16304599  0.02072684  1
  O2-  O529  1  0.12609625  0.20361444  0.32059564  1
  O2-  O530  1  0.07617072  0.15475620  0.69983112  1
  O2-  O531  1  0.09372373  0.41981248  0.00093350  1
  O2-  O532  1  0.06951002  0.42005141  0.35450477  1
  O2-  O533  1  0.07679863  0.40053910  0.68920025  1
  O2-  O534  1  0.09389952  0.67626899  0.03147295  1
  O2-  O535  1  0.08932674  0.66881439  0.36878179  1
  O2-  O536  1  0.08367044  0.69032760  0.71273614  1
  O2-  O537  1  0.08179829  0.92206615  0.00940963  1
  O2-  O538  1  0.07650277  0.94310339  0.34756557  1
  O2-  O539  1  0.04810916  0.89289809  0.68280152  1
  O2-  O540  1  0.36763272  0.18861760  0.05761188  1
  O2-  O541  1  0.34022359  0.16157854  0.33863140  1
  O2-  O542  1  0.32925388  0.15202028  0.68785526  1
  O2-  O543  1  0.33051905  0.40060613  0.01303698  1
  O2-  O544  1  0.34738155  0.40998474  0.34364339  1
  O2-  O545  1  0.32491618  0.40143592  0.68334714  1
  O2-  O546  1  0.32216066  0.68859762  0.01828123  1
  O2-  O547  1  0.32558702  0.64669466  0.36095005  1
  O2-  O548  1  0.36696005  0.66924123  0.67311531  1
  O2-  O549  1  0.32696806  0.92957737  0.02196799  1
  O2-  O550  1  0.28204179  0.84275276  0.37148514  1
  O2-  O551  1  0.33429458  0.90082091  0.68579301  1
  O2-  O552  1  0.57725558  0.16711528  0.01944397  1
  O2-  O553  1  0.58271590  0.16582560  0.35094542  1
  O2-  O554  1  0.57096019  0.17909644  0.71177389  1
  O2-  O555  1  0.58031030  0.40947528  0.02360727  1
  O2-  O556  1  0.59231759  0.41275903  0.35080199  1
  O2-  O557  1  0.58101543  0.42049843  0.67962785  1
  O2-  O558  1  0.57658822  0.66535541  0.02549555  1
  O2-  O559  1  0.55779827  0.66719544  0.36992637  1
  O2-  O560  1  0.57130102  0.64706071  0.68712584  1
  O2-  O561  1  0.62715697  0.94429962  0.03205358  1
  O2-  O562  1  0.55408816  0.93604751  0.37017624  1
  O2-  O563  1  0.66720146  0.92819326  0.67317457  1
  O2-  O564  1  0.82817022  0.18004609  0.03364321  1
  O2-  O565  1  0.84155495  0.16382301  0.35028009  1
  O2-  O566  1  0.83474389  0.17504237  0.68820762  1
  O2-  O567  1  0.83568284  0.41500966  0.00985764  1
  O2-  O568  1  0.83132695  0.41207710  0.35309159  1
  O2-  O569  1  0.84254771  0.43349304  0.68297205  1
  O2-  O570  1  0.80117322  0.59772305  0.04195995  1
  O2-  O571  1  0.80411149  0.63541276  0.36766655  1
  O2-  O572  1  0.85457808  0.69733252  0.63171401  1
  O2-  O573  1  0.81970806  0.92035431  0.00641762  1
  O2-  O574  1  0.80559216  0.88436031  0.37361980  1
  O2-  O575  1  0.85164099  0.91966134  0.68769724  1
