# generated using pymatgen
data_H2O
_symmetry_space_group_name_H-M   'P 1'
_cell_length_a   17.99132097
_cell_length_b   17.99006222
_cell_length_c   21.99686951
_cell_angle_alpha   89.99531667
_cell_angle_beta   90.01517966
_cell_angle_gamma   120.00655280
_symmetry_Int_Tables_number   1
_chemical_formula_structural   H2O
_chemical_formula_sum   'H384 O192'
_cell_volume   6165.36128282
_cell_formula_units_Z   192
loop_
 _symmetry_equiv_pos_site_id
 _symmetry_equiv_pos_as_xyz
  1  'x, y, z'
loop_
 _atom_type_symbol
 _atom_type_oxidation_number
  H+  1.0
  O2-  -2.0
loop_
 _atom_site_type_symbol
 _atom_site_label
 _atom_site_symmetry_multiplicity
 _atom_site_fract_x
 _atom_site_fract_y
 _atom_site_fract_z
 _atom_site_occupancy
  H+  H0  1  0.72576922  0.12886251  0.50455044  1
  H+  H1  1  0.87617864  0.84915173  0.65272194  1
  H+  H2  1  0.85281928  0.63504978  0.00996344  1
  H+  H3  1  0.51724593  0.85103465  0.81520973  1
  H+  H4  1  0.73910303  0.12944849  0.17178036  1
  H+  H5  1  0.10656812  0.72354669  0.01021053  1
  H+  H6  1  0.61297178  0.33698208  0.86216176  1
  H+  H7  1  0.18553796  0.29526966  0.15912267  1
  H+  H8  1  0.63917886  0.85982040  0.84096965  1
  H+  H9  1  0.85435420  0.22434356  0.00535859  1
  H+  H10  1  0.19559836  0.26215414  0.95040427  1
  H+  H11  1  0.72145462  0.35374547  0.00638069  1
  H+  H12  1  0.36820579  0.90144049  0.83386614  1
  H+  H13  1  0.88948200  0.27401395  0.32468389  1
  H+  H14  1  0.54928194  0.65528164  0.35015740  1
  H+  H15  1  0.72158248  0.60728082  0.99665840  1
  H+  H16  1  0.44383229  0.85077631  0.14509973  1
  H+  H17  1  0.23673265  0.10782920  0.17382074  1
  H+  H18  1  0.38450053  0.85721502  0.64516995  1
  H+  H19  1  0.65541925  0.87109366  0.32241577  1
  H+  H20  1  0.72351975  0.12424497  0.65971817  1
  H+  H21  1  0.88319748  0.62170386  0.84065707  1
  H+  H22  1  0.57894205  0.17232934  0.43061804  1
  H+  H23  1  0.09759726  0.47226736  0.82908879  1
  H+  H24  1  0.34126730  0.62797946  0.82902442  1
  H+  H25  1  0.38743616  0.52140994  0.99177088  1
  H+  H26  1  0.57016986  0.40915684  0.75935937  1
  H+  H27  1  0.60917741  0.49752833  0.17473423  1
  H+  H28  1  0.35074053  0.38056990  0.36543323  1
  H+  H29  1  0.61526454  0.63393739  -0.00008227  1
  H+  H30  1  0.36901910  0.43693709  0.66705531  1
  H+  H31  1  0.60865822  0.22628694  0.33762969  1
  H+  H32  1  0.23038267  0.61071412  0.32322590  1
  H+  H33  1  0.12512883  0.36340729  0.83665939  1
  H+  H34  1  0.79125822  0.90225435  0.33944558  1
  H+  H35  1  0.61257911  0.23870198  0.67685818  1
  H+  H36  1  0.82870632  0.40868346  0.43350408  1
  H+  H37  1  0.51387350  0.12385644  1.00056332  1
  H+  H38  1  0.21770661  0.85809531  0.99575286  1
  H+  H39  1  0.37410403  0.72577398  0.32810267  1
  H+  H40  1  0.61628130  0.39097317  0.33844981  1
  H+  H41  1  0.85705162  0.46721815  0.34171100  1
  H+  H42  1  0.60840648  0.46882708  1.00520164  1
  H+  H43  1  0.14574097  0.61514184  0.65726796  1
  H+  H44  1  0.62345305  -0.01953441  0.32948794  1
  H+  H45  1  0.48689920  0.13018766  0.84675785  1
  H+  H46  1  0.48136062  0.12740512  0.67634130  1
  H+  H47  1  0.85886804  0.52562179  0.66327284  1
  H+  H48  1  0.34502260  0.46522302  0.35657883  1
  H+  H49  1  0.40894490  0.86582465  0.31652252  1
  H+  H50  1  0.87740656  0.14684633  0.16141786  1
  H+  H51  1  0.38824815  0.26651783  0.16997441  1
  H+  H52  1  0.12917707  0.35679579  0.50906431  1
  H+  H53  1  0.88002032  0.35791132  0.50513827  1
  H+  H54  1  0.96648632  0.60774253  0.99736907  1
  H+  H55  1  0.94693331  0.13211483  0.52186966  1
  H+  H56  1  0.43641195  0.30583859  0.82349440  1
  H+  H57  1  0.36549243  0.63249434  0.32830208  1
  H+  H58  1  0.11491333  0.97538871  0.15960184  1
  H+  H59  1  0.38336924  0.73860285  0.48480207  1
  H+  H60  1  0.71440320  0.61521150  0.53514645  1
  H+  H61  1  0.28470526  0.63321714  0.66559178  1
  H+  H62  1  0.88337554  0.90752517  0.16670856  1
  H+  H63  1  0.85887492  0.47238085  0.16427731  1
  H+  H64  1  0.10889197  0.88768756  0.67154110  1
  H+  H65  1  0.35918469  0.21819390  0.00728261  1
  H+  H66  1  0.77862104  0.63854736  0.83243977  1
  H+  H67  1  0.61319818  0.90568502  0.65104158  1
  H+  H68  1  0.38779285  0.27579183  0.35070626  1
  H+  H69  1  0.02621088  0.89784170  0.34785439  1
  H+  H70  1  0.87969008  0.03005987  0.51132038  1
  H+  H71  1  1.03411034  0.38026914  0.16016024  1
  H+  H72  1  0.96409034  0.60647135  0.17923430  1
  H+  H73  1  0.37731919  0.75939035  0.84355770  1
  H+  H74  1  0.02081575  0.89046753  0.16214393  1
  H+  H75  1  0.61331335  0.14995841  0.67512704  1
  H+  H76  1  0.32196796  0.40274038  0.05917499  1
  H+  H77  1  0.15452308  0.12004637  0.51246401  1
  H+  H78  1  0.12175318  0.64206541  0.82521124  1
  H+  H79  1  0.53980497  0.88679796  0.32557558  1
  H+  H80  1  0.63829954  0.36719639  0.50496356  1
  H+  H81  1  0.84908432  0.72006780  0.67553646  1
  H+  H82  1  0.97764152  0.11339829  0.82591809  1
  H+  H83  1  0.90671339  0.58019305  0.93874772  1
  H+  H84  1  0.96619782  0.35674492  0.99170095  1
  H+  H85  1  0.89588783  0.87434242  0.33394473  1
  H+  H86  1  0.12382778  0.59923955  0.50598135  1
  H+  H87  1  0.85404328  0.47084461  0.00925596  1
  H+  H88  1  0.12860102  0.60765468  0.99630333  1
  H+  H89  1  0.10491220  0.72268632  0.66174407  1
  H+  H90  1  0.60706820  0.60326714  0.67506431  1
  H+  H91  1  0.72341745  0.37340671  0.17497953  1
  H+  H92  1  0.41605088  0.34532090  0.43755240  1
  H+  H93  1  0.47170899  0.35392532  0.98453875  1
  H+  H94  1  0.67165567  0.09339678  0.26251805  1
  H+  H95  1  0.96646017  0.61171296  0.84222741  1
  H+  H96  1  0.26675526  0.62598596  0.15309510  1
  H+  H97  1  0.61484503  0.72604390  0.50696373  1
  H+  H98  1  0.36147470  0.56407516  0.67249557  1
  H+  H99  1  0.27682667  0.13699786  0.49864520  1
  H+  H100  1  0.63354650  1.01855436  -0.00110621  1
  H+  H101  1  0.12822873  0.51797328  -0.00630139  1
  H+  H102  1  0.36546002  0.13676243  0.68809911  1
  H+  H103  1  0.62984740  0.35133268  1.00502208  1
  H+  H104  1  0.64696521  0.52787109  0.32921972  1
  H+  H105  1  0.11076835  0.98866018  0.82609397  1
  H+  H106  1  0.62027055  0.36343103  0.65514808  1
  H+  H107  1  0.61047777  0.21868045  0.00690317  1
  H+  H108  1  0.15201153  0.57840796  0.90197045  1
  H+  H109  1  0.85761030  0.47268140  0.49030112  1
  H+  H110  1  0.88945007  0.78074928  0.17609346  1
  H+  H111  1  0.10363156  0.37791364  0.00228825  1
  H+  H112  1  0.52145503  0.15590346  0.17104131  1
  H+  H113  1  0.96596125  0.61173197  0.49582705  1
  H+  H114  1  0.09753984  0.20932591  1.01623866  1
  H+  H115  1  0.35639813  0.62829414  1.00158590  1
  H+  H116  1  0.12057380  0.37863132  0.32849502  1
  H+  H117  1  0.14860924  0.82551578  0.94165623  1
  H+  H118  1  0.90563706  0.32988717  0.93280794  1
  H+  H119  1  0.61193071  0.12325871  1.00098896  1
  H+  H120  1  0.72239338  0.35914848  0.32770930  1
  H+  H121  1  0.36306984  0.39790087  0.50118192  1
  H+  H122  1  0.79698116  0.90878618  0.16166966  1
  H+  H123  1  0.34030140  0.15701547  0.10338895  1
  H+  H124  1  0.83226341  0.67796651  0.10427781  1
  H+  H125  1  0.34088833  0.96803275  0.16070618  1
  H+  H126  1  0.50277516  0.38417627  0.66846478  1
  H+  H127  1  0.63134552  0.76669760  0.98941138  1
  H+  H128  1  0.87730075  0.60984774  0.48632184  1
  H+  H129  1  0.87989788  0.78293213  0.83536406  1
  H+  H130  1  1.02448188  0.89345014  0.50046106  1
  H+  H131  1  0.89465452  0.78453596  0.33839854  1
  H+  H132  1  0.64975886  0.61041668  0.83994094  1
  H+  H133  1  0.52622536  0.63523588  0.00182808  1
  H+  H134  1  0.89647183  0.36670882  0.17285096  1
  H+  H135  1  0.66139964  0.78604383  0.33124694  1
  H+  H136  1  0.51083328  0.38418694  0.16299739  1
  H+  H137  1  0.63708052  0.89041061  0.16349267  1
  H+  H138  1  0.21963260  0.86092428  0.64939148  1
  H+  H139  1  -0.02954498  0.60025267  0.32986372  1
  H+  H140  1  0.38815770  0.02083559  0.99254528  1
  H+  H141  1  0.20247573  0.84625195  0.13380997  1
  H+  H142  1  0.02264731  0.37634158  0.49209495  1
  H+  H143  1  0.40527492  0.05902917  0.52955545  1
  H+  H144  1  0.52043253  0.13623068  0.33476676  1
  H+  H145  1  0.40242464  0.99618758  0.33673146  1
  H+  H146  1  0.89952517  0.03707685  0.67475859  1
  H+  H147  1  0.65634163  0.57632080  0.23725123  1
  H+  H148  1  0.11338244  0.47508933  0.32891010  1
  H+  H149  1  0.58889677  0.17193457  0.77276266  1
  H+  H150  1  0.78297257  0.64006263  0.34885323  1
  H+  H151  1  0.23829962  0.35048423  0.98355667  1
  H+  H152  1  0.62423964  0.60538839  0.17355533  1
  H+  H153  1  0.22228962  0.36321970  0.51463115  1
  H+  H154  1  0.72094508  0.11068635  0.99933309  1
  H+  H155  1  0.37495827  0.63896486  0.49050493  1
  H+  H156  1  0.60352629  0.90996842  0.42886203  1
  H+  H157  1  0.03628881  0.38804179  0.67138936  1
  H+  H158  1  0.62004004  0.22264867  0.83576817  1
  H+  H159  1  0.14257171  1.02559951  0.51578379  1
  H+  H160  1  0.37269859  0.15295438  0.49988480  1
  H+  H161  1  0.12558420  0.14302425  0.67314083  1
  H+  H162  1  0.17212343  0.81178781  0.38524167  1
  H+  H163  1  0.38629938  0.10452155  0.32066554  1
  H+  H164  1  0.63068745  0.13161853  0.50532711  1
  H+  H165  1  0.39047289  0.77091246  0.65185713  1
  H+  H166  1  0.36217727  0.13128741  0.00739315  1
  H+  H167  1  0.21021883  0.84779410  0.49688545  1
  H+  H168  1  0.10126583  0.17541823  0.10944929  1
  H+  H169  1  0.52618070  0.63552609  0.14639793  1
  H+  H170  1  0.07864500  0.92037585  0.73009693  1
  H+  H171  1  0.21101099  0.60508484  0.84184021  1
  H+  H172  1  0.75214609  0.41924819  0.67407170  1
  H+  H173  1  0.61563776  0.23843870  0.48903218  1
  H+  H174  1  0.13469216  0.60336418  0.17444191  1
  H+  H175  1  0.10252860  0.70864279  0.32323869  1
  H+  H176  1  0.35849117  0.88314941  1.00617241  1
  H+  H177  1  0.64277651  0.85251616  0.51291116  1
  H+  H178  1  0.21860380  0.36584254  0.33944204  1
  H+  H179  1  0.66735910  0.79026381  0.84744780  1
  H+  H180  1  0.97770917  0.27109939  0.61701186  1
  H+  H181  1  0.38404070  0.76712161  1.00030589  1
  H+  H182  1  0.87883606  0.91097741  0.49377718  1
  H+  H183  1  0.65035993  0.77491085  0.17014000  1
  H+  H184  1  0.22524807  0.87620809  0.33425483  1
  H+  H185  1  0.52143358  0.89472743  0.65727361  1
  H+  H186  1  0.90467155  0.38988616  0.70331321  1
  H+  H187  1  0.14603184  0.52681571  0.66255948  1
  H+  H188  1  0.11948704  0.77195791  0.84141032  1
  H+  H189  1  0.85582781  0.38235998  0.00804846  1
  H+  H190  1  0.45305658  1.04525103  0.18301496  1
  H+  H191  1  0.56617082  0.65825632  0.84902013  1
  H+  H192  1  0.36853818  0.98564537  0.66372371  1
  H+  H193  1  0.27350884  0.41665163  0.66828826  1
  H+  H194  1  0.76891755  0.12958262  0.82778722  1
  H+  H195  1  0.54093550  0.88185506  0.48461112  1
  H+  H196  1  0.39667561  0.85736385  0.84908143  1
  H+  H197  1  0.65213547  0.61941796  0.33201934  1
  H+  H198  1  0.83638015  0.93233226  0.63778234  1
  H+  H199  1  0.89690036  0.27795475  0.17182136  1
  H+  H200  1  0.22244114  0.10799571  0.99536658  1
  H+  H201  1  0.55973149  0.90269847  0.18130885  1
  H+  H202  1  0.12909713  0.23359323  0.49175310  1
  H+  H203  1  0.93493080  0.43134344  0.68779339  1
  H+  H204  1  0.87975830  0.99206536  0.33754451  1
  H+  H205  1  0.15197462  0.28435716  0.66227126  1
  H+  H206  1  0.87848491  -0.00086197  0.80681331  1
  H+  H207  1  0.18260573  0.08676495  0.60783272  1
  H+  H208  1  0.65027195  0.84523729  0.70190376  1
  H+  H209  1  0.10295297  0.88653731  0.01007443  1
  H+  H210  1  0.62726776  0.61363423  0.51708688  1
  H+  H211  1  0.38084993  0.60762865  0.14670428  1
  H+  H212  1  0.99646351  0.13210148  0.17749063  1
  H+  H213  1  0.26269566  0.12532152  0.68256152  1
  H+  H214  1  0.44348040  0.61094205  0.82642207  1
  H+  H215  1  0.72619400  0.36390307  0.50546488  1
  H+  H216  1  0.76369758  0.38993234  0.83157424  1
  H+  H217  1  0.26586848  0.62825671  1.00017811  1
  H+  H218  1  0.92274057  0.83867673  0.23699888  1
  H+  H219  1  0.33320231  0.45529898  0.14928261  1
  H+  H220  1  0.15515248  0.82899273  0.59374320  1
  H+  H221  1  0.36863901  0.75782299  0.16012129  1
  H+  H222  1  0.33641899  0.87684432  0.15515608  1
  H+  H223  1  0.61351665  0.47900222  0.49900037  1
  H+  H224  1  0.11342224  0.84467308  0.13669799  1
  H+  H225  1  0.34285495  0.94046125  0.48571789  1
  H+  H226  1  0.97293575  0.61003663  0.64696108  1
  H+  H227  1  0.75614854  0.63838978  0.68566536  1
  H+  H228  1  0.08667713  0.67128973  0.21887082  1
  H+  H229  1  0.13106862  0.02138728  0.99208905  1
  H+  H230  1  1.02989131  0.14728275  0.33384101  1
  H+  H231  1  0.63822356  0.51637759  0.83713486  1
  H+  H232  1  0.20040607  0.86532498  0.84903280  1
  H+  H233  1  0.17342655  0.71911697  0.78193958  1
  H+  H234  1  0.13697227  0.15127816  0.16773317  1
  H+  H235  1  0.63717382  0.11577651  0.32332195  1
  H+  H236  1  0.32779328  0.49788897  0.26791281  1
  H+  H237  1  0.42019046  0.82336811  0.55577175  1
  H+  H238  1  0.03868336  0.14752154  0.67248897  1
  H+  H239  1  0.27242718  0.90291714  0.83281258  1
  H+  H240  1  0.13243519  0.27859597  0.32294185  1
  H+  H241  1  0.96305442  0.36118185  0.83762763  1
  H+  H242  1  0.63962094  0.10574210  0.84016773  1
  H+  H243  1  0.89459553  0.12287092  0.32518372  1
  H+  H244  1  0.27814770  0.13957083  0.33740120  1
  H+  H245  1  0.63208418  0.28674441  0.17646735  1
  H+  H246  1  0.11251172  0.23083368  0.82493995  1
  H+  H247  1  0.88544659  0.11080796  0.82492935  1
  H+  H248  1  0.63044211  0.85891267  0.99464240  1
  H+  H249  1  0.12903105  0.86234100  0.50229085  1
  H+  H250  1  0.84704333  0.22405305  0.49287048  1
  H+  H251  1  0.88673616  0.78216306  0.49318760  1
  H+  H252  1  0.40405880  0.14186098  0.85170179  1
  H+  H253  1  0.60191130  0.72179811  0.68662691  1
  H+  H254  1  0.14495197  0.12376652  0.32064999  1
  H+  H255  1  0.73552809  0.85102085  0.67099551  1
  H+  H256  1  0.84977697  0.13322329  0.00796721  1
  H+  H257  1  0.42407177  0.52799787  0.28261048  1
  H+  H258  1  0.60723276  0.39219521  0.16533227  1
  H+  H259  1  0.38785236  0.84941667  0.49509353  1
  H+  H260  1  0.09616242  0.89377946  0.82925828  1
  H+  H261  1  0.85115570  0.47991367  0.83061040  1
  H+  H262  1  0.64303207  0.41108412  0.79669215  1
  H+  H263  1  0.26356591  0.39399740  0.82030454  1
  H+  H264  1  0.49307973  0.14188893  0.51420720  1
  H+  H265  1  0.14494656  0.12552151  0.84157384  1
  H+  H266  1  0.45964569  0.97140113  0.37735349  1
  H+  H267  1  0.77054285  0.63415518  0.43834805  1
  H+  H268  1  0.35643569  0.29853757  0.66376640  1
  H+  H269  1  0.09832634  0.71927887  0.49049448  1
  H+  H270  1  0.37128416  0.12533103  0.16163223  1
  H+  H271  1  0.85230583  0.72386534  1.00514386  1
  H+  H272  1  0.83547078  0.12893642  0.49923778  1
  H+  H273  1  0.14287819  0.02206100  0.66583273  1
  H+  H274  1  0.36347072  0.51621486  0.83548335  1
  H+  H275  1  0.60895472  0.15440204  0.16599569  1
  H+  H276  1  0.59186598  0.47207870  0.67396175  1
  H+  H277  1  0.36535209  0.38317838  0.00176122  1
  H+  H278  1  0.32290951  0.66266404  0.76772977  1
  H+  H279  1  0.63238599  0.03729441  0.65399487  1
  H+  H280  1  0.65324944  1.04021223  0.16938043  1
  H+  H281  1  0.85891008  0.64576389  0.16277048  1
  H+  H282  1  0.10638820  0.12698334  1.01690002  1
  H+  H283  1  0.38006841  0.53119630  0.52374582  1
  H+  H284  1  0.85207737  0.13362354  0.68027473  1
  H+  H285  1  0.86720754  0.89569220  0.81088339  1
  H+  H286  1  0.33372215  0.15896017  0.39797246  1
  H+  H287  1  0.11902420  0.90581736  0.36032154  1
  H+  H288  1  0.81338171  0.45200285  0.73524177  1
  H+  H289  1  0.66922620  0.07534231  0.89772953  1
  H+  H290  1  0.16434575  0.57726392  0.56190836  1
  H+  H291  1  -0.03658797  0.85834761  -0.00666415  1
  H+  H292  1  0.40395291  0.60484657  0.57518394  1
  H+  H293  1  0.16737833  0.85706353  0.24838991  1
  H+  H294  1  0.91505141  0.32141822  0.55935466  1
  H+  H295  1  0.90903240  0.82397803  0.56061741  1
  H+  H296  1  0.27906509  0.15726802  0.83847695  1
  H+  H297  1  0.11682699  0.62918098  0.33383964  1
  H+  H298  1  0.10523572  0.72353243  0.15712580  1
  H+  H299  1  0.50284572  0.65044760  0.69159431  1
  H+  H300  1  0.38380148  0.27749392  0.48859405  1
  H+  H301  1  0.66403596  0.33835459  0.26796652  1
  H+  H302  1  0.32200996  0.65821336  0.09036403  1
  H+  H303  1  0.05349613  0.13703670  0.47917775  1
  H+  H304  1  0.66393753  0.10395113  0.57040227  1
  H+  H305  1  0.47599037  0.36876422  0.34926945  1
  H+  H306  1  0.42117290  0.82645273  0.94274991  1
  H+  H307  1  0.68229759  0.83247300  0.23092795  1
  H+  H308  1  0.82303100  0.16832320  0.73662327  1
  H+  H309  1  0.58929350  0.91249325  0.07022556  1
  H+  H310  1  0.91006345  0.08491633  0.61156322  1
  H+  H311  1  0.85543531  0.22222031  0.82698852  1
  H+  H312  1  0.41168451  0.58066175  0.93281129  1
  H+  H313  1  0.32540003  0.91646990  0.06158594  1
  H+  H314  1  0.84335085  0.92356170  0.74254390  1
  H+  H315  1  0.83115493  0.67164462  0.77019705  1
  H+  H316  1  0.57172089  0.41114761  0.06436001  1
  H+  H317  1  0.07447288  0.66178923  0.06673798  1
  H+  H318  1  0.16505977  0.33318099  0.89114566  1
  H+  H319  1  0.41254369  0.06959610  0.25622444  1
  H+  H320  1  0.34238573  0.90303169  0.42254605  1
  H+  H321  1  0.96735305  0.85350666  0.65343659  1
  H+  H322  1  0.07212770  0.66100932  0.71920592  1
  H+  H323  1  0.52651558  0.39092755  0.48646876  1
  H+  H324  1  0.12632883  0.39522747  0.67667268  1
  H+  H325  1  0.40539428  0.31295756  0.92811554  1
  H+  H326  1  0.96619845  0.87428028  0.83595897  1
  H+  H327  1  0.91961570  0.33346396  0.26421125  1
  H+  H328  1  0.35350126  0.67101097  0.42157662  1
  H+  H329  1  0.90601630  0.58052814  0.58787218  1
  H+  H330  1  0.90316016  0.83307950  0.93559900  1
  H+  H331  1  0.07520892  0.65962219  0.43150166  1
  H+  H332  1  0.12846051  0.38792797  0.15236009  1
  H+  H333  1  0.66268294  0.32301049  0.91617639  1
  H+  H334  1  0.09357538  0.17196617  0.76670277  1
  H+  H335  1  0.88665343  0.60785516  0.33720555  1
  H+  H336  1  0.87429672  0.36125548  0.83752074  1
  H+  H337  1  0.59977733  0.67469581  0.41193253  1
  H+  H338  1  0.37345558  0.34662313  0.16637822  1
  H+  H339  1  0.90197333  0.57575165  0.23589146  1
  H+  H340  1  0.65728916  0.81932953  0.57735574  1
  H+  H341  1  0.42722902  0.11108039  0.61606302  1
  H+  H342  1  0.84076596  0.17177039  0.10252540  1
  H+  H343  1  0.92973887  0.09822871  0.26529664  1
  H+  H344  1  0.66483989  0.83636731  0.92299453  1
  H+  H345  1  0.89921101  0.25757123  0.65592513  1
  H+  H346  1  0.13750008  0.51462756  0.16952825  1
  H+  H347  1  0.64043281  0.57856006  0.61513806  1
  H+  H348  1  0.59625511  0.42734729  0.39905434  1
  H+  H349  1  0.57624903  0.89702518  0.75804902  1
  H+  H350  1  0.33632838  0.92805391  0.76747438  1
  H+  H351  1  0.59534508  0.66679209  0.09428460  1
  H+  H352  1  0.82995246  0.41217571  0.10534777  1
  H+  H353  1  0.32649395  0.43643875  0.76341386  1
  H+  H354  1  0.01979158  0.38225566  0.32828215  1
  H+  H355  1  0.17087894  0.09085646  0.90131744  1
  H+  H356  1  0.42230421  0.08938570  0.93564683  1
  H+  H357  1  0.41859080  0.82623044  0.25367750  1
  H+  H358  1  0.14017019  1.03352732  0.33034097  1
  H+  H359  1  0.08422442  0.93124458  0.44205817  1
  H+  H360  1  0.85569294  0.94585072  0.43397011  1
  H+  H361  1  0.07301339  0.92149696  0.06540887  1
  H+  H362  1  0.58858198  0.67186013  0.77771679  1
  H+  H363  1  0.66467547  0.57255168  0.93592791  1
  H+  H364  1  0.09919271  0.17984468  0.38881063  1
  H+  H365  1  0.82687370  0.16601601  0.39628415  1
  H+  H366  1  0.07600888  0.41633274  0.76829195  1
  H+  H367  1  0.32294413  0.42931949  0.45295917  1
  H+  H368  1  0.90751372  0.04091626  0.17523636  1
  H+  H369  1  0.16844596  0.33691998  0.60020390  1
  H+  H370  1  0.17221242  0.57931827  0.26268140  1
  H+  H371  1  0.41442258  0.58366943  0.20392861  1
  H+  H372  1  0.32938394  0.17091215  0.74794172  1
  H+  H373  1  0.11009233  0.46596262  0.49707135  1
  H+  H374  1  0.52369832  0.63784119  0.50094945  1
  H+  H375  1  0.66223471  0.33825750  0.59961600  1
  H+  H376  1  0.33274056  0.91354314  0.71537600  1
  H+  H377  1  0.39022574  0.33631912  0.59907987  1
  H+  H378  1  0.17609720  0.08170428  0.23233027  1
  H+  H379  1  0.08102590  0.40804526  0.06377159  1
  H+  H380  1  0.52249187  0.88023626  0.01399471  1
  H+  H381  1  0.77372874  0.13957015  0.33476758  1
  H+  H382  1  0.86024743  0.38015505  0.33887899  1
  H+  H383  1  0.15406555  0.81029524  0.25284165  1
  O2-  O384  1  0.11368801  0.18879015  0.15432865  1
  O2-  O385  1  0.11400879  0.17668002  0.47123988  1
  O2-  O386  1  0.08768580  0.16942545  0.81176097  1
  O2-  O387  1  0.09259499  0.41339050  0.14105954  1
  O2-  O388  1  0.08487118  0.40434830  0.48445976  1
  O2-  O389  1  0.06886596  0.41212192  0.81356160  1
  O2-  O390  1  0.08006100  0.66090044  0.17518398  1
  O2-  O391  1  0.06816221  0.65834353  0.47611276  1
  O2-  O392  1  0.11691706  0.68810159  0.80118565  1
  O2-  O393  1  0.07874068  0.91681680  0.14190159  1
  O2-  O394  1  0.08627597  0.92517355  0.48755361  1
  O2-  O395  1  0.07536044  0.92933785  0.80935558  1
  O2-  O396  1  0.34359198  0.15899109  0.14864508  1
  O2-  O397  1  0.33498328  0.17089960  0.47952484  1
  O2-  O398  1  0.34086298  0.18758064  0.82096994  1
  O2-  O399  1  0.30281308  0.39298292  0.13850316  1
  O2-  O400  1  0.33056103  0.42951060  0.49799224  1
  O2-  O401  1  0.32512727  0.43001683  0.80825870  1
  O2-  O402  1  0.32654198  0.65919008  0.13626510  1
  O2-  O403  1  0.35331341  0.67474042  0.46762191  1
  O2-  O404  1  0.31544259  0.66260924  0.81243037  1
  O2-  O405  1  0.31197900  0.91065073  0.13789480  1
  O2-  O406  1  0.32247474  0.88530087  0.46590036  1
  O2-  O407  1  0.33759574  0.93383375  0.81622885  1
  O2-  O408  1  0.58072834  0.18760012  0.15517325  1
  O2-  O409  1  0.58199965  0.17560478  0.47667104  1
  O2-  O410  1  0.58709615  0.16424029  0.81770303  1
  O2-  O411  1  0.57454569  0.42150264  0.15064008  1
  O2-  O412  1  0.58992330  0.42191078  0.47904404  1
  O2-  O413  1  0.58931742  0.41122527  0.80285467  1
  O2-  O414  1  0.58925787  0.66362732  0.13966764  1
  O2-  O415  1  0.58415003  0.66473554  0.48745861  1
  O2-  O416  1  0.61345743  0.68007285  0.82005382  1
  O2-  O417  1  0.60540727  0.92200804  0.15120086  1
  O2-  O418  1  0.60175214  0.90659962  0.47369720  1
  O2-  O419  1  0.56724903  0.85780353  0.79203449  1
  O2-  O420  1  0.84456703  0.17563697  0.14779388  1
  O2-  O421  1  0.80967216  0.16131994  0.47989908  1
  O2-  O422  1  0.82905727  0.16330096  0.80957076  1
  O2-  O423  1  0.83072928  0.41100771  0.15072456  1
  O2-  O424  1  0.82839517  0.41059805  0.47923623  1
  O2-  O425  1  0.81987097  0.42225760  0.81063075  1
  O2-  O426  1  0.83664638  0.68320677  0.14926067  1
  O2-  O427  1  0.83340397  0.66594645  0.43383483  1
  O2-  O428  1  0.83816302  0.67416225  0.81649611  1
  O2-  O429  1  0.85868367  0.94341695  0.15300346  1
  O2-  O430  1  0.86077879  0.95153718  0.47916365  1
  O2-  O431  1  0.84659452  0.93235171  0.78895901  1
  O2-  O432  1  0.17542578  0.08081468  0.18698094  1
  O2-  O433  1  0.17822052  0.08608756  0.53180704  1
  O2-  O434  1  0.17769510  0.09685246  0.85558240  1
  O2-  O435  1  0.21581241  0.36062394  0.16432284  1
  O2-  O436  1  0.16043277  0.32518551  0.52493825  1
  O2-  O437  1  0.15994889  0.33543216  0.84613778  1
  O2-  O438  1  0.16827103  0.57490223  0.18606212  1
  O2-  O439  1  0.15622898  0.57051582  0.51748381  1
  O2-  O440  1  0.15030487  0.57826663  0.85614018  1
  O2-  O441  1  0.13944748  0.80771014  0.12851299  1
  O2-  O442  1  0.15293460  0.82457962  0.51549030  1
  O2-  O443  1  0.13879930  0.82946482  0.86076802  1
  O2-  O444  1  0.40899332  0.05946736  0.19345147  1
  O2-  O445  1  0.43745823  0.12027476  0.53804746  1
  O2-  O446  1  0.42846976  0.10625973  0.86499853  1
  O2-  O447  1  0.41384348  0.32861166  0.18079860  1
  O2-  O448  1  0.41564240  0.34176248  0.48329871  1
  O2-  O449  1  0.37930219  0.27787485  0.84297658  1
  O2-  O450  1  0.41136074  0.57596208  0.15972061  1
  O2-  O451  1  0.41073728  0.59499538  0.53162702  1
  O2-  O452  1  0.39333216  0.57994611  0.85242950  1
  O2-  O453  1  0.39790354  0.81985428  0.17450640  1
  O2-  O454  1  0.42203959  0.82308860  0.51003350  1
  O2-  O455  1  0.41833709  0.81846271  0.86106440  1
  O2-  O456  1  0.67737862  0.09938113  0.18494785  1
  O2-  O457  1  0.66301277  0.10336068  0.52359127  1
  O2-  O458  1  0.67193086  0.07698156  0.85295031  1
  O2-  O459  1  0.66328395  0.34893066  0.19038403  1
  O2-  O460  1  0.66504100  0.33341764  0.52041071  1
  O2-  O461  1  0.65884548  0.32396686  0.87035890  1
  O2-  O462  1  0.64329613  0.56615429  0.19251321  1
  O2-  O463  1  0.65216242  0.57884996  0.53605513  1
  O2-  O464  1  0.67207542  0.57381263  0.85641121  1
  O2-  O465  1  0.67961205  0.83475147  0.18559242  1
  O2-  O466  1  0.66159657  0.81478431  0.53317514  1
  O2-  O467  1  0.67752702  0.84515452  0.86535579  1
  O2-  O468  1  0.93546420  0.10282101  0.19069112  1
  O2-  O469  1  0.89094263  0.08621914  0.53502439  1
  O2-  O470  1  0.91454367  0.07668899  0.83266427  1
  O2-  O471  1  0.92946654  0.33884231  0.18739825  1
  O2-  O472  1  0.90576860  0.32106793  0.51472595  1
  O2-  O473  1  0.90302156  0.33064027  0.85391799  1
  O2-  O474  1  0.90243166  0.57578309  0.19068535  1
  O2-  O475  1  0.90405483  0.58234281  0.50955240  1
  O2-  O476  1  0.90771869  0.58523516  0.85725003  1
  O2-  O477  1  0.92291800  0.84177826  0.19209146  1
  O2-  O478  1  0.91657908  0.83656376  0.51546343  1
  O2-  O479  1  0.90438502  0.84455997  0.84728074  1
  O2-  O480  1  0.17509111  0.09131979  0.31117547  1
  O2-  O481  1  0.18120396  0.08501364  0.65388732  1
  O2-  O482  1  0.16378849  0.08272611  0.97742009  1
  O2-  O483  1  0.16443205  0.34300075  0.31528515  1
  O2-  O484  1  0.17545424  0.34361353  0.64581010  1
  O2-  O485  1  0.18301845  0.30668580  0.96339203  1
  O2-  O486  1  0.16994118  0.58014512  0.30854223  1
  O2-  O487  1  0.17983498  0.58734172  0.64716535  1
  O2-  O488  1  0.15856622  0.57837437  0.97855302  1
  O2-  O489  1  0.19481478  0.87096949  0.37216792  1
  O2-  O490  1  0.15775552  0.82979724  0.63936681  1
  O2-  O491  1  0.15496253  0.82545507  0.98629706  1
  O2-  O492  1  0.41879237  0.07675482  0.30606908  1
  O2-  O493  1  0.41957659  0.09768128  0.66057930  1
  O2-  O494  1  0.42223607  0.08339118  0.98187455  1
  O2-  O495  1  0.41373517  0.33885502  0.35985802  1
  O2-  O496  1  0.39697745  0.35096709  0.64224574  1
  O2-  O497  1  0.40984966  0.32338358  0.97250688  1
  O2-  O498  1  0.37903792  0.54287445  0.28845740  1
  O2-  O499  1  0.39327175  0.62586887  0.65800431  1
  O2-  O500  1  0.41654510  0.58253940  0.97794647  1
  O2-  O501  1  0.42649733  0.82591871  0.29853282  1
  O2-  O502  1  0.41726529  0.82898288  0.63244541  1
  O2-  O503  1  0.41759684  0.82888207  0.98768785  1
  O2-  O504  1  0.66917308  0.08753552  0.30807983  1
  O2-  O505  1  0.66415804  0.09942520  0.64177077  1
  O2-  O506  1  0.66001699  0.07881744  0.98367970  1
  O2-  O507  1  0.66159241  0.33282732  0.31350046  1
  O2-  O508  1  0.65949949  0.34062031  0.64506000  1
  O2-  O509  1  0.65984871  0.31966129  0.99181199  1
  O2-  O510  1  0.68014554  0.58897373  0.31365356  1
  O2-  O511  1  0.63931017  0.57511474  0.66031958  1
  O2-  O512  1  0.66017439  0.57389681  0.98109763  1
  O2-  O513  1  0.68827236  0.84199995  0.30996367  1
  O2-  O514  1  0.66568107  0.82189461  0.66708378  1
  O2-  O515  1  0.65849670  0.82835801  0.97482736  1
  O2-  O516  1  0.92866648  0.09614275  0.31144613  1
  O2-  O517  1  0.92363283  0.09428695  0.65623856  1
  O2-  O518  1  0.87951360  0.05277657  0.98317270  1
  O2-  O519  1  0.92060832  0.33503667  0.31006601  1
  O2-  O520  1  0.94802778  0.30118120  0.63020840  1
  O2-  O521  1  0.90528417  0.32812593  0.97839266  1
  O2-  O522  1  0.90937071  0.57332622  0.31766703  1
  O2-  O523  1  0.91142122  0.58274455  0.63329186  1
  O2-  O524  1  0.90548184  0.57640924  0.98387162  1
  O2-  O525  1  0.92599631  0.84260625  0.32062388  1
  O2-  O526  1  0.90861826  0.81981169  0.63679045  1
  O2-  O527  1  0.90329747  0.82216685  0.97939411  1
  O2-  O528  1  0.07805232  0.15514248  0.03790953  1
  O2-  O529  1  0.09330210  0.17981731  0.34403332  1
  O2-  O530  1  0.09934564  0.17748313  0.68651720  1
  O2-  O531  1  0.07672890  0.40950936  0.01820058  1
  O2-  O532  1  0.08302472  0.41293408  0.34093368  1
  O2-  O533  1  0.09347902  0.42365759  0.69058769  1
  O2-  O534  1  0.07620602  0.66089869  0.02241017  1
  O2-  O535  1  0.08363178  0.65753045  0.34832589  1
  O2-  O536  1  0.07400705  0.66073171  0.67436760  1
  O2-  O537  1  0.07467815  0.92034337  0.01972161  1
  O2-  O538  1  0.08495877  0.93476773  0.36615350  1
  O2-  O539  1  0.08207960  0.92191843  0.68462588  1
  O2-  O540  1  0.32963517  0.15852825  0.02332824  1
  O2-  O541  1  0.33858893  0.16592752  0.35308928  1
  O2-  O542  1  0.32678050  0.16124678  0.70177710  1
  O2-  O543  1  0.33366936  0.41306909  0.01479497  1
  O2-  O544  1  0.31526762  0.40831796  0.37574123  1
  O2-  O545  1  0.33279024  0.45902699  0.68339243  1
  O2-  O546  1  0.32601413  0.65890419  0.01623462  1
  O2-  O547  1  0.34264539  0.66659855  0.34710871  1
  O2-  O548  1  0.34535523  0.66629301  0.68351874  1
  O2-  O549  1  0.32809873  0.91519662  0.01587262  1
  O2-  O550  1  0.40198435  0.94436370  0.35987170  1
  O2-  O551  1  0.33658778  0.92157184  0.67047171  1
  O2-  O552  1  0.57826408  0.15406206  0.01462166  1
  O2-  O553  1  0.57928260  0.16609019  0.35387834  1
  O2-  O554  1  0.58284520  0.17847962  0.69310552  1
  O2-  O555  1  0.57586377  0.40745199  0.01967800  1
  O2-  O556  1  0.59067790  0.42609324  0.35382127  1
  O2-  O557  1  0.56236285  0.40847309  0.68363977  1
  O2-  O558  1  0.58767135  0.66766199  0.01476181  1
  O2-  O559  1  0.60710490  0.67791043  0.36618841  1
  O2-  O560  1  0.56082069  0.66294403  0.70406897  1
  O2-  O561  1  0.58498423  0.91072177  0.02507929  1
  O2-  O562  1  0.59830966  0.91932732  0.34301287  1
  O2-  O563  1  0.58225397  0.93063339  0.67140776  1
  O2-  O564  1  0.82264090  0.16551989  0.02374628  1
  O2-  O565  1  0.83364959  0.16970674  0.35153267  1
  O2-  O566  1  0.82324240  0.16689925  0.69017142  1
  O2-  O567  1  0.82457528  0.41053342  0.02522145  1
  O2-  O568  1  0.82720725  0.40635380  0.35609135  1
  O2-  O569  1  0.80110870  0.46980394  0.69504460  1
  O2-  O570  1  0.82031411  0.66358109  0.02271558  1
  O2-  O571  1  0.84361059  0.66997529  0.36619047  1
  O2-  O572  1  0.81647149  0.66589263  0.69898866  1
  O2-  O573  1  0.84199593  0.97722820  0.00200696  1
  O2-  O574  1  0.85111737  0.93310197  0.35582006  1
  O2-  O575  1  0.82612926  0.89750122  0.67412151  1
