# generated using pymatgen
data_H2O
_symmetry_space_group_name_H-M   'P 1'
_cell_length_a   17.99561555
_cell_length_b   18.00105192
_cell_length_c   22.00724279
_cell_angle_alpha   89.99297766
_cell_angle_beta   90.01957405
_cell_angle_gamma   119.99069821
_symmetry_Int_Tables_number   1
_chemical_formula_structural   H2O
_chemical_formula_sum   'H384 O192'
_cell_volume   6174.49624237
_cell_formula_units_Z   192
loop_
 _symmetry_equiv_pos_site_id
 _symmetry_equiv_pos_as_xyz
  1  'x, y, z'
loop_
 _atom_type_symbol
 _atom_type_oxidation_number
  H+  1.0
  O2-  -2.0
loop_
 _atom_site_type_symbol
 _atom_site_label
 _atom_site_symmetry_multiplicity
 _atom_site_fract_x
 _atom_site_fract_y
 _atom_site_fract_z
 _atom_site_occupancy
  H+  H0  1  0.91607504  0.34321056  0.56049532  1
  H+  H1  1  0.14654797  0.03579675  0.30583009  1
  H+  H2  1  0.77605997  0.65032742  0.48305990  1
  H+  H3  1  0.53578186  0.66229762  1.01278996  1
  H+  H4  1  0.62055384  0.34352306  0.32062063  1
  H+  H5  1  0.24622586  0.61942053  0.33617058  1
  H+  H6  1  0.97817124  0.11493236  0.31625057  1
  H+  H7  1  0.97733812  0.36565377  0.32036052  1
  H+  H8  1  0.31295478  0.09384137  0.01946064  1
  H+  H9  1  0.34947990  0.63012767  0.17355493  1
  H+  H10  1  0.72491259  0.54980192  0.85992407  1
  H+  H11  1  0.68076635  0.59580603  0.23670128  1
  H+  H12  1  0.13627647  0.88878901  0.81843770  1
  H+  H13  1  0.38363852  0.76872128  0.18098954  1
  H+  H14  1  0.77150758  0.88423208  0.50812919  1
  H+  H15  1  0.97826043  0.61318970  0.47700043  1
  H+  H16  1  0.46806166  0.60977706  0.17997206  1
  H+  H17  1  0.38701747  0.52527747  0.51009312  1
  H+  H18  1  0.35709086  0.64536343  0.83538928  1
  H+  H19  1  0.86959776  0.23103521  0.48783249  1
  H+  H20  1  0.11256974  0.38708457  0.33726694  1
  H+  H21  1  0.87100382  0.73655336  0.00295552  1
  H+  H22  1  0.89813246  0.11924983  -0.00432739  1
  H+  H23  1  0.26736905  0.38951431  0.49821573  1
  H+  H24  1  0.88144572  0.87276007  0.17246710  1
  H+  H25  1  0.55627115  0.58282618  0.36593136  1
  H+  H26  1  0.07086097  0.79414676  0.54593532  1
  H+  H27  1  0.71833931  0.35183777  0.16963844  1
  H+  H28  1  0.64644701  0.65491626  0.30985648  1
  H+  H29  1  0.36072387  0.74471176  0.50517048  1
  H+  H30  1  0.39990004  0.53584672  0.87679670  1
  H+  H31  1  0.10972947  0.72338275  -0.00738829  1
  H+  H32  1  0.13259523  -0.01655368  0.82192014  1
  H+  H33  1  0.54968484  0.84791939  0.00095122  1
  H+  H34  1  0.36447339  0.85024415  0.51006735  1
  H+  H35  1  0.42027584  0.31378969  1.00358892  1
  H+  H36  1  0.16819155  0.38010981  -0.00664338  1
  H+  H37  1  0.63787324  0.54012776  0.99842822  1
  H+  H38  1  0.22792906  0.85469479  0.98355842  1
  H+  H39  1  0.12388275  1.02343849  0.21023736  1
  H+  H40  1  0.15395012  0.85895575  0.58004127  1
  H+  H41  1  0.66037011  0.13012666  0.30047510  1
  H+  H42  1  0.38902445  0.42075353  0.01978528  1
  H+  H43  1  0.25942906  0.87134178  0.16906985  1
  H+  H44  1  0.88504401  0.36377464  0.49772648  1
  H+  H45  1  0.11366967  0.13240875  0.81837320  1
  H+  H46  1  0.65474182  0.04724167  0.65398103  1
  H+  H47  1  -0.01561489  0.63403759  0.66024424  1
  H+  H48  1  0.40733131  0.30223983  0.22210506  1
  H+  H49  1  1.02242229  0.39258882  0.49059130  1
  H+  H50  1  0.29398832  0.40712452  0.01424384  1
  H+  H51  1  0.63288246  0.74387181  0.01437988  1
  H+  H52  1  0.71421483  0.53153284  0.22220920  1
  H+  H53  1  0.39042596  0.09788611  0.66508709  1
  H+  H54  1  0.60496814  0.46537502  0.82349449  1
  H+  H55  1  0.37243227  0.37748739  0.66580779  1
  H+  H56  1  0.39362483  0.61678431  0.51125333  1
  H+  H57  1  0.74248636  0.66910847  0.30884343  1
  H+  H58  1  0.37066744  0.96640320  0.69400844  1
  H+  H59  1  0.61328898  0.12666569  -0.00268450  1
  H+  H60  1  0.57226049  0.90753206  0.61368974  1
  H+  H61  1  0.90500294  0.15508077  0.65878154  1
  H+  H62  1  0.88410844  0.61712896  0.99198262  1
  H+  H63  1  -0.00567505  0.86181176  -0.00531131  1
  H+  H64  1  0.85369967  0.37494397  0.32816095  1
  H+  H65  1  0.22690727  0.36848876  0.32871039  1
  H+  H66  1  0.12031679  0.51194955  0.16819292  1
  H+  H67  1  0.37338507  0.86377780  0.81191528  1
  H+  H68  1  -0.00803186  0.13307501  0.00651845  1
  H+  H69  1  0.68130246  0.59994433  0.58749537  1
  H+  H70  1  0.60792363  0.37735755  0.66751365  1
  H+  H71  1  0.47569154  0.60149832  0.66299655  1
  H+  H72  1  0.61450335  0.88512843  0.52717287  1
  H+  H73  1  0.36442942  0.23480823  0.82651151  1
  H+  H74  1  0.14578853  0.86191573  0.97646818  1
  H+  H75  1  0.39863618  0.13517226  0.83144857  1
  H+  H76  1  0.38992290  0.28259577  0.49812099  1
  H+  H77  1  0.27004188  0.88458915  0.48956778  1
  H+  H78  1  0.14412417  0.75014236  0.33824574  1
  H+  H79  1  0.85846096  0.38695238  0.15458096  1
  H+  H80  1  0.51472184  0.37948057  0.82693457  1
  H+  H81  1  0.73076628  0.13964658  0.49768512  1
  H+  H82  1  0.09009237  0.02541804  0.97792041  1
  H+  H83  1  0.87047245  0.64959168  0.67534638  1
  H+  H84  1  0.70861747  0.83381167  0.20001613  1
  H+  H85  1  -0.01237831  0.65884671  0.47939808  1
  H+  H86  1  0.22635085  0.62351293  1.00131431  1
  H+  H87  1  0.55836979  0.63591736  0.82403641  1
  H+  H88  1  0.77429380  0.39152515  0.82543836  1
  H+  H89  1  0.73869798  0.63095944  0.64874688  1
  H+  H90  1  0.01131268  0.89088998  0.17868779  1
  H+  H91  1  0.63038042  0.34765688  0.99181482  1
  H+  H92  1  1.04471522  0.15370163  0.66648582  1
  H+  H93  1  0.34257186  0.46569112  0.80268242  1
  H+  H94  1  0.63213258  0.35869793  0.83731625  1
  H+  H95  1  0.79042589  0.89011880  0.82542986  1
  H+  H96  1  0.15534369  0.74824386  0.50450490  1
  H+  H97  1  0.66725833  0.77417389  0.84065348  1
  H+  H98  1  0.13846527  0.64411118  0.34924085  1
  H+  H99  1  0.12046369  0.15423461  1.01042658  1
  H+  H100  1  0.52345926  0.39889723  0.48244334  1
  H+  H101  1  0.90718950  0.88550369  0.84523820  1
  H+  H102  1  0.60240169  0.87514354  0.15351457  1
  H+  H103  1  0.16620565  0.29141661  1.00308594  1
  H+  H104  1  0.77724648  0.65216753  0.00163360  1
  H+  H105  1  0.27409692  0.63230601  0.49551994  1
  H+  H106  1  0.78215127  0.13834843  0.33074708  1
  H+  H107  1  0.59967777  0.23806663  0.49086872  1
  H+  H108  1  0.12354231  0.14847513  0.17834243  1
  H+  H109  1  0.76421948  0.87782436  0.99691725  1
  H+  H110  1  0.87291942  0.89363753  0.50269035  1
  H+  H111  1  0.64259637  0.27846822  0.65064195  1
  H+  H112  1  0.85475926  0.22290309  -0.00250082  1
  H+  H113  1  0.37417623  0.76978756  0.83013934  1
  H+  H114  1  0.38440301  0.36832535  0.83677656  1
  H+  H115  1  0.87785085  0.78111243  0.17155254  1
  H+  H116  1  0.16988570  0.08918090  0.58596367  1
  H+  H117  1  0.77762018  0.15049655  0.81812640  1
  H+  H118  1  0.61164414  0.75313361  0.33835564  1
  H+  H119  1  0.23298856  0.85567475  0.32841461  1
  H+  H120  1  0.86424149  0.98545117  0.50654014  1
  H+  H121  1  0.41417811  0.58674938  0.24377486  1
  H+  H122  1  0.86479072  0.48759932  0.67814420  1
  H+  H123  1  0.87750472  0.65705985  0.82440266  1
  H+  H124  1  0.48192288  0.61600038  0.33427884  1
  H+  H125  1  0.88270057  0.53000002  0.83629101  1
  H+  H126  1  0.36048091  0.49289343  0.17207579  1
  H+  H127  1  0.85302301  0.47724926  0.00277924  1
  H+  H128  1  0.17935314  0.97723442  0.04568920  1
  H+  H129  1  0.06202737  0.90725438  0.32498120  1
  H+  H130  1  0.15849344  0.98942685  0.65889268  1
  H+  H131  1  0.61687615  0.62524511  0.66080510  1
  H+  H132  1  0.86516261  0.65228397  0.48423892  1
  H+  H133  1  0.72935186  0.36955474  0.65449768  1
  H+  H134  1  0.72179082  0.35497450  0.99032497  1
  H+  H135  1  0.93818141  0.84888830  0.93312340  1
  H+  H136  1  0.41489717  0.83207589  0.27131259  1
  H+  H137  1  0.82388472  0.41623210  0.06230979  1
  H+  H138  1  0.47848810  0.86980842  0.32899272  1
  H+  H139  1  0.36259749  0.14061004  0.50087434  1
  H+  H140  1  0.26425024  0.39501142  0.16576124  1
  H+  H141  1  0.31040250  0.88405994  0.07414762  1
  H+  H142  1  0.78004882  0.54349038  0.55786003  1
  H+  H143  1  0.58240358  0.10075166  0.36737428  1
  H+  H144  1  0.48280622  0.09829904  0.97649300  1
  H+  H145  1  0.26137138  0.63187631  0.17560802  1
  H+  H146  1  0.59686729  0.86164250  0.66232195  1
  H+  H147  1  0.68059874  0.46693128  0.03188257  1
  H+  H148  1  0.38578787  1.02329519  0.51000246  1
  H+  H149  1  0.71143289  0.83684283  0.66677422  1
  H+  H150  1  0.27647462  0.14594010  0.49334887  1
  H+  H151  1  0.96861409  0.61320971  0.16180407  1
  H+  H152  1  0.88441317  0.27508746  0.16417660  1
  H+  H153  1  0.89217163  0.37480292  0.83021428  1
  H+  H154  1  0.64148824  0.53288569  0.49093720  1
  H+  H155  1  0.02711654  0.90619181  0.48134809  1
  H+  H156  1  0.88342829  0.11497400  0.50390872  1
  H+  H157  1  0.60972404  0.21396977  -0.00249461  1
  H+  H158  1  0.87302018  0.36401560  -0.01183162  1
  H+  H159  1  0.86873056  0.22862513  0.33292206  1
  H+  H160  1  0.22860180  0.34937587  0.83387540  1
  H+  H161  1  0.64752043  0.13181250  0.65888534  1
  H+  H162  1  0.11908066  0.22362498  0.82313121  1
  H+  H163  1  0.86342419  0.39875793  0.67090213  1
  H+  H164  1  0.37157896  0.25230815  0.32553013  1
  H+  H165  1  0.46629057  0.33325250  0.16383331  1
  H+  H166  1  0.35878070  0.96801412  0.34141135  1
  H+  H167  1  0.75997535  0.88469673  0.33828020  1
  H+  H168  1  0.26225615  0.11761292  0.17958675  1
  H+  H169  1  0.89243721  0.78982291  0.49796721  1
  H+  H170  1  0.11081037  0.46156130  0.67951142  1
  H+  H171  1  0.85154448  0.63454999  0.32919876  1
  H+  H172  1  0.13261291  0.61947999  0.84607439  1
  H+  H173  1  0.68225524  0.88738196  0.99107127  1
  H+  H174  1  0.64695607  0.77339555  0.50476026  1
  H+  H175  1  0.26878913  0.12541667  0.66776221  1
  H+  H176  1  0.37630123  0.64738887  0.34688921  1
  H+  H177  1  0.02297461  0.14193593  0.48512677  1
  H+  H178  1  0.75979483  0.36732806  0.32964492  1
  H+  H179  1  0.64274258  0.62258143  0.49473960  1
  H+  H180  1  0.23298441  0.59231553  0.66600897  1
  H+  H181  1  0.12133130  0.77157747  0.17506043  1
  H+  H182  1  0.88960931  0.11779033  0.81932694  1
  H+  H183  1  0.60724712  0.37133511  0.16054791  1
  H+  H184  1  0.97794587  0.11657838  0.81969905  1
  H+  H185  1  0.77705108  0.13556947  0.15082359  1
  H+  H186  1  1.03807561  0.15281703  0.16556943  1
  H+  H187  1  0.63789069  0.62886747  0.99221613  1
  H+  H188  1  0.91276246  0.07548016  0.67615577  1
  H+  H189  1  0.06863862  0.39811098  -0.03156542  1
  H+  H190  1  0.37376383  0.84238995  0.67122747  1
  H+  H191  1  0.89374199  0.99682706  0.00459000  1
  H+  H192  1  0.01712919  0.64261521  0.82824864  1
  H+  H193  1  0.02267117  0.39268097  0.78168479  1
  H+  H194  1  0.38739835  0.81405702  0.57362948  1
  H+  H195  1  0.63670829  0.01484777  0.15960528  1
  H+  H196  1  0.97076987  0.61257788  0.99010564  1
  H+  H197  1  0.10891136  0.63518930  0.00192055  1
  H+  H198  1  0.89816486  0.78167781  0.64924794  1
  H+  H199  1  0.36072093  0.66044221  0.02233928  1
  H+  H200  1  0.34464994  0.96242411  0.02987516  1
  H+  H201  1  0.17159915  0.59484621  0.93730153  1
  H+  H202  1  0.77423754  0.63710788  0.15901059  1
  H+  H203  1  0.11490229  0.38673938  0.15286734  1
  H+  H204  1  0.13285237  0.36494462  0.50174409  1
  H+  H205  1  0.62369337  0.74742378  0.65924499  1
  H+  H206  1  0.60020969  0.88325243  0.34095059  1
  H+  H207  1  0.51114735  0.37100379  0.32805064  1
  H+  H208  1  0.91970998  0.33454753  0.25943461  1
  H+  H209  1  0.14139433  0.11167017  0.65005782  1
  H+  H210  1  0.35847679  0.39104776  0.49520418  1
  H+  H211  1  0.86810674  0.23890906  0.81924485  1
  H+  H212  1  0.36828390  0.46492865  0.66977691  1
  H+  H213  1  0.91570585  0.80269171  0.84398510  1
  H+  H214  1  0.14359941  0.27727114  0.65418840  1
  H+  H215  1  0.52962894  0.64201020  0.49506575  1
  H+  H216  1  0.52575133  0.89968508  0.80772496  1
  H+  H217  1  0.51596177  0.87866382  0.15744081  1
  H+  H218  1  0.43100087  0.00617507  0.94738701  1
  H+  H219  1  0.49721544  0.13520959  0.82725082  1
  H+  H220  1  0.46139106  0.84190471  0.65719755  1
  H+  H221  1  0.62280667  0.75483716  0.17633849  1
  H+  H222  1  0.86568653  0.51239885  0.31619754  1
  H+  H223  1  0.63598308  0.10363454  0.15920373  1
  H+  H224  1  0.46360330  0.09044385  0.13466694  1
  H+  H225  1  0.28007711  0.10880028  0.08389610  1
  H+  H226  1  0.63713116  0.01686462  0.98385807  1
  H+  H227  1  -0.02633734  0.36278621  0.16260993  1
  H+  H228  1  0.13592350  0.71094497  0.67051250  1
  H+  H229  1  0.13736631  0.77495863  0.82879981  1
  H+  H230  1  0.89129110  0.86428736  0.65112801  1
  H+  H231  1  0.11538886  0.14425651  0.32351662  1
  H+  H232  1  0.14175461  0.52110300  0.50296773  1
  H+  H233  1  0.85950443  0.47248743  0.46905379  1
  H+  H234  1  0.11893351  0.34954379  0.66092898  1
  H+  H235  1  0.22206077  0.62376903  0.84299305  1
  H+  H236  1  0.18769212  0.08453301  -0.00511407  1
  H+  H237  1  0.63885407  0.03687669  0.82569142  1
  H+  H238  1  0.38149214  0.53568194  0.33111283  1
  H+  H239  1  0.11786262  0.47789564  0.34014316  1
  H+  H240  1  0.52671374  0.88350517  0.51799962  1
  H+  H241  1  0.17178272  0.66879021  0.49940503  1
  H+  H242  1  0.87332571  0.98450615  0.81381610  1
  H+  H243  1  0.89574138  0.90558169  1.00465777  1
  H+  H244  1  0.13698467  0.88231485  0.07066527  1
  H+  H245  1  0.95754866  0.36324980  1.00177749  1
  H+  H246  1  0.79882170  0.67335099  0.82615586  1
  H+  H247  1  0.47933815  0.35111099  0.65373224  1
  H+  H248  1  0.62368347  0.25589030  0.32482754  1
  H+  H249  1  0.92538174  0.84440347  0.56099423  1
  H+  H250  1  0.61701663  0.23344738  0.82400565  1
  H+  H251  1  0.38902531  0.26451208  0.64445268  1
  H+  H252  1  0.38147553  0.85519830  0.17784859  1
  H+  H253  1  0.37734860  0.88127744  -0.02219671  1
  H+  H254  1  0.23173937  0.11192128  0.83811657  1
  H+  H255  1  0.84815697  0.96801968  0.32837113  1
  H+  H256  1  0.50644686  0.39828320  -0.00592614  1
  H+  H257  1  0.13991304  0.12840862  0.49608525  1
  H+  H258  1  0.92742082  0.10031137  0.22659191  1
  H+  H259  1  0.64254528  0.63141869  0.81937125  1
  H+  H260  1  0.52801428  0.13706621  0.66968371  1
  H+  H261  1  0.92490436  0.77742031  0.32223772  1
  H+  H262  1  0.23379570  0.89534582  0.67424657  1
  H+  H263  1  0.85432331  0.47421475  0.15405816  1
  H+  H264  1  0.27369347  0.88448245  0.79017846  1
  H+  H265  1  0.87186440  0.14677036  0.15278802  1
  H+  H266  1  0.36092736  0.13134442  0.34508595  1
  H+  H267  1  0.36936892  0.40497631  0.35276256  1
  H+  H268  1  0.47146340  0.10299536  0.33255461  1
  H+  H269  1  0.67686045  0.58113384  0.90436986  1
  H+  H270  1  0.83185718  0.94584737  0.67138077  1
  H+  H271  1  0.36384979  0.88102735  0.34163651  1
  H+  H272  1  0.39911611  0.55221741  1.01435491  1
  H+  H273  1  0.14223321  0.58630206  0.66339223  1
  H+  H274  1  0.12879953  0.49039399  -0.00319240  1
  H+  H275  1  0.61213842  -0.02448441  0.32772121  1
  H+  H276  1  0.11450673  0.90680384  0.48689170  1
  H+  H277  1  0.60205906  0.62198121  0.16210321  1
  H+  H278  1  0.10978778  0.23251486  0.48556695  1
  H+  H279  1  0.90745110  0.04751043  0.16424539  1
  H+  H280  1  0.13918363  1.03908884  0.49413427  1
  H+  H281  1  0.47309818  0.90059569  0.96986035  1
  H+  H282  1  0.35573273  0.70735032  0.67646079  1
  H+  H283  1  0.66851191  0.34297256  0.55725600  1
  H+  H284  1  0.14716033  0.28170693  0.17538156  1
  H+  H285  1  0.41789336  0.06767479  0.60636505  1
  H+  H286  1  0.78686322  0.16277459  0.66709347  1
  H+  H287  1  0.34028611  0.31161735  0.29460448  1
  H+  H288  1  0.42245576  0.34072780  0.55653826  1
  H+  H289  1  0.08646594  0.16897164  0.38701439  1
  H+  H290  1  0.81173172  0.47864238  0.55597224  1
  H+  H291  1  0.37340515  0.08790777  0.13989833  1
  H+  H292  1  0.16168315  0.07722304  0.89236445  1
  H+  H293  1  0.10472179  0.77430514  0.68563195  1
  H+  H294  1  0.36458135  0.62200033  0.67932713  1
  H+  H295  1  0.11455668  0.95861984  0.38292003  1
  H+  H296  1  0.56872096  0.16218355  0.41079558  1
  H+  H297  1  0.15589751  0.33156961  0.56246465  1
  H+  H298  1  0.63046158  0.80500479  0.27737413  1
  H+  H299  1  0.61272251  0.15617537  0.49518195  1
  H+  H300  1  0.72659816  0.10621671  0.98645838  1
  H+  H301  1  0.88195232  0.61636612  0.16255632  1
  H+  H302  1  0.08076385  0.41907494  0.43045839  1
  H+  H303  1  0.18300049  0.84108636  0.88287772  1
  H+  H304  1  0.67801755  0.08184257  0.24852997  1
  H+  H305  1  0.34985917  0.20128601  0.15854332  1
  H+  H306  1  0.34896264  0.95512676  0.14811119  1
  H+  H307  1  0.33268653  0.91132472  0.43358868  1
  H+  H308  1  0.59123602  0.64998792  0.72474893  1
  H+  H309  1  0.84332071  0.19198579  0.72831206  1
  H+  H310  1  0.60613745  0.45916839  0.16810365  1
  H+  H311  1  0.56242177  0.90327751  0.06011398  1
  H+  H312  1  0.92988086  0.34727677  0.88486512  1
  H+  H313  1  0.61149882  0.39771515  0.48298489  1
  H+  H314  1  0.89843340  0.57376934  0.25864280  1
  H+  H315  1  0.37283070  0.73617780  0.34715173  1
  H+  H316  1  0.57402523  0.40820487  0.38435484  1
  H+  H317  1  0.88658195  0.29360874  0.65570608  1
  H+  H318  1  0.58241928  0.66052247  0.10282822  1
  H+  H319  1  0.60548306  0.21136585  0.15269986  1
  H+  H320  1  0.57107362  0.39624023  0.72821957  1
  H+  H321  1  0.17754361  0.57065258  0.56667573  1
  H+  H322  1  0.83388171  0.67696596  0.38744419  1
  H+  H323  1  0.40507543  0.85508507  0.88412378  1
  H+  H324  1  0.69576098  0.83115945  0.90045774  1
  H+  H325  1  0.31750502  0.67471895  0.07916189  1
  H+  H326  1  0.27817071  0.06187339  0.70668478  1
  H+  H327  1  0.10026103  0.17042635  0.72645029  1
  H+  H328  1  0.07993944  0.67472497  0.09061037  1
  H+  H329  1  0.34039770  0.67512445  0.43591374  1
  H+  H330  1  0.58852225  0.17601150  0.72749497  1
  H+  H331  1  0.58084215  0.93080863  0.74839520  1
  H+  H332  1  0.83178201  0.42411737  0.76537379  1
  H+  H333  1  0.42768627  0.08945642  0.88813064  1
  H+  H334  1  0.13802112  0.69396875  0.41055747  1
  H+  H335  1  0.33537666  0.40162756  0.75025220  1
  H+  H336  1  0.82339659  0.40339268  0.41692291  1
  H+  H337  1  0.18819848  0.58954560  0.27600626  1
  H+  H338  1  0.07676376  0.67483836  0.76904178  1
  H+  H339  1  0.32749875  0.42544316  0.40876693  1
  H+  H340  1  0.66798646  0.08693388  0.88956374  1
  H+  H341  1  0.72159977  0.36585254  0.49390722  1
  H+  H342  1  0.33292602  0.16929258  0.76822486  1
  H+  H343  1  0.83005979  0.90336500  0.73599358  1
  H+  H344  1  0.57744940  0.66535379  0.43038569  1
  H+  H345  1  0.41225038  0.60871430  0.95656704  1
  H+  H346  1  0.41737081  0.34645886  0.89936756  1
  H+  H347  1  0.16329765  0.81836624  0.27063458  1
  H+  H348  1  0.13899325  0.27767279  0.32239349  1
  H+  H349  1  0.79009556  0.92858044  0.13986273  1
  H+  H350  1  0.47228649  0.11452760  0.51222508  1
  H+  H351  1  0.83930860  0.17024408  0.42885508  1
  H+  H352  1  0.94324837  0.83971886  0.26761046  1
  H+  H353  1  0.65647859  0.31542144  0.22828793  1
  H+  H354  1  0.67179795  0.81906850  0.57092044  1
  H+  H355  1  0.85794880  0.93890322  0.09040056  1
  H+  H356  1  0.10658920  0.64190074  0.14944772  1
  H+  H357  1  0.84328296  0.68929338  0.72916507  1
  H+  H358  1  0.82983563  0.67572621  0.09744471  1
  H+  H359  1  0.83113613  0.16713198  0.05810709  1
  H+  H360  1  0.18325354  0.32534281  0.89854545  1
  H+  H361  1  0.91108556  0.58704737  0.89714596  1
  H+  H362  1  0.89127451  0.11774027  0.31809269  1
  H+  H363  1  0.97291047  0.38083038  0.65932365  1
  H+  H364  1  0.33577606  0.66666702  0.76815796  1
  H+  H365  1  0.08790734  0.55222412  0.21695513  1
  H+  H366  1  0.41547490  0.57883386  0.60485846  1
  H+  H367  1  0.67724607  0.11626024  0.55878754  1
  H+  H368  1  0.12340009  0.86081860  0.18960685  1
  H+  H369  1  0.90708437  0.58699279  0.61075517  1
  H+  H370  1  0.08319132  0.93530378  0.12816069  1
  H+  H371  1  0.41512389  0.07911232  0.27222215  1
  H+  H372  1  0.10653637  0.18552817  0.07607787  1
  H+  H373  1  0.30527921  0.51317609  0.88933938  1
  H+  H374  1  0.17234241  0.34484362  0.23329471  1
  H+  H375  1  0.91945754  0.09638747  0.56545343  1
  H+  H376  1  0.61438362  0.14136286  0.82360271  1
  H+  H377  1  0.08773639  0.41458012  0.09106848  1
  H+  H378  1  0.60140752  0.42459893  0.07729088  1
  H+  H379  1  0.12621356  0.93505077  0.75574234  1
  H+  H380  1  0.58344063  0.15706670  0.09093795  1
  H+  H381  1  0.66478806  0.32922881  0.89592432  1
  H+  H382  1  0.33987172  0.16951870  0.40407570  1
  H+  H383  1  0.33674985  0.43500093  0.10597328  1
  O2-  O384  1  0.10130960  0.18098709  0.15526532  1
  O2-  O385  1  0.08198827  0.17272352  0.46832895  1
  O2-  O386  1  0.08887955  0.16613064  0.80177114  1
  O2-  O387  1  0.08394470  0.41539571  0.13583714  1
  O2-  O388  1  0.08331541  0.42260719  0.47587571  1
  O2-  O389  1  0.07934205  0.43106130  0.76269868  1
  O2-  O390  1  0.07817362  0.67399763  0.13631310  1
  O2-  O391  1  0.18078284  0.72191336  0.47893962  1
  O2-  O392  1  0.07838370  0.67308380  0.81387259  1
  O2-  O393  1  0.07604240  0.92429773  0.17202804  1
  O2-  O394  1  0.08830474  0.93769835  0.46781134  1
  O2-  O395  1  0.10992855  0.92457938  0.80039406  1
  O2-  O396  1  0.31037635  0.13731347  0.15022671  1
  O2-  O397  1  0.33875465  0.17437895  0.48195767  1
  O2-  O398  1  0.33874602  0.17340432  0.81353693  1
  O2-  O399  1  0.32856446  0.43199454  0.15214703  1
  O2-  O400  1  0.32832079  0.42303603  0.48308796  1
  O2-  O401  1  0.33103719  0.40700853  0.79852137  1
  O2-  O402  1  0.32025883  0.66203562  0.15990289  1
  O2-  O403  1  0.33640396  0.67336230  0.48272120  1
  O2-  O404  1  0.33707122  0.67993080  0.81332010  1
  O2-  O405  1  0.31614132  0.89019312  0.14953284  1
  O2-  O406  1  0.33102169  0.91137360  0.47964461  1
  O2-  O407  1  0.33506354  0.91261640  0.77651361  1
  O2-  O408  1  0.57921773  0.15189300  0.13620052  1
  O2-  O409  1  0.57103820  0.17577907  0.48023799  1
  O2-  O410  1  0.58357297  0.17238373  0.80831025  1
  O2-  O411  1  0.57864762  0.40393115  0.14517721  1
  O2-  O412  1  0.58328946  0.42864174  0.46576655  1
  O2-  O413  1  0.57497202  0.40452903  0.81147643  1
  O2-  O414  1  0.57298018  0.65240151  0.14798347  1
  O2-  O415  1  0.58762852  0.67327540  0.47628850  1
  O2-  O416  1  0.61472765  0.66349265  0.80494515  1
  O2-  O417  1  0.57356960  0.90532147  0.13665915  1
  O2-  O418  1  0.58087361  0.91213093  0.54029722  1
  O2-  O419  1  0.58309417  0.93992677  0.79242453  1
  O2-  O420  1  0.83731231  0.17223528  0.13633896  1
  O2-  O421  1  0.83808677  0.16992063  0.47433107  1
  O2-  O422  1  0.83708643  0.17967618  0.80170514  1
  O2-  O423  1  0.82385047  0.41294127  0.13993010  1
  O2-  O424  1  0.82705437  0.41037898  0.46319373  1
  O2-  O425  1  0.83472410  0.42583054  0.81102815  1
  O2-  O426  1  0.83268335  0.67611034  0.14276356  1
  O2-  O427  1  0.83837334  0.68492987  0.47038006  1
  O2-  O428  1  0.85638640  0.69581889  0.80900126  1
  O2-  O429  1  0.84922848  0.94121139  0.13613510  1
  O2-  O430  1  0.83554508  0.92192039  0.49453452  1
  O2-  O431  1  0.84822946  0.92062930  0.80481254  1
  O2-  O432  1  0.16089108  0.08675566  0.21813278  1
  O2-  O433  1  0.17065234  0.09854150  0.51157077  1
  O2-  O434  1  0.16948316  0.07410041  0.84763384  1
  O2-  O435  1  0.17369518  0.34453153  0.18724532  1
  O2-  O436  1  0.16151758  0.33313795  0.51647582  1
  O2-  O437  1  0.17210831  0.31946701  0.85451127  1
  O2-  O438  1  0.13744134  0.56713809  0.19088565  1
  O2-  O439  1  0.18008328  0.57942405  0.52186885  1
  O2-  O440  1  0.16654226  0.59545356  0.86408783  1
  O2-  O441  1  0.15385710  0.82784663  0.19663096  1
  O2-  O442  1  0.13235249  0.83217521  0.53965940  1
  O2-  O443  1  0.17732341  0.83837498  0.83742045  1
  O2-  O444  1  0.40123864  0.05528314  0.12588676  1
  O2-  O445  1  0.41281113  0.08044423  0.52962456  1
  O2-  O446  1  0.43160225  0.10418187  0.84245569  1
  O2-  O447  1  0.40587155  0.29881746  0.17707881  1
  O2-  O448  1  0.41913631  0.34411221  0.51126632  1
  O2-  O449  1  0.41381823  0.33820888  0.85487100  1
  O2-  O450  1  0.40884202  0.58189858  0.19691718  1
  O2-  O451  1  0.42180044  0.58539765  0.52631364  1
  O2-  O452  1  0.36278672  0.56089799  0.88033960  1
  O2-  O453  1  0.41758199  0.83065201  0.19223046  1
  O2-  O454  1  0.38870867  0.81426894  0.52749741  1
  O2-  O455  1  0.40085927  0.83662879  0.83868207  1
  O2-  O456  1  0.66945738  0.07577422  0.17330910  1
  O2-  O457  1  0.67347282  0.12326278  0.51459638  1
  O2-  O458  1  0.66811166  0.09545605  0.84474758  1
  O2-  O459  1  0.65695651  0.31845274  0.18268895  1
  O2-  O460  1  0.66368551  0.34482498  0.51187324  1
  O2-  O461  1  0.66638053  0.33148046  0.85050896  1
  O2-  O462  1  0.68329332  0.55649028  0.20218918  1
  O2-  O463  1  0.67575974  0.59324110  0.50669631  1
  O2-  O464  1  0.68613469  0.57309804  0.85999664  1
  O2-  O465  1  0.64867786  0.81529102  0.19136458  1
  O2-  O466  1  0.67939215  0.83070544  0.52583715  1
  O2-  O467  1  0.69442266  0.83343042  0.85574696  1
  O2-  O468  1  0.93408788  0.10700719  0.18041176  1
  O2-  O469  1  0.91334034  0.08471587  0.52105395  1
  O2-  O470  1  0.91595466  0.08261305  0.82951975  1
  O2-  O471  1  0.91466802  0.33582232  0.17950804  1
  O2-  O472  1  0.91761992  0.33768430  0.51532481  1
  O2-  O473  1  0.92537884  0.34540360  0.84020386  1
  O2-  O474  1  0.90766833  0.58069483  0.17503274  1
  O2-  O475  1  0.83124724  0.53935947  0.54944973  1
  O2-  O476  1  0.91247883  0.59074876  0.85170007  1
  O2-  O477  1  0.90869721  0.84053162  0.18814301  1
  O2-  O478  1  0.92401516  0.84961683  0.51441732  1
  O2-  O479  1  0.93855112  0.85869228  0.86461647  1
  O2-  O480  1  0.16657800  0.09750261  0.28502490  1
  O2-  O481  1  0.17096050  0.08218035  0.63141087  1
  O2-  O482  1  0.14033532  0.08084627  0.96866267  1
  O2-  O483  1  0.16926419  0.33972363  0.30898447  1
  O2-  O484  1  0.15240611  0.33153177  0.63598885  1
  O2-  O485  1  0.20088885  0.35028271  0.98436500  1
  O2-  O486  1  0.18504111  0.58782372  0.32055248  1
  O2-  O487  1  0.17404073  0.56038768  0.64656023  1
  O2-  O488  1  0.16682864  0.58829501  0.98327026  1
  O2-  O489  1  0.17106187  0.81690664  0.31600713  1
  O2-  O490  1  0.17637819  0.88580440  0.65999794  1
  O2-  O491  1  0.17300364  0.83042261  0.95987665  1
  O2-  O492  1  0.41112559  0.07224977  0.31621462  1
  O2-  O493  1  0.42109011  0.06759499  0.65209281  1
  O2-  O494  1  0.42746675  0.05859583  0.95463242  1
  O2-  O495  1  0.39278197  0.31037421  0.30313006  1
  O2-  O496  1  0.41977623  0.32491509  0.63329005  1
  O2-  O497  1  0.44475871  0.37011043  0.98431985  1
  O2-  O498  1  0.41686995  0.59484834  0.31519886  1
  O2-  O499  1  0.41389886  0.57536950  0.65028194  1
  O2-  O500  1  0.42727408  0.61309910  0.99999645  1
  O2-  O501  1  0.41497612  0.83383820  0.31678532  1
  O2-  O502  1  0.39718266  0.81081702  0.64878824  1
  O2-  O503  1  0.42382677  0.89725679  0.94690629  1
  O2-  O504  1  0.68014933  0.08920129  0.29417286  1
  O2-  O505  1  0.68360750  0.10786802  0.64246386  1
  O2-  O506  1  0.66620383  0.07681084  0.96969396  1
  O2-  O507  1  0.65286066  0.31355350  0.30646764  1
  O2-  O508  1  0.67172141  0.33836140  0.63455481  1
  O2-  O509  1  0.66131844  0.32056481  0.97405431  1
  O2-  O510  1  0.69376414  0.66161253  0.28255162  1
  O2-  O511  1  0.67942574  0.59799252  0.63251122  1
  O2-  O512  1  0.66592402  0.59590265  0.97696528  1
  O2-  O513  1  0.63464427  0.81163833  0.32187359  1
  O2-  O514  1  0.65408445  0.80984602  0.64658650  1
  O2-  O515  1  0.70099991  0.84551185  0.98523992  1
  O2-  O516  1  0.91946176  0.08814927  0.29851133  1
  O2-  O517  1  0.93420536  0.12144240  0.64623112  1
  O2-  O518  1  0.93498482  0.09359380  0.98894421  1
  O2-  O519  1  0.91715695  0.33302155  0.30477609  1
  O2-  O520  1  0.91538558  0.35425912  0.63952201  1
  O2-  O521  1  0.90714276  0.33639839  0.97536621  1
  O2-  O522  1  0.89132394  0.57280733  0.30319560  1
  O2-  O523  1  0.92205168  0.59477798  0.65451963  1
  O2-  O524  1  0.90952077  0.58260880  0.97622875  1
  O2-  O525  1  0.97134285  0.82912840  0.30209898  1
  O2-  O526  1  0.92523854  0.84095611  0.63214619  1
  O2-  O527  1  0.93601887  0.84206124  0.98031342  1
  O2-  O528  1  0.10422121  0.19296707  0.03121523  1
  O2-  O529  1  0.08609266  0.17378903  0.34185583  1
  O2-  O530  1  0.10327638  0.17077439  0.68066273  1
  O2-  O531  1  0.10078427  0.42548875  0.00542548  1
  O2-  O532  1  0.08126052  0.41666299  0.35185122  1
  O2-  O533  1  0.06671432  0.40571614  0.69801430  1
  O2-  O534  1  0.07775643  0.66680538  0.01319626  1
  O2-  O535  1  0.11638693  0.68035037  0.36722735  1
  O2-  O536  1  0.08812229  0.71299580  0.68964638  1
  O2-  O537  1  0.12542473  0.91967222  0.04496278  1
  O2-  O538  1  0.11917906  0.95699421  0.33842114  1
  O2-  O539  1  0.17397993  0.95773318  0.69087220  1
  O2-  O540  1  0.26090201  0.08192046  0.04126067  1
  O2-  O541  1  0.33711892  0.16725657  0.35884024  1
  O2-  O542  1  0.31200168  0.12340436  0.69594466  1
  O2-  O543  1  0.35251439  0.44403142  0.03447097  1
  O2-  O544  1  0.33021034  0.42626335  0.36257070  1
  O2-  O545  1  0.34303297  0.40549967  0.68567485  1
  O2-  O546  1  0.32085325  0.68051684  0.03428394  1
  O2-  O547  1  0.34434626  0.67610925  0.36460375  1
  O2-  O548  1  0.33017368  0.64898934  0.69519539  1
  O2-  O549  1  0.31521800  0.89947234  0.02942640  1
  O2-  O550  1  0.32979684  0.90810713  0.35763252  1
  O2-  O551  1  0.33028103  0.90533733  0.70769025  1
  O2-  O552  1  0.57876982  0.15315292  0.01164528  1
  O2-  O553  1  0.56879483  0.14689930  0.36538960  1
  O2-  O554  1  0.58923382  0.17498333  0.68231043  1
  O2-  O555  1  0.61785530  0.43775867  0.03179914  1
  O2-  O556  1  0.57149020  0.39588816  0.34012714  1
  O2-  O557  1  0.56788725  0.39549990  0.68349525  1
  O2-  O558  1  0.59596127  0.68239989  0.02670360  1
  O2-  O559  1  0.56051423  0.63831895  0.35876577  1
  O2-  O560  1  0.58004205  0.64754045  0.68061985  1
  O2-  O561  1  0.56043255  0.90417347  0.01412207  1
  O2-  O562  1  0.57515650  0.92088856  0.34869463  1
  O2-  O563  1  0.56779526  0.89674744  0.65937753  1
  O2-  O564  1  0.82785773  0.16299466  0.01261401  1
  O2-  O565  1  0.84021619  0.16887602  0.34945881  1
  O2-  O566  1  0.84737191  0.19632264  0.68228252  1
  O2-  O567  1  0.82163692  0.41594339  0.01655889  1
  O2-  O568  1  0.82012010  0.40095770  0.34484294  1
  O2-  O569  1  0.83035856  0.42555243  0.68834380  1
  O2-  O570  1  0.83628935  0.67596611  0.01792688  1
  O2-  O571  1  0.83317504  0.67633716  0.34255064  1
  O2-  O572  1  0.84139404  0.68313459  0.68415825  1
  O2-  O573  1  0.86312953  0.93384514  0.01888278  1
  O2-  O574  1  0.82138783  0.91110536  0.34737797  1
  O2-  O575  1  0.81737946  0.89124633  0.68989416  1
