# generated using pymatgen
data_H2O
_symmetry_space_group_name_H-M   'P 1'
_cell_length_a   17.99269052
_cell_length_b   17.99045617
_cell_length_c   22.00746850
_cell_angle_alpha   89.97999664
_cell_angle_beta   90.04413707
_cell_angle_gamma   120.00211974
_symmetry_Int_Tables_number   1
_chemical_formula_structural   H2O
_chemical_formula_sum   'H384 O192'
_cell_volume   6169.21065538
_cell_formula_units_Z   192
loop_
 _symmetry_equiv_pos_site_id
 _symmetry_equiv_pos_as_xyz
  1  'x, y, z'
loop_
 _atom_type_symbol
 _atom_type_oxidation_number
  H+  1.0
  O2-  -2.0
loop_
 _atom_site_type_symbol
 _atom_site_label
 _atom_site_symmetry_multiplicity
 _atom_site_fract_x
 _atom_site_fract_y
 _atom_site_fract_z
 _atom_site_occupancy
  H+  H0  1  0.88888647  0.52187045  0.50714285  1
  H+  H1  1  0.90930300  0.77505292  -0.01536928  1
  H+  H2  1  0.88122009  1.02491866  0.52437811  1
  H+  H3  1  0.77220139  0.13810500  0.98418615  1
  H+  H4  1  0.60305324  0.71833331  0.67624431  1
  H+  H5  1  0.27486126  0.41413429  0.34852789  1
  H+  H6  1  0.87535229  0.47711571  0.10561314  1
  H+  H7  1  0.41188469  0.09967828  0.93652743  1
  H+  H8  1  0.63875552  0.37421485  0.66333017  1
  H+  H9  1  0.88125272  0.43452255  -0.02270232  1
  H+  H10  1  0.18787776  0.34893672  0.58568270  1
  H+  H11  1  0.49217868  0.61269774  0.32136311  1
  H+  H12  1  0.35962492  0.97118323  0.66429869  1
  H+  H13  1  0.72888298  0.86170429  0.66498812  1
  H+  H14  1  0.10166308  0.72405900  0.16507828  1
  H+  H15  1  0.77845947  0.66068539  0.11057220  1
  H+  H16  1  1.02954492  0.13626767  0.83329406  1
  H+  H17  1  0.01884734  0.12438143  0.14237612  1
  H+  H18  1  0.79464173  0.63473268  0.82040350  1
  H+  H19  1  0.79192363  0.38708668  0.11197394  1
  H+  H20  1  0.85854036  0.86611743  0.82480258  1
  H+  H21  1  0.67868655  0.55011223  1.05894008  1
  H+  H22  1  0.59772513  0.53501936  0.92026219  1
  H+  H23  1  0.87770498  0.57910717  0.35576940  1
  H+  H24  1  1.01374671  0.90181676  0.32914727  1
  H+  H25  1  0.26589536  0.12923465  0.67729795  1
  H+  H26  1  0.56700854  0.40975533  0.03339003  1
  H+  H27  1  0.48976973  0.07265441  0.22415829  1
  H+  H28  1  0.59294273  0.46271560  0.34827213  1
  H+  H29  1  0.89478917  0.77378157  0.83427215  1
  H+  H30  1  0.26412141  0.36259409  0.49974266  1
  H+  H31  1  0.03025634  0.63029170  0.82136096  1
  H+  H32  1  0.67531376  0.99550022  0.46198582  1
  H+  H33  1  0.14211035  0.36360771  0.52544466  1
  H+  H34  1  0.12799423  0.61627463  0.33768872  1
  H+  H35  1  0.46016436  0.10141398  0.66432983  1
  H+  H36  1  0.63295530  0.52365661  0.50780111  1
  H+  H37  1  0.35221529  0.74619586  0.50952251  1
  H+  H38  1  0.85605447  0.62732836  0.49724285  1
  H+  H39  1  0.69069884  0.60296018  0.90448663  1
  H+  H40  1  0.36973268  0.26301457  0.66936045  1
  H+  H41  1  0.09125992  0.45487155  0.16895724  1
  H+  H42  1  0.34489596  0.36118676  0.00970009  1
  H+  H43  1  0.53831038  0.87631572  -0.01085435  1
  H+  H44  1  0.65835194  0.14082329  0.15643742  1
  H+  H45  1  0.52999371  0.39139711  0.50640484  1
  H+  H46  1  0.14282726  0.61173393  0.84094042  1
  H+  H47  1  0.39391597  0.76644371  0.83251569  1
  H+  H48  1  0.33538827  0.12195075  0.35110984  1
  H+  H49  1  1.03670091  0.88386671  0.15940819  1
  H+  H50  1  0.26711851  0.37051014  0.16274425  1
  H+  H51  1  0.14697341  0.61064447  0.99545593  1
  H+  H52  1  0.88181111  1.02362327  -0.01360353  1
  H+  H53  1  0.11097778  0.22530313  0.53138277  1
  H+  H54  1  0.86899059  0.90230623  0.31560743  1
  H+  H55  1  0.62094280  0.96983958  -0.01898058  1
  H+  H56  1  0.13785236  0.11358171  0.66581091  1
  H+  H57  1  0.10630647  0.71219351  -0.00222791  1
  H+  H58  1  0.86703270  0.60971925  0.13202152  1
  H+  H59  1  0.83181076  0.15778946  0.39668688  1
  H+  H60  1  1.02858047  0.64533716  0.35424442  1
  H+  H61  1  0.13787959  0.39483728  0.68132292  1
  H+  H62  1  0.85840881  0.22028731  0.33898180  1
  H+  H63  1  0.72893788  0.37580274  0.66129088  1
  H+  H64  1  0.72919366  0.01946603  0.26076498  1
  H+  H65  1  0.40067862  0.74860537  0.99105403  1
  H+  H66  1  0.02560481  0.61685339  0.00037770  1
  H+  H67  1  0.67239490  0.81945534  0.92971347  1
  H+  H68  1  0.36502331  0.51123573  0.65666804  1
  H+  H69  1  0.37118019  0.13358314  0.17309890  1
  H+  H70  1  0.11286047  0.38521806  0.83189429  1
  H+  H71  1  0.09804522  0.47334501  0.35181320  1
  H+  H72  1  0.88743087  0.03248627  0.30194029  1
  H+  H73  1  0.12653193  0.87713478  0.49788313  1
  H+  H74  1  0.88675894  0.61009731  0.65565728  1
  H+  H75  1  0.54713226  0.92073142  0.52290346  1
  H+  H76  1  0.61637219  0.35067642  0.97830168  1
  H+  H77  1  0.52533899  0.88807358  0.67976764  1
  H+  H78  1  0.39195000  0.59460909  0.99532973  1
  H+  H79  1  0.09794698  0.17484256  0.74159246  1
  H+  H80  1  0.36642831  0.72726662  0.67667605  1
  H+  H81  1  0.14528916  0.01188358  0.16546357  1
  H+  H82  1  0.22827087  0.61310309  0.66308993  1
  H+  H83  1  0.58186232  0.81941958  0.53491787  1
  H+  H84  1  0.27226331  0.13489341  0.82810977  1
  H+  H85  1  0.38853884  0.50431854  0.99506705  1
  H+  H86  1  0.09332011  0.59800083  0.17718706  1
  H+  H87  1  0.40253547  0.83787533  0.98631657  1
  H+  H88  1  0.11440382  0.63187868  0.67084612  1
  H+  H89  1  0.88769417  0.35736910  0.51756535  1
  H+  H90  1  0.11565233  0.47644513  0.01192065  1
  H+  H91  1  0.92296476  0.57202500  0.88439145  1
  H+  H92  1  0.53754188  0.14614059  0.14172525  1
  H+  H93  1  0.46908027  0.10865548  0.51749389  1
  H+  H94  1  0.02177790  0.39322118  0.01760550  1
  H+  H95  1  0.39027423  0.60948492  0.17768101  1
  H+  H96  1  0.12686266  0.86433593  0.31721166  1
  H+  H97  1  0.64453209  0.41726455  0.11067465  1
  H+  H98  1  0.12027662  0.98253100  -0.03541602  1
  H+  H99  1  0.50815926  0.38363217  0.67760557  1
  H+  H100  1  0.35665805  0.13091504  0.67532594  1
  H+  H101  1  0.90983545  0.82769265  0.56043788  1
  H+  H102  1  0.59510066  0.37607862  0.35161664  1
  H+  H103  1  0.89258115  0.11565033  0.67854504  1
  H+  H104  1  0.11264671  0.73906092  0.33990911  1
  H+  H105  1  0.87935133  1.02302699  0.15344401  1
  H+  H106  1  0.42395873  1.01841639  0.17242209  1
  H+  H107  1  0.77871401  0.90438681  0.15119229  1
  H+  H108  1  0.12365852  0.10655899  0.52580051  1
  H+  H109  1  0.87003270  0.12898461  0.14029898  1
  H+  H110  1  0.59324711  0.61102847  0.16625453  1
  H+  H111  1  0.21755750  0.87086164  0.50101151  1
  H+  H112  1  0.12437505  1.02996044  0.31306178  1
  H+  H113  1  0.88354716  0.77011063  0.50051734  1
  H+  H114  1  0.11753745  0.89380667  -0.02163484  1
  H+  H115  1  0.63024840  0.76515999  0.83437768  1
  H+  H116  1  0.78030594  0.87934505  -0.00065450  1
  H+  H117  1  0.61322274  0.14164919  0.50462221  1
  H+  H118  1  0.14353151  0.29092133  0.31294112  1
  H+  H119  1  0.73032027  0.11430734  0.66461137  1
  H+  H120  1  0.37423618  1.06383550  0.00463145  1
  H+  H121  1  0.98707367  0.36077421  0.66352433  1
  H+  H122  1  0.37508688  0.85943342  0.32951705  1
  H+  H123  1  0.82903564  0.90093773  0.75906331  1
  H+  H124  1  0.73211836  0.12231433  0.50581107  1
  H+  H125  1  0.11859861  0.22699248  0.83676404  1
  H+  H126  1  0.21255409  0.85298589  0.98597662  1
  H+  H127  1  0.77537497  0.38822257  0.82297080  1
  H+  H128  1  0.13735735  0.12262196  0.84931187  1
  H+  H129  1  0.77476202  0.38547077  0.50996212  1
  H+  H130  1  0.87448057  0.76981235  0.65281386  1
  H+  H131  1  0.30423642  0.18731012  0.43056589  1
  H+  H132  1  0.39556043  0.88369381  0.15849088  1
  H+  H133  1  0.61740657  0.72379281  0.33254250  1
  H+  H134  1  0.13908486  0.09750899  0.15772564  1
  H+  H135  1  0.38066866  1.02068430  0.51213065  1
  H+  H136  1  0.30104529  0.65013908  0.15425273  1
  H+  H137  1  0.87144566  0.38733926  0.66967635  1
  H+  H138  1  0.76072028  0.86460152  0.82153419  1
  H+  H139  1  0.34995658  0.23634642  0.49320206  1
  H+  H140  1  0.88528861  0.81239188  0.33090840  1
  H+  H141  1  0.10886223  -0.01763677  0.49262307  1
  H+  H142  1  0.14208445  0.52174796  0.66556203  1
  H+  H143  1  0.91837094  0.58393843  0.56441095  1
  H+  H144  1  0.78056107  0.14139935  0.84559060  1
  H+  H145  1  0.27440600  0.88086153  0.67549362  1
  H+  H146  1  0.11789435  0.87265047  0.16491307  1
  H+  H147  1  0.35126563  0.46297773  0.16279997  1
  H+  H148  1  0.62820378  0.84684918  0.31316264  1
  H+  H149  1  0.22016537  0.35994365  0.84067409  1
  H+  H150  1  0.47382997  0.85243370  0.20090293  1
  H+  H151  1  0.96844707  0.35693633  0.33337110  1
  H+  H152  1  0.90895571  0.33327234  0.27272623  1
  H+  H153  1  0.46016378  0.35195377  0.83911667  1
  H+  H154  1  0.37265906  0.26149530  0.83190191  1
  H+  H155  1  0.45179575  0.11657919  0.34949180  1
  H+  H156  1  0.77951852  0.14543485  0.14170701  1
  H+  H157  1  0.63575873  0.14352398  0.83713605  1
  H+  H158  1  0.13331585  0.76732311  0.83204180  1
  H+  H159  1  0.89007143  0.12149825  0.31249814  1
  H+  H160  1  0.35417289  0.62643542  0.49138504  1
  H+  H161  1  0.77686575  0.88871581  0.51422531  1
  H+  H162  1  0.23635707  0.96601467  0.06225252  1
  H+  H163  1  0.34748987  0.37502104  0.81993662  1
  H+  H164  1  0.62787816  0.10329144  0.95824619  1
  H+  H165  1  0.16362366  0.84270617  0.73726917  1
  H+  H166  1  0.09977086  0.22253674  -0.00416927  1
  H+  H167  1  0.35130446  0.46562954  0.82230031  1
  H+  H168  1  0.63016391  0.60817986  0.66293049  1
  H+  H169  1  0.23133690  0.61098268  0.84056410  1
  H+  H170  1  0.61063065  0.95864681  0.31388753  1
  H+  H171  1  0.09580976  0.87778746  0.66638722  1
  H+  H172  1  0.09043207  0.65997042  0.76346403  1
  H+  H173  1  0.68996026  0.20283097  0.78418474  1
  H+  H174  1  0.25124502  0.12900724  0.33725218  1
  H+  H175  1  0.89019112  0.52222126  0.65689673  1
  H+  H176  1  0.36208404  0.63544200  0.67162706  1
  H+  H177  1  0.58617818  0.16466939  0.07661604  1
  H+  H178  1  0.60986443  0.63453281  0.49228722  1
  H+  H179  1  0.13538249  0.23939969  0.68509105  1
  H+  H180  1  0.29991570  0.31017070  0.46543679  1
  H+  H181  1  0.91836398  0.55030675  0.30412623  1
  H+  H182  1  0.70434206  0.59663174  0.18440200  1
  H+  H183  1  0.64249476  0.37037149  0.51117261  1
  H+  H184  1  0.28319280  0.62800358  0.00928770  1
  H+  H185  1  0.63711515  1.01723394  0.86473768  1
  H+  H186  1  1.02110000  0.65345075  0.49496439  1
  H+  H187  1  0.60415366  0.37917919  0.82676514  1
  H+  H188  1  0.17656958  0.58034349  0.93685370  1
  H+  H189  1  0.64760835  0.85526058  0.98686626  1
  H+  H190  1  0.61564617  0.71488730  1.00555523  1
  H+  H191  1  0.87232419  0.88726934  -0.00059022  1
  H+  H192  1  0.71102757  0.58756052  0.33451686  1
  H+  H193  1  0.11888315  0.77531554  0.50072766  1
  H+  H194  1  0.63912689  0.87343807  0.15919218  1
  H+  H195  1  0.22873723  0.13608178  0.94057475  1
  H+  H196  1  0.88276966  0.63598427  0.81811720  1
  H+  H197  1  0.86000370  0.13476124  0.49790527  1
  H+  H198  1  0.86487596  0.22510089  0.49337598  1
  H+  H199  1  0.86291256  0.88469986  0.67097420  1
  H+  H200  1  0.25852616  0.87999892  0.33799560  1
  H+  H201  1  0.01719371  0.13943842  0.52758533  1
  H+  H202  1  0.53559416  0.91285640  0.48951298  1
  H+  H203  1  0.60179982  0.71981869  0.49051991  1
  H+  H204  1  0.53011511  0.62189506  1.00446409  1
  H+  H205  1  0.52026874  0.13776205  -0.00940089  1
  H+  H206  1  0.63056824  0.60325723  0.33224595  1
  H+  H207  1  0.88984307  0.64614280  0.04608197  1
  H+  H208  1  0.38751186  0.86179335  0.66330332  1
  H+  H209  1  0.76779014  0.62951925  0.66959786  1
  H+  H210  1  0.88779640  0.37032838  0.17269943  1
  H+  H211  1  0.64190008  0.55690097  0.24093479  1
  H+  H212  1  0.85439311  0.68092913  0.34476276  1
  H+  H213  1  0.96059792  0.77290100  0.21565946  1
  H+  H214  1  0.38887545  0.02575250  0.85611285  1
  H+  H215  1  0.72268412  0.85895597  0.30959037  1
  H+  H216  1  0.10670268  0.39005138  0.34679805  1
  H+  H217  1  0.66646227  0.83644892  0.21601222  1
  H+  H218  1  0.64687237  0.13632346  0.35587948  1
  H+  H219  1  0.11036406  0.20727992  0.14168067  1
  H+  H220  1  0.13430708  0.36402526  -0.00279088  1
  H+  H221  1  0.39674749  0.36417308  0.51955243  1
  H+  H222  1  0.60728246  0.09952878  0.34219287  1
  H+  H223  1  0.42026795  0.28276579  0.16829671  1
  H+  H224  1  0.20562748  0.83084956  0.17996526  1
  H+  H225  1  0.21522768  0.59224959  0.50796662  1
  H+  H226  1  0.35992587  0.62664033  0.82689029  1
  H+  H227  1  0.12325211  0.26381468  0.22076959  1
  H+  H228  1  0.71948863  0.34875508  0.34513238  1
  H+  H229  1  0.34416537  0.89081141  0.98246553  1
  H+  H230  1  0.57715328  0.23296464  0.36657479  1
  H+  H231  1  0.17690787  0.59259919  0.18627385  1
  H+  H232  1  0.60619871  0.47275628  0.13632016  1
  H+  H233  1  0.51370730  0.62852531  0.67430838  1
  H+  H234  1  0.62618917  0.51784060  0.66267005  1
  H+  H235  1  0.47223743  0.60192031  0.50191106  1
  H+  H236  1  0.63912932  0.85982159  0.83748789  1
  H+  H237  1  0.61330513  0.88690847  0.68054494  1
  H+  H238  1  0.41793656  0.36591886  0.17834058  1
  H+  H239  1  0.38948472  0.52580448  0.33273498  1
  H+  H240  1  0.11755793  0.47713774  0.83096668  1
  H+  H241  1  0.56971474  0.14457231  0.73333103  1
  H+  H242  1  0.59963429  0.62662629  0.83293694  1
  H+  H243  1  0.38702066  0.11271288  0.84632327  1
  H+  H244  1  0.89109159  0.51796802  0.82371514  1
  H+  H245  1  0.46610221  0.60012773  0.84036261  1
  H+  H246  1  0.02713511  0.15561697  0.28708202  1
  H+  H247  1  0.66885993  0.34330317  0.57389881  1
  H+  H248  1  0.92385096  0.32692044  0.60584652  1
  H+  H249  1  0.85302695  0.44693238  0.36392354  1
  H+  H250  1  0.38568522  0.74376283  0.16453542  1
  H+  H251  1  0.44980415  0.34989424  0.32930470  1
  H+  H252  1  0.36380068  0.26390248  0.32964150  1
  H+  H253  1  0.96494057  0.35381385  0.17981917  1
  H+  H254  1  0.38647108  0.93094547  -0.01099280  1
  H+  H255  1  0.90271784  0.12161704  0.83594583  1
  H+  H256  1  0.89089977  0.58824446  0.97424927  1
  H+  H257  1  0.98984057  0.87079179  0.97783518  1
  H+  H258  1  0.88827913  0.36710130  1.04866048  1
  H+  H259  1  0.28593400  0.13511523  0.16243275  1
  H+  H260  1  0.86995860  0.22818906  0.68092744  1
  H+  H261  1  0.96227217  0.62181999  0.12639523  1
  H+  H262  1  0.64600143  0.28411330  0.12905017  1
  H+  H263  1  0.34842120  0.72324460  0.34558810  1
  H+  H264  1  1.02960468  0.89249798  0.82836642  1
  H+  H265  1  0.10883428  0.46316441  0.50515847  1
  H+  H266  1  0.11925097  0.97713435  0.83564629  1
  H+  H267  1  0.64799427  0.28072956  0.83240838  1
  H+  H268  1  0.16193782  0.56813474  0.56942949  1
  H+  H269  1  0.86575839  0.23286648  0.83745125  1
  H+  H270  1  0.59904098  0.11905282  0.67313725  1
  H+  H271  1  0.37118515  0.17967751  0.98172886  1
  H+  H272  1  0.59902893  0.46400090  0.83493472  1
  H+  H273  1  0.49333106  0.34826050  -0.01308822  1
  H+  H274  1  0.11741724  0.33512745  0.17735433  1
  H+  H275  1  0.33200106  0.86753860  0.49693356  1
  H+  H276  1  0.86863254  0.97773695  0.68176586  1
  H+  H277  1  0.47179803  0.59631997  0.17334487  1
  H+  H278  1  0.38475722  0.51296431  0.50282796  1
  H+  H279  1  0.36923176  0.88711556  0.83899451  1
  H+  H280  1  0.61345926  0.21862191  -0.01362915  1
  H+  H281  1  0.86439348  0.38609894  0.82572313  1
  H+  H282  1  0.65269227  0.87217594  0.48685482  1
  H+  H283  1  0.11588927  0.15400304  0.28808745  1
  H+  H284  1  0.02012998  0.89178506  0.48840931  1
  H+  H285  1  0.52975350  0.88456175  0.83238373  1
  H+  H286  1  0.09843713  -0.03269260  0.65697119  1
  H+  H287  1  0.51053212  0.86182490  0.12428268  1
  H+  H288  1  0.13189252  0.76952179  0.68810022  1
  H+  H289  1  0.58384087  0.66702087  0.39505490  1
  H+  H290  1  0.80840031  0.63710365  0.01259852  1
  H+  H291  1  0.83296749  0.16005829  0.07565397  1
  H+  H292  1  0.42258316  0.57525056  0.25895028  1
  H+  H293  1  0.67210960  0.08357233  0.56396088  1
  H+  H294  1  0.25990730  0.63434367  0.34549688  1
  H+  H295  1  0.92012480  0.82676433  0.24203718  1
  H+  H296  1  0.32690718  0.40088223  0.06975566  1
  H+  H297  1  0.34712962  0.96864747  0.34506021  1
  H+  H298  1  0.16531891  0.08127266  0.60606348  1
  H+  H299  1  0.97613186  0.35405163  0.51409646  1
  H+  H300  1  0.42036203  0.33318772  0.58048887  1
  H+  H301  1  0.41145999  0.82207808  0.60834739  1
  H+  H302  1  0.82001009  0.63911785  0.41046121  1
  H+  H303  1  0.43221473  0.84017668  0.50913829  1
  H+  H304  1  0.82972053  0.93564582  0.37097216  1
  H+  H305  1  0.15153893  0.82118755  0.25979994  1
  H+  H306  1  0.61224207  0.23067160  0.51131343  1
  H+  H307  1  0.22172261  0.35979916  0.99744293  1
  H+  H308  1  0.97005258  0.11513715  0.98584112  1
  H+  H309  1  0.68797563  0.09835347  0.21100740  1
  H+  H310  1  0.66096838  0.58330155  0.56717408  1
  H+  H311  1  0.57734160  0.41553876  0.44158224  1
  H+  H312  1  0.71385363  0.36994653  0.98288154  1
  H+  H313  1  0.34998981  0.66396606  0.06627756  1
  H+  H314  1  0.09362718  0.41732683  0.73618130  1
  H+  H315  1  0.07765397  0.40147076  0.44684280  1
  H+  H316  1  0.86255776  0.88781390  0.50254074  1
  H+  H317  1  0.31107092  0.95031819  0.08338719  1
  H+  H318  1  0.40427116  0.08688405  0.28393925  1
  H+  H319  1  0.21381477  0.11934935  0.50930858  1
  H+  H320  1  0.39863982  0.82354204  0.26987947  1
  H+  H321  1  0.33358554  0.65934938  0.76646461  1
  H+  H322  1  0.32060778  0.65762376  0.43325937  1
  H+  H323  1  0.83434537  0.17113635  0.74141295  1
  H+  H324  1  0.38378477  0.30050514  0.92165503  1
  H+  H325  1  0.42708859  0.81629992  0.89473492  1
  H+  H326  1  0.57405776  0.65392166  0.76929862  1
  H+  H327  1  0.87782069  0.28881719  1.00754853  1
  H+  H328  1  0.28901487  0.39607213  0.72652703  1
  H+  H329  1  0.66717212  0.62628719  1.03145681  1
  H+  H330  1  0.63652926  0.93185920  0.40576498  1
  H+  H331  1  0.31505023  0.90530988  0.43504718  1
  H+  H332  1  0.84906729  0.35798432  0.35267510  1
  H+  H333  1  0.66638114  0.33682253  0.89219949  1
  H+  H334  1  0.07683633  0.92778441  0.38738188  1
  H+  H335  1  0.33561028  0.42768650  0.40485375  1
  H+  H336  1  0.64329886  0.02405944  0.66350201  1
  H+  H337  1  0.84074084  0.92776719  0.09298568  1
  H+  H338  1  0.40862800  0.56527441  0.90011639  1
  H+  H339  1  0.09500892  0.15930416  0.42498182  1
  H+  H340  1  0.28022156  0.88632419  0.83865658  1
  H+  H341  1  0.90683561  0.08469363  0.58364376  1
  H+  H342  1  0.92269699  0.08491692  0.89436369  1
  H+  H343  1  0.96538860  0.85883436  0.64632405  1
  H+  H344  1  0.09358553  0.16781809  0.39156294  1
  H+  H345  1  0.16459101  0.33450918  0.90300181  1
  H+  H346  1  0.08682297  0.68871373  0.43777363  1
  H+  H347  1  0.93007065  0.61685935  0.23448208  1
  H+  H348  1  0.56879132  0.41364326  0.73565312  1
  H+  H349  1  0.59362448  0.92652624  0.77706441  1
  H+  H350  1  0.98304265  0.11815855  0.67463509  1
  H+  H351  1  0.84026699  0.41654634  0.72783986  1
  H+  H352  1  0.13326557  0.85922444  0.83747052  1
  H+  H353  1  0.18508828  0.37188293  0.27275537  1
  H+  H354  1  0.86054118  0.13692740  -0.01115764  1
  H+  H355  1  0.08420456  0.66574405  0.10130493  1
  H+  H356  1  0.42991060  0.94663720  0.10010492  1
  H+  H357  1  0.13540892  0.57166346  0.27771582  1
  H+  H358  1  0.96730670  0.60853647  0.23607983  1
  H+  H359  1  0.57106688  0.64625235  0.10597569  1
  H+  H360  1  0.51545066  0.87965650  0.33023808  1
  H+  H361  1  0.91665902  0.83137068  0.89548377  1
  H+  H362  1  0.07266893  0.15422370  0.04916910  1
  H+  H363  1  0.35750079  0.34562966  0.66450476  1
  H+  H364  1  0.40743621  0.57074060  0.59908144  1
  H+  H365  1  0.16688302  0.08187337  0.25150848  1
  H+  H366  1  1.02430980  0.63196929  0.67051820  1
  H+  H367  1  0.58714180  0.91618758  0.08032864  1
  H+  H368  1  0.76620202  0.62915396  0.49735576  1
  H+  H369  1  0.65628368  0.31390255  0.28786869  1
  H+  H370  1  0.07849741  0.40513494  0.10685389  1
  H+  H371  1  0.91133481  0.09386333  0.21086437  1
  H+  H372  1  0.40269767  0.07941108  0.60364052  1
  H+  H373  1  0.54767232  0.17362214  0.42609310  1
  H+  H374  1  0.68728075  0.35779518  0.17810840  1
  H+  H375  1  0.16178788  0.81914524  0.92271062  1
  H+  H376  1  0.83655965  0.66465850  0.72407414  1
  H+  H377  1  0.82856068  0.39845754  0.45027747  1
  H+  H378  1  0.84391162  0.71600396  0.16595540  1
  H+  H379  1  0.74543758  0.09045658  0.30850535  1
  H+  H380  1  0.66817033  0.83313910  0.60670276  1
  H+  H381  1  0.32786930  0.15989472  0.76597700  1
  H+  H382  1  0.92812202  0.34895226  0.90150725  1
  H+  H383  1  -0.01426867  0.37092738  0.84185222  1
  O2-  O384  1  0.07880364  0.14691980  0.12762791  1
  O2-  O385  1  0.07975063  0.16296230  0.52236521  1
  O2-  O386  1  0.09344769  0.16638863  0.82168552  1
  O2-  O387  1  0.07248277  0.39705758  0.15197946  1
  O2-  O388  1  0.07837107  0.39992429  0.49193482  1
  O2-  O389  1  0.08353974  0.41652867  0.81583982  1
  O2-  O390  1  0.06767003  0.66039750  0.14461386  1
  O2-  O391  1  0.08183358  0.69327503  0.48285007  1
  O2-  O392  1  0.09204017  0.66277989  0.80922024  1
  O2-  O393  1  0.09733061  0.91132182  0.14714289  1
  O2-  O394  1  0.08034521  0.92363287  0.47288335  1
  O2-  O395  1  0.09117597  0.91842317  0.81870748  1
  O2-  O396  1  0.34828753  0.16595785  0.15286890  1
  O2-  O397  1  0.29483822  0.20727048  0.47115583  1
  O2-  O398  1  0.33177952  0.16449676  0.81191557  1
  O2-  O399  1  0.32528075  0.40423740  0.14547087  1
  O2-  O400  1  0.31549624  0.37043800  0.47579618  1
  O2-  O401  1  0.31742148  0.40601465  0.80588005  1
  O2-  O402  1  0.36134418  0.68067529  0.14316691  1
  O2-  O403  1  0.32102610  0.65455647  0.47985042  1
  O2-  O404  1  0.33349768  0.66075284  0.81215728  1
  O2-  O405  1  0.38831043  0.93088907  0.13291306  1
  O2-  O406  1  0.31138356  0.90585202  0.48057683  1
  O2-  O407  1  0.34284051  0.92331518  0.83387788  1
  O2-  O408  1  0.59414883  0.17874241  0.12114768  1
  O2-  O409  1  0.57818915  0.16971474  0.49725233  1
  O2-  O410  1  0.63723664  0.18519641  0.80693490  1
  O2-  O411  1  0.62290075  0.45588442  0.09814140  1
  O2-  O412  1  0.58816640  0.42348912  0.48678897  1
  O2-  O413  1  0.56943246  0.40710241  0.81574431  1
  O2-  O414  1  0.56177172  0.63966617  0.15028855  1
  O2-  O415  1  0.57613264  0.66023176  0.47454967  1
  O2-  O416  1  0.57351613  0.65837817  0.81479751  1
  O2-  O417  1  0.57076557  0.90700241  0.12402304  1
  O2-  O418  1  0.67646332  0.94771045  0.44096053  1
  O2-  O419  1  0.59297244  0.92113646  0.82234841  1
  O2-  O420  1  0.83900872  0.16314653  0.12164464  1
  O2-  O421  1  0.83415445  0.16541400  0.47626275  1
  O2-  O422  1  0.83380164  0.17289110  0.82170015  1
  O2-  O423  1  0.85487968  0.41450692  0.10558076  1
  O2-  O424  1  0.83583767  0.41203362  0.49455759  1
  O2-  O425  1  0.83538693  0.41514580  0.80666601  1
  O2-  O426  1  0.80336451  0.65705680  0.14977636  1
  O2-  O427  1  0.82554195  0.65657208  0.47941794  1
  O2-  O428  1  0.85299628  0.66913010  0.80519312  1
  O2-  O429  1  0.84068484  0.93634181  0.13759478  1
  O2-  O430  1  0.83373526  0.92249963  0.49646260  1
  O2-  O431  1  0.82292710  0.89211319  0.80620111  1
  O2-  O432  1  0.17308313  0.07472367  0.17757579  1
  O2-  O433  1  0.15879778  0.07637886  0.52902762  1
  O2-  O434  1  0.17058473  0.09050743  0.86236512  1
  O2-  O435  1  0.15170006  0.30705166  0.18752990  1
  O2-  O436  1  0.17760662  0.33881065  0.54046232  1
  O2-  O437  1  0.16029943  0.33103917  0.85738942  1
  O2-  O438  1  0.11650884  0.56147773  0.19699427  1
  O2-  O439  1  0.15634942  0.55891730  0.52477864  1
  O2-  O440  1  0.17173890  0.58089283  0.85792277  1
  O2-  O441  1  0.14616350  0.80604736  0.19296219  1
  O2-  O442  1  0.15456028  0.84351913  0.51503134  1
  O2-  O443  1  0.16454891  0.82734185  0.84819239  1
  O2-  O444  1  0.45233570  0.07642082  0.19381696  1
  O2-  O445  1  0.40764663  0.07874843  0.52964530  1
  O2-  O446  1  0.41643616  0.08741376  0.86917985  1
  O2-  O447  1  0.45862075  0.34544030  0.17264270  1
  O2-  O448  1  0.43106377  0.33918358  0.53565330  1
  O2-  O449  1  0.39810461  0.32166501  0.84998306  1
  O2-  O450  1  0.41079700  0.57052104  0.19250799  1
  O2-  O451  1  0.41235239  0.57158311  0.51873151  1
  O2-  O452  1  0.40555138  0.56796490  0.85468307  1
  O2-  O453  1  0.41244905  0.82393217  0.19210632  1
  O2-  O454  1  0.37482114  0.80659185  0.52665606  1
  O2-  O455  1  0.42741399  0.82566296  0.85017477  1
  O2-  O456  1  0.69571245  0.11723399  0.16813198  1
  O2-  O457  1  0.67088546  0.08685621  0.51878361  1
  O2-  O458  1  0.66811280  0.07881054  0.87979365  1
  O2-  O459  1  0.68383441  0.34827647  0.13440668  1
  O2-  O460  1  0.67135073  0.33955573  0.52770524  1
  O2-  O461  1  0.66941981  0.34077068  0.84655685  1
  O2-  O462  1  0.64276724  0.56069818  0.19582150  1
  O2-  O463  1  0.66292449  0.58585589  0.52177810  1
  O2-  O464  1  0.63500390  0.56542769  0.88578407  1
  O2-  O465  1  0.67980202  0.85521465  0.17333105  1
  O2-  O466  1  0.63516111  0.82478970  0.51951462  1
  O2-  O467  1  0.66826360  0.82594986  0.84794376  1
  O2-  O468  1  0.91166304  0.09059065  0.16534517  1
  O2-  O469  1  0.90563146  0.08571387  0.53838349  1
  O2-  O470  1  0.93211689  0.09073005  0.84939641  1
  O2-  O471  1  0.90949595  0.34051647  0.19849446  1
  O2-  O472  1  0.91504242  0.32278381  0.52937281  1
  O2-  O473  1  0.92411181  0.34181572  0.85746339  1
  O2-  O474  1  0.90314223  0.59261656  0.10808686  1
  O2-  O475  1  0.91544577  0.58400780  0.51879281  1
  O2-  O476  1  0.92417298  0.57903133  0.83909698  1
  O2-  O477  1  0.92831047  0.80013748  0.20211520  1
  O2-  O478  1  0.91434496  0.83055015  0.51489836  1
  O2-  O479  1  0.91417833  0.83301668  0.84917285  1
  O2-  O480  1  0.15865778  0.08945599  0.29609305  1
  O2-  O481  1  0.16435974  0.07942201  0.65175125  1
  O2-  O482  1  0.16934768  0.09133042  0.92907390  1
  O2-  O483  1  0.17394619  0.35541002  0.31571832  1
  O2-  O484  1  0.19797978  0.34925106  0.66237414  1
  O2-  O485  1  0.16315717  0.33432519  0.97904451  1
  O2-  O486  1  0.14765951  0.57672130  0.32197294  1
  O2-  O487  1  0.16734415  0.58147770  0.64897485  1
  O2-  O488  1  0.17812454  0.58016793  0.98243777  1
  O2-  O489  1  0.15571758  0.83094635  0.30732859  1
  O2-  O490  1  0.16008585  0.83336160  0.69341620  1
  O2-  O491  1  0.15549034  0.81587706  0.96854021  1
  O2-  O492  1  0.39523111  0.07476195  0.32742027  1
  O2-  O493  1  0.39951145  0.07739460  0.64960899  1
  O2-  O494  1  0.41627963  0.11579930  0.98242054  1
  O2-  O495  1  0.38975765  0.32408944  0.31618214  1
  O2-  O496  1  0.39823608  0.32507373  0.65595185  1
  O2-  O497  1  0.38279080  0.29503795  0.96817422  1
  O2-  O498  1  0.43023645  0.58101443  0.30641217  1
  O2-  O499  1  0.40575301  0.57134697  0.64439242  1
  O2-  O500  1  0.42065555  0.56411818  0.97815117  1
  O2-  O501  1  0.40607756  0.82945168  0.31526726  1
  O2-  O502  1  0.42006279  0.82965029  0.65281496  1
  O2-  O503  1  0.43328997  0.80872776  0.97288835  1
  O2-  O504  1  0.70160065  0.04902681  0.27880480  1
  O2-  O505  1  0.67184903  0.08318183  0.64634596  1
  O2-  O506  1  0.66216877  0.07466176  0.94641264  1
  O2-  O507  1  0.65881431  0.32809400  0.33064501  1
  O2-  O508  1  0.66963333  0.34707304  0.64538622  1
  O2-  O509  1  0.65695315  0.32776307  0.96788661  1
  O2-  O510  1  0.65153676  0.56348438  0.31944967  1
  O2-  O511  1  0.66043620  0.57853279  0.64724803  1
  O2-  O512  1  0.71052343  0.60863095  1.04024118  1
  O2-  O513  1  0.66081865  0.81854213  0.29926451  1
  O2-  O514  1  0.66749177  0.83016422  0.65143743  1
  O2-  O515  1  0.67317541  0.81918732  0.97483434  1
  O2-  O516  1  0.91657507  0.09413083  0.28780665  1
  O2-  O517  1  0.92116920  0.08358332  0.66339419  1
  O2-  O518  1  0.90731423  0.08362984  0.97107359  1
  O2-  O519  1  0.90770605  0.32487811  0.31823749  1
  O2-  O520  1  0.92543826  0.33066179  0.65153777  1
  O2-  O521  1  0.90856603  0.35241264  1.01054008  1
  O2-  O522  1  0.91654725  0.55466503  0.34831248  1
  O2-  O523  1  0.92048946  0.58305597  0.64159421  1
  O2-  O524  1  0.91881240  0.55416041  0.95902990  1
  O2-  O525  1  0.91627693  0.86192140  0.30454594  1
  O2-  O526  1  0.90038021  0.82988944  0.63764554  1
  O2-  O527  1  0.92591063  0.83271398  0.96864499  1
  O2-  O528  1  0.06543573  0.16034698  0.00498124  1
  O2-  O529  1  0.09050796  0.19218072  0.28145766  1
  O2-  O530  1  0.09657735  0.17765835  0.69631056  1
  O2-  O531  1  0.08322391  0.41665797  0.02844750  1
  O2-  O532  1  0.06993898  0.41161775  0.36428280  1
  O2-  O533  1  0.09803622  0.41778887  0.69100467  1
  O2-  O534  1  0.08417682  0.65405456  0.01633464  1
  O2-  O535  1  0.09060379  0.68191046  0.36221625  1
  O2-  O536  1  0.08358681  0.66094654  0.68797368  1
  O2-  O537  1  0.09110636  0.92896739  -0.01159292  1
  O2-  O538  1  0.07632060  0.92687791  0.34240206  1
  O2-  O539  1  0.06249117  0.90418672  0.65129303  1
  O2-  O540  1  0.32993610  0.20271968  -0.02016943  1
  O2-  O541  1  0.30564392  0.15422746  0.36139376  1
  O2-  O542  1  0.32695579  0.16214801  0.69218726  1
  O2-  O543  1  0.32618296  0.40141996  0.02376651  1
  O2-  O544  1  0.32859749  0.45693464  0.36895276  1
  O2-  O545  1  0.29045804  0.39726594  0.68107416  1
  O2-  O546  1  0.34531144  0.65534314  0.02101655  1
  O2-  O547  1  0.31875610  0.66408237  0.36241542  1
  O2-  O548  1  0.33350349  0.66525059  0.68990699  1
  O2-  O549  1  0.28725629  0.96507386  0.04798284  1
  O2-  O550  1  0.31710343  0.90653853  0.35691510  1
  O2-  O551  1  0.33730488  0.90862645  0.67156299  1
  O2-  O552  1  0.58263637  0.15657592  -0.00217818  1
  O2-  O553  1  0.52914728  0.18106641  0.38470983  1
  O2-  O554  1  0.55852134  0.13603999  0.68963198  1
  O2-  O555  1  0.55574096  0.38923775  -0.00951774  1
  O2-  O556  1  0.56373057  0.40426526  0.36689737  1
  O2-  O557  1  0.56947172  0.41660010  0.69045197  1
  O2-  O558  1  0.58891514  0.65534119  0.02197935  1
  O2-  O559  1  0.58568544  0.66349088  0.34982301  1
  O2-  O560  1  0.57311720  0.65813038  0.69134719  1
  O2-  O561  1  0.59929595  0.91414557  0.00207871  1
  O2-  O562  1  0.57870454  0.90419983  0.33696157  1
  O2-  O563  1  0.58570433  0.91911117  0.69586151  1
  O2-  O564  1  0.82967875  0.16853087  0.00309218  1
  O2-  O565  1  0.83166136  0.15836411  0.35115768  1
  O2-  O566  1  0.83663630  0.16762619  0.69638270  1
  O2-  O567  1  0.84911806  0.46457389  -0.03229010  1
  O2-  O568  1  0.81662263  0.38432539  0.37226807  1
  O2-  O569  1  0.84223387  0.41959033  0.68263287  1
  O2-  O570  1  0.87090663  0.65775347  0.00603097  1
  O2-  O571  1  0.81870606  0.62584361  0.36460624  1
  O2-  O572  1  0.83065250  0.66230737  0.67918735  1
  O2-  O573  1  0.84084365  0.91663589  0.01289967  1
  O2-  O574  1  0.82918295  0.93123524  0.32668542  1
  O2-  O575  1  0.83447576  0.91460653  0.69202426  1
