# generated using pymatgen
data_H2O
_symmetry_space_group_name_H-M   'P 1'
_cell_length_a   17.97803370
_cell_length_b   17.98161950
_cell_length_c   22.00294731
_cell_angle_alpha   89.96347766
_cell_angle_beta   90.02305719
_cell_angle_gamma   119.98296684
_symmetry_Int_Tables_number   1
_chemical_formula_structural   H2O
_chemical_formula_sum   'H384 O192'
_cell_volume   6161.08087119
_cell_formula_units_Z   192
loop_
 _symmetry_equiv_pos_site_id
 _symmetry_equiv_pos_as_xyz
  1  'x, y, z'
loop_
 _atom_type_symbol
 _atom_type_oxidation_number
  H+  1.0
  O2-  -2.0
loop_
 _atom_site_type_symbol
 _atom_site_label
 _atom_site_symmetry_multiplicity
 _atom_site_fract_x
 _atom_site_fract_y
 _atom_site_fract_z
 _atom_site_occupancy
  H+  H0  1  1.02691479  0.38661001  0.16281162  1
  H+  H1  1  0.23517065  1.10414574  0.18313118  1
  H+  H2  1  0.72967971  0.11242483  0.65875142  1
  H+  H3  1  0.25957046  0.63686315  0.15282830  1
  H+  H4  1  0.61504602  0.23238839  0.01165249  1
  H+  H5  1  0.77098638  0.88676749  0.16971859  1
  H+  H6  1  0.08699483  0.20754300  0.34291908  1
  H+  H7  1  0.21622894  0.31979214  0.20874395  1
  H+  H8  1  0.60859580  0.14371514  0.34216924  1
  H+  H9  1  0.88421329  0.60733476  0.65268826  1
  H+  H10  1  0.13885060  0.61488432  0.32678205  1
  H+  H11  1  0.89145140  0.60601217  0.98301327  1
  H+  H12  1  0.37810302  0.53824914  0.15110005  1
  H+  H13  1  0.21837635  0.62185212  0.83316105  1
  H+  H14  1  0.10919486  0.72634245  1.01201302  1
  H+  H15  1  0.36167108  0.27098375  0.99360333  1
  H+  H16  1  0.52287853  0.63940888  0.67216435  1
  H+  H17  1  0.88670883  0.51805246  0.65225831  1
  H+  H18  1  1.02801097  0.63989582  0.49587430  1
  H+  H19  1  0.13903514  0.11023140  0.33839729  1
  H+  H20  1  0.65816358  0.32288887  0.89032418  1
  H+  H21  1  0.77293806  0.63317779  0.67039890  1
  H+  H22  1  0.83279054  0.65995447  0.72906793  1
  H+  H23  1  0.28542913  0.88729434  0.03366895  1
  H+  H24  1  0.59676478  0.69807601  0.83027196  1
  H+  H25  1  0.61533694  0.76727037  0.34529498  1
  H+  H26  1  0.36572014  0.97760250  0.67263829  1
  H+  H27  1  0.86171528  0.34289682  0.83587575  1
  H+  H28  1  0.91223789  0.82615556  0.59843459  1
  H+  H29  1  0.22724485  0.86493897  0.66129619  1
  H+  H30  1  0.36056439  0.63668955  0.67486180  1
  H+  H31  1  0.36001915  0.22430145  0.49528644  1
  H+  H32  1  0.23165666  0.10907630  0.34123168  1
  H+  H33  1  0.85488451  0.22497797  0.33952918  1
  H+  H34  1  0.97390421  0.35815521  0.65986037  1
  H+  H35  1  0.08357962  0.38452767  0.34242511  1
  H+  H36  1  -0.02194892  0.36315406  -0.01040828  1
  H+  H37  1  0.74766471  0.86641720  0.80326071  1
  H+  H38  1  0.72015461  0.11105785  0.84013153  1
  H+  H39  1  0.86181163  0.22902350  0.67455633  1
  H+  H40  1  0.36201113  0.97216673  0.18030768  1
  H+  H41  1  0.36896448  0.99070059  0.50617508  1
  H+  H42  1  0.50539506  0.38045088  0.96841813  1
  H+  H43  1  0.12060863  0.51618093  0.51040989  1
  H+  H44  1  1.03153481  0.15039933  0.82428794  1
  H+  H45  1  0.14442776  0.27841204  0.66272514  1
  H+  H46  1  0.47962467  0.09922749  0.17531296  1
  H+  H47  1  0.57440804  0.79392268  0.88911337  1
  H+  H48  1  0.88547390  0.61215238  0.18355798  1
  H+  H49  1  0.61302650  0.72907834  0.67312160  1
  H+  H50  1  0.63704692  0.86823603  0.66574382  1
  H+  H51  1  0.36846787  0.85567633  0.51312580  1
  H+  H52  1  0.62486548  0.90013535  1.02742891  1
  H+  H53  1  0.67088221  0.33773947  0.56384086  1
  H+  H54  1  0.59096004  0.37594368  0.24271276  1
  H+  H55  1  0.46631182  0.60196620  0.83215098  1
  H+  H56  1  0.12770025  0.11678138  0.00907099  1
  H+  H57  1  0.95205686  1.11718342  -0.01913609  1
  H+  H58  1  0.61694394  0.98293763  0.01780597  1
  H+  H59  1  0.13866206  0.36824138  0.50665604  1
  H+  H60  1  0.35954202  0.72693613  0.83153075  1
  H+  H61  1  0.77316594  0.63221804  0.18356363  1
  H+  H62  1  0.64400704  0.28631409  0.10835767  1
  H+  H63  1  0.36073578  0.22003126  0.15720818  1
  H+  H64  1  0.56858206  0.17167304  0.44223166  1
  H+  H65  1  0.60405253  0.13176688  0.82560176  1
  H+  H66  1  0.37099978  0.46660675  0.83046223  1
  H+  H67  1  0.38511274  0.10211803  0.51708393  1
  H+  H68  1  0.11119413  0.72723969  0.66346683  1
  H+  H69  1  0.33326390  0.15707567  0.77348552  1
  H+  H70  1  0.53200937  0.64410054  0.50967101  1
  H+  H71  1  0.28585551  0.65478733  0.33272969  1
  H+  H72  1  0.14095957  0.25081068  0.16749708  1
  H+  H73  1  0.63223913  0.51538968  0.19861802  1
  H+  H74  1  0.26996673  0.42402917  0.35663604  1
  H+  H75  1  0.59889067  0.21743407  0.82246601  1
  H+  H76  1  0.46638096  0.10117165  0.84350737  1
  H+  H77  1  0.83248784  0.65733266  0.43752971  1
  H+  H78  1  0.24134617  0.35875360  0.84834225  1
  H+  H79  1  0.14121483  0.52515648  0.16914253  1
  H+  H80  1  0.47311573  0.47189843  0.36728271  1
  H+  H81  1  -0.03449959  0.59655327  0.82623784  1
  H+  H82  1  0.22830638  0.61692061  0.65811239  1
  H+  H83  1  1.01962166  0.13205133  0.50264243  1
  H+  H84  1  0.12175108  0.74871277  0.82313762  1
  H+  H85  1  0.91278675  0.46020372  0.70993878  1
  H+  H86  1  0.34940826  0.86418871  0.33656845  1
  H+  H87  1  0.64334558  0.77882363  0.17499328  1
  H+  H88  1  0.35807757  0.64026429  0.14570051  1
  H+  H89  1  0.75278072  0.90707785  0.81763875  1
  H+  H90  1  0.63045320  1.02525484  0.32551633  1
  H+  H91  1  0.86011417  0.10780058  -0.01035355  1
  H+  H92  1  0.86303558  0.62874711  0.34837668  1
  H+  H93  1  0.38973626  0.52549045  0.66483143  1
  H+  H94  1  0.86863509  0.35746534  0.31491884  1
  H+  H95  1  0.74296866  0.37170133  0.66141172  1
  H+  H96  1  0.13746441  0.61638624  0.65637022  1
  H+  H97  1  0.64176597  0.78059860  0.51393275  1
  H+  H98  1  0.69454254  0.36868602  0.31531743  1
  H+  H99  1  0.73586905  0.11438433  0.50610901  1
  H+  H100  1  0.61993973  0.14175794  0.66966089  1
  H+  H101  1  1.03176832  0.15019147  0.68228671  1
  H+  H102  1  0.63322353  0.11845919  0.99681174  1
  H+  H103  1  0.60490259  0.88903852  0.34445227  1
  H+  H104  1  0.88726426  0.36513901  0.66023675  1
  H+  H105  1  0.52341953  0.64020915  0.16417475  1
  H+  H106  1  0.10577547  0.87050666  0.81395609  1
  H+  H107  1  0.13550326  0.60907809  0.00840049  1
  H+  H108  1  0.22733769  0.11328605  0.48234398  1
  H+  H109  1  0.59661523  0.13630140  0.10730229  1
  H+  H110  1  0.10608295  0.71918297  0.34219748  1
  H+  H111  1  0.47217578  0.34631434  0.32246695  1
  H+  H112  1  0.12148666  0.72942847  0.49792255  1
  H+  H113  1  0.88522352  0.86899276  0.18036969  1
  H+  H114  1  0.86375422  0.88765177  0.66369047  1
  H+  H115  1  0.85977145  0.23157164  0.00471106  1
  H+  H116  1  0.88750725  0.85639494  0.50330401  1
  H+  H117  1  0.12393161  0.23271195  0.82926210  1
  H+  H118  1  0.86085203  0.96739628  0.48431325  1
  H+  H119  1  0.28824061  0.29602732  0.34449040  1
  H+  H120  1  0.10418243  0.62609535  0.81505998  1
  H+  H121  1  0.39724925  0.11306593  0.16955506  1
  H+  H122  1  0.35834721  0.63687862  0.82665895  1
  H+  H123  1  0.63854948  0.02396956  0.65889102  1
  H+  H124  1  0.89197309  0.84921158  0.98627594  1
  H+  H125  1  0.61225632  0.36989186  0.17612024  1
  H+  H126  1  0.41398461  0.55807767  0.30922683  1
  H+  H127  1  0.17991149  0.07655260  0.24601788  1
  H+  H128  1  0.72729656  0.86875507  0.66276353  1
  H+  H129  1  0.74165108  0.86373215  1.01590589  1
  H+  H130  1  0.85189313  0.12841435  0.82247293  1
  H+  H131  1  0.37611714  0.22491757  0.82822647  1
  H+  H132  1  0.86632139  0.48143033  0.15963437  1
  H+  H133  1  0.51157424  0.13755644  0.50310746  1
  H+  H134  1  0.62405141  0.59068480  0.83096099  1
  H+  H135  1  0.11774838  0.38459494  0.00495228  1
  H+  H136  1  0.36435193  0.20701379  0.33799392  1
  H+  H137  1  0.84882171  -0.03218579  0.34069387  1
  H+  H138  1  0.39043729  0.36049106  0.66095507  1
  H+  H139  1  0.37480130  0.74569589  0.32535026  1
  H+  H140  1  0.39875234  0.02686813  1.00600871  1
  H+  H141  1  0.39857025  0.53313412  0.51249344  1
  H+  H142  1  0.70334704  0.85164415  0.33157230  1
  H+  H143  1  0.11440319  0.38424063  0.16106495  1
  H+  H144  1  0.59721114  0.22677455  0.33970350  1
  H+  H145  1  0.39202161  0.87172936  0.22119013  1
  H+  H146  1  0.11589939  0.87961805  0.49474313  1
  H+  H147  1  0.63370176  0.36002644  -0.02593832  1
  H+  H148  1  0.40146981  0.59506717  0.21369166  1
  H+  H149  1  0.13582968  0.39818980  0.83000686  1
  H+  H150  1  0.64553614  0.86972682  0.17804845  1
  H+  H151  1  0.71022062  0.15267570  0.16518645  1
  H+  H152  1  0.97463314  0.86562597  0.18161153  1
  H+  H153  1  0.12661513  0.11086234  0.65804359  1
  H+  H154  1  0.26478685  0.87836996  0.82854800  1
  H+  H155  1  0.10822237  0.13308218  0.48909013  1
  H+  H156  1  0.84457133  0.13905572  0.15487627  1
  H+  H157  1  0.38654572  0.86479379  0.66624847  1
  H+  H158  1  0.14885036  0.52719509  0.00497338  1
  H+  H159  1  0.65405664  0.28241557  0.66195166  1
  H+  H160  1  0.13608588  0.61273442  0.16878181  1
  H+  H161  1  0.28090919  0.38878003  0.67627932  1
  H+  H162  1  0.88941244  0.36506889  0.99042615  1
  H+  H163  1  0.27345329  0.40536163  -0.00859893  1
  H+  H164  1  0.11156735  0.98975314  0.03212336  1
  H+  H165  1  0.17500019  0.33746004  0.60232074  1
  H+  H166  1  0.86590784  0.23260294  0.49490055  1
  H+  H167  1  0.87784633  0.59858038  0.83180319  1
  H+  H168  1  0.77457506  0.38196652  0.49454985  1
  H+  H169  1  0.88256993  0.71627615  -0.00019796  1
  H+  H170  1  0.53066816  0.64267451  0.01265368  1
  H+  H171  1  -0.02393402  0.60351352  0.33320654  1
  H+  H172  1  0.83513046  0.92167549  0.11237595  1
  H+  H173  1  0.86840929  0.99195015  0.00610108  1
  H+  H174  1  0.77966188  0.38877086  0.14683232  1
  H+  H175  1  0.61312730  0.47704530  0.50120126  1
  H+  H176  1  0.23411018  0.86955959  0.50723590  1
  H+  H177  1  0.10866379  0.87802977  0.16962876  1
  H+  H178  1  0.32924831  0.66714051  0.73311785  1
  H+  H179  1  0.89511239  0.37010406  0.17053682  1
  H+  H180  1  0.11232485  0.72212142  0.16238028  1
  H+  H181  1  0.60094675  0.99088585  0.83278612  1
  H+  H182  1  0.76560889  0.13696904  0.34123075  1
  H+  H183  1  0.85973709  0.04641071  0.55285098  1
  H+  H184  1  0.62876385  0.60274640  0.18623228  1
  H+  H185  1  0.62206990  0.64308792  0.50871646  1
  H+  H186  1  1.02151010  0.63610318  0.65907890  1
  H+  H187  1  0.88188188  0.76870933  0.65898703  1
  H+  H188  1  0.28640812  0.39978512  0.48962951  1
  H+  H189  1  0.11351383  0.96792247  0.48524309  1
  H+  H190  1  0.51368640  0.37525302  0.81362063  1
  H+  H191  1  0.12661349  0.61585629  0.51004707  1
  H+  H192  1  0.47369053  0.36035981  0.17951996  1
  H+  H193  1  0.17478980  0.34506424  0.32174456  1
  H+  H194  1  0.41531077  0.07235595  0.59503211  1
  H+  H195  1  0.86336748  0.71809003  0.49683854  1
  H+  H196  1  0.80968856  0.41285425  0.25925843  1
  H+  H197  1  0.87804518  0.87451979  0.32919350  1
  H+  H198  1  0.11305028  0.47396170  0.67072734  1
  H+  H199  1  0.52012896  0.88907113  0.67340388  1
  H+  H200  1  0.13772346  0.86548402  0.65746448  1
  H+  H201  1  0.72286297  0.12126572  0.99397943  1
  H+  H202  1  0.88426398  0.36139844  0.50846677  1
  H+  H203  1  0.62769834  0.27394230  0.50676216  1
  H+  H204  1  0.21955803  0.13205180  1.03358364  1
  H+  H205  1  0.88839547  0.12438001  0.66741980  1
  H+  H206  1  0.90918394  1.03631103  0.82936284  1
  H+  H207  1  0.98729830  0.86699048  0.99575979  1
  H+  H208  1  0.10452969  0.97419858  0.66416029  1
  H+  H209  1  -0.03897810  0.36835871  0.33013444  1
  H+  H210  1  0.97554238  0.87266369  0.33077535  1
  H+  H211  1  0.14541629  0.88176263  1.01625902  1
  H+  H212  1  0.65562941  0.63793918  -0.01451680  1
  H+  H213  1  0.11463107  0.96968818  0.17423282  1
  H+  H214  1  0.39019893  0.53960926  0.98742664  1
  H+  H215  1  0.90465789  0.08149090  0.89147017  1
  H+  H216  1  0.32706171  0.33491589  0.35717638  1
  H+  H217  1  0.62780016  0.50401969  0.82896173  1
  H+  H218  1  0.36217978  0.12684243  0.67270255  1
  H+  H219  1  0.38098180  0.38183488  0.83018067  1
  H+  H220  1  0.52109416  0.89841642  0.33780291  1
  H+  H221  1  0.36277875  0.21509253  0.67414850  1
  H+  H222  1  0.27681335  0.39871045  0.13484669  1
  H+  H223  1  0.16031293  0.58211019  0.57389929  1
  H+  H224  1  0.87160371  0.10148444  0.33767898  1
  H+  H225  1  0.35760013  0.67518376  0.42915539  1
  H+  H226  1  0.38730046  0.63109437  0.30598851  1
  H+  H227  1  0.58659012  0.45298812  -0.06725163  1
  H+  H228  1  0.39258214  0.37035543  0.16049990  1
  H+  H229  1  0.85780695  0.71485278  0.82375816  1
  H+  H230  1  0.62164051  0.39037809  0.66530115  1
  H+  H231  1  0.63549773  0.52160394  0.65935885  1
  H+  H232  1  0.62672290  0.89634855  0.48995387  1
  H+  H233  1  0.39929970  0.62282926  0.50712517  1
  H+  H234  1  0.78961408  0.63976838  0.99262321  1
  H+  H235  1  0.72530347  0.36510429  0.98754414  1
  H+  H236  1  0.13699003  0.52914166  0.83460366  1
  H+  H237  1  0.83181847  0.17303548  0.43372508  1
  H+  H238  1  0.61984324  0.72793178  0.02581024  1
  H+  H239  1  0.35924153  0.39755576  -0.01011445  1
  H+  H240  1  0.35301513  0.96964037  0.83529496  1
  H+  H241  1  0.90925348  0.90738656  0.81532118  1
  H+  H242  1  0.12253618  0.12393077  0.17072447  1
  H+  H243  1  0.52530204  0.14454221  1.01903868  1
  H+  H244  1  0.89234500  0.61103245  0.50095243  1
  H+  H245  1  0.77209823  0.88122755  0.49421106  1
  H+  H246  1  0.92180274  0.57372270  0.92427562  1
  H+  H247  1  0.86817880  0.97989984  0.66611409  1
  H+  H248  1  0.38701155  0.77560873  0.66607322  1
  H+  H249  1  0.24387780  0.13968328  0.87237167  1
  H+  H250  1  0.64089986  1.00492701  0.49822709  1
  H+  H251  1  0.09111443  0.23706062  0.98824589  1
  H+  H252  1  0.86022360  0.72189672  0.18092022  1
  H+  H253  1  0.63574078  0.61196924  0.66135630  1
  H+  H254  1  0.18279675  0.31971476  1.02600272  1
  H+  H255  1  0.11665347  0.38723676  0.67032549  1
  H+  H256  1  0.86700450  0.47747044  -0.00316628  1
  H+  H257  1  0.10762670  -0.03171666  0.34675158  1
  H+  H258  1  0.71281817  0.35032656  0.82878757  1
  H+  H259  1  0.16198034  0.07658239  0.42821706  1
  H+  H260  1  0.54210693  0.90408687  0.18390881  1
  H+  H261  1  0.61335856  0.38732692  0.49711305  1
  H+  H262  1  0.87633994  0.11439030  0.50154789  1
  H+  H263  1  0.85600151  0.23194826  0.15831774  1
  H+  H264  1  0.60325281  0.90535522  0.82497912  1
  H+  H265  1  0.97907077  0.84735042  0.82926649  1
  H+  H266  1  0.26118999  0.45900411  0.34621494  1
  H+  H267  1  0.47475250  0.36148643  0.50860052  1
  H+  H268  1  0.02194357  0.63558962  0.00250922  1
  H+  H269  1  0.52879346  0.61369153  0.37152369  1
  H+  H270  1  0.01689963  0.38877474  0.50024823  1
  H+  H271  1  0.28585809  0.80752610  0.38760068  1
  H+  H272  1  0.12586009  0.85365186  0.32901137  1
  H+  H273  1  0.67843735  0.60618657  0.92340813  1
  H+  H274  1  0.36950506  0.85576803  0.85339407  1
  H+  H275  1  0.84688564  0.21595449  0.82608702  1
  H+  H276  1  0.47589899  0.10674277  0.65653043  1
  H+  H277  1  0.97709298  0.85674033  0.50582774  1
  H+  H278  1  0.12274813  0.13962027  0.10227798  1
  H+  H279  1  0.36547451  0.72237202  0.49195025  1
  H+  H280  1  0.01970465  0.88157756  0.66634530  1
  H+  H281  1  0.96994019  0.11683896  0.15865590  1
  H+  H282  1  0.22502217  0.85785623  0.18154895  1
  H+  H283  1  0.46758286  0.10443747  0.33436198  1
  H+  H284  1  0.25037542  0.15585697  -0.05865137  1
  H+  H285  1  0.91761768  0.95217033  0.04048172  1
  H+  H286  1  0.26582162  0.67208375  1.00862697  1
  H+  H287  1  0.64401491  0.62288248  0.34465652  1
  H+  H288  1  0.82767032  0.16576899  0.73380006  1
  H+  H289  1  0.38706950  0.32125836  0.92805265  1
  H+  H290  1  0.13819017  0.27942710  0.50615737  1
  H+  H291  1  0.66555484  0.58854734  0.28272536  1
  H+  H292  1  0.82304567  0.17277244  0.06510954  1
  H+  H293  1  0.32532187  0.16506828  0.09746359  1
  H+  H294  1  0.97490472  0.61054474  0.17657462  1
  H+  H295  1  0.67078610  0.58361946  0.56964154  1
  H+  H296  1  0.09612469  0.18009575  0.73855183  1
  H+  H297  1  0.07749212  0.91559603  0.08037643  1
  H+  H298  1  0.08713844  0.66341188  0.40312639  1
  H+  H299  1  0.10422645  0.48196348  0.34140870  1
  H+  H300  1  0.58604518  0.65893173  0.10927522  1
  H+  H301  1  0.13262867  0.79712329  0.88489935  1
  H+  H302  1  0.67321571  0.82561241  0.96273343  1
  H+  H303  1  0.88252606  0.93941435  0.75598377  1
  H+  H304  1  0.81924632  0.40255773  0.75808388  1
  H+  H305  1  0.36520802  0.87399170  0.03106379  1
  H+  H306  1  0.60530831  0.37761020  0.81371716  1
  H+  H307  1  0.41588656  0.58515102  0.89469241  1
  H+  H308  1  0.35629255  0.11525228  0.34453172  1
  H+  H309  1  0.33891254  0.16349829  0.43684767  1
  H+  H310  1  0.86483941  0.46863760  0.49230382  1
  H+  H311  1  0.89941516  0.31982049  0.89435848  1
  H+  H312  1  0.40489032  0.47890997  0.40829752  1
  H+  H313  1  0.58889616  0.92855897  0.11924150  1
  H+  H314  1  0.92190780  0.58115335  0.55966238  1
  H+  H315  1  0.58334971  0.41303767  0.72352846  1
  H+  H316  1  0.56521512  0.42552778  0.41149114  1
  H+  H317  1  0.07828525  0.66272239  0.10260266  1
  H+  H318  1  0.45973038  0.86209159  0.85743905  1
  H+  H319  1  0.72967814  0.61130072  0.50927175  1
  H+  H320  1  0.67340082  0.07688336  0.56694835  1
  H+  H321  1  0.77596690  0.63192065  0.35031904  1
  H+  H322  1  0.40049567  0.82409189  0.56954620  1
  H+  H323  1  0.20870361  0.10340710  0.64686732  1
  H+  H324  1  0.88212625  0.03168064  0.16885866  1
  H+  H325  1  0.46806339  0.32388739  0.88213165  1
  H+  H326  1  0.33483296  0.92501940  0.44460922  1
  H+  H327  1  0.67125927  0.84519715  0.56977871  1
  H+  H328  1  0.33307711  0.91910530  0.73371741  1
  H+  H329  1  0.19832206  0.87391545  0.96238711  1
  H+  H330  1  0.95702888  0.09504022  0.33888438  1
  H+  H331  1  0.18019336  0.33341115  0.90695889  1
  H+  H332  1  0.60118782  0.48928570  0.35250049  1
  H+  H333  1  0.11561644  0.30485875  0.26521624  1
  H+  H334  1  0.41306997  0.32966107  0.56665974  1
  H+  H335  1  0.66789031  0.83346026  0.86127967  1
  H+  H336  1  0.09967490  0.41976975  0.77052805  1
  H+  H337  1  0.94196246  0.11782802  0.61184292  1
  H+  H338  1  0.91813712  0.33519804  0.23102358  1
  H+  H339  1  0.65302993  0.47038567  0.07674069  1
  H+  H340  1  0.42011757  0.08001621  0.94445447  1
  H+  H341  1  0.33838646  0.14795297  0.00773536  1
  H+  H342  1  0.40105438  0.63450304  0.98655103  1
  H+  H343  1  0.65625658  0.08987102  0.26856786  1
  H+  H344  1  0.04664134  0.17777579  0.04505954  1
  H+  H345  1  0.83919457  0.42259478  0.05836438  1
  H+  H346  1  0.92405684  0.82325751  0.89077372  1
  H+  H347  1  0.66243322  0.08850653  0.90205364  1
  H+  H348  1  0.07230359  0.90123838  0.40218772  1
  H+  H349  1  0.57729062  0.65779807  0.76230802  1
  H+  H350  1  0.21126706  0.84434234  0.33060885  1
  H+  H351  1  0.07714344  0.90784716  0.75921162  1
  H+  H352  1  0.92234768  0.58486785  0.27111985  1
  H+  H353  1  0.15730965  0.82228416  0.23556753  1
  H+  H354  1  0.34234821  0.90665526  0.12720994  1
  H+  H355  1  0.07290877  0.65552068  0.75391916  1
  H+  H356  1  0.08220690  0.41423108  0.06166074  1
  H+  H357  1  0.37131905  0.39333446  0.49659987  1
  H+  H358  1  0.34131889  0.41308882  0.73527375  1
  H+  H359  1  0.60951596  0.36547703  0.33971233  1
  H+  H360  1  0.47860378  0.35941427  0.65560421  1
  H+  H361  1  0.07051620  0.15772080  0.40574610  1
  H+  H362  1  0.84522926  0.45954054  0.81854703  1
  H+  H363  1  0.66685535  0.26110653  0.16978507  1
  H+  H364  1  0.33922217  0.43238027  0.07828497  1
  H+  H365  1  0.32452579  0.69413376  0.09291102  1
  H+  H366  1  0.41156999  0.07502477  0.27479650  1
  H+  H367  1  0.58510947  0.16633014  0.72890656  1
  H+  H368  1  0.91720464  0.84625908  0.26423274  1
  H+  H369  1  0.59250908  0.92961667  0.43086777  1
  H+  H370  1  0.60993885  0.43154222  0.07079340  1
  H+  H371  1  0.57597965  0.92599787  0.73335741  1
  H+  H372  1  0.38045771  0.10563684  0.84706612  1
  H+  H373  1  0.59395009  0.67316233  0.42097655  1
  H+  H374  1  0.16833643  0.58514578  0.26702447  1
  H+  H375  1  0.07506725  0.42498462  0.44000068  1
  H+  H376  1  0.41484549  0.31187488  0.26207822  1
  H+  H377  1  0.76698799  0.62524814  0.82282636  1
  H+  H378  1  0.82145901  0.90036738  0.39624467  1
  H+  H379  1  0.41801289  0.58680173  0.60554046  1
  H+  H380  1  0.84932717  0.47278881  0.31543547  1
  H+  H381  1  0.91505136  0.33053955  0.56858062  1
  H+  H382  1  0.37950674  0.78310338  0.95108038  1
  H+  H383  1  0.17084296  0.83428314  0.56546067  1
  O2-  O384  1  0.10346708  0.15382392  0.14154428  1
  O2-  O385  1  0.07720887  0.16627533  0.48466641  1
  O2-  O386  1  0.09049448  0.17664053  0.80810970  1
  O2-  O387  1  0.08812149  0.41804430  0.14800084  1
  O2-  O388  1  0.07871125  0.42403812  0.48530266  1
  O2-  O389  1  0.10912341  0.43106193  0.81445211  1
  O2-  O390  1  0.08135042  0.66093029  0.14809772  1
  O2-  O391  1  0.09086297  0.66768850  0.48336398  1
  O2-  O392  1  0.06961937  0.65424129  0.79918910  1
  O2-  O393  1  0.07846194  0.91025180  0.15775985  1
  O2-  O394  1  0.08070004  0.90466213  0.47801602  1
  O2-  O395  1  0.07331510  0.89979763  0.80411270  1
  O2-  O396  1  0.33260896  0.15957459  0.14310836  1
  O2-  O397  1  0.32951985  0.16320042  0.48169093  1
  O2-  O398  1  0.33957040  0.16102625  0.81843443  1
  O2-  O399  1  0.33796425  0.43109354  0.12457052  1
  O2-  O400  1  0.34869642  0.43062971  0.48042453  1
  O2-  O401  1  0.34527208  0.40675082  0.81522727  1
  O2-  O402  1  0.32186984  0.67155666  0.13585927  1
  O2-  O403  1  0.35257120  0.66617149  0.47348527  1
  O2-  O404  1  0.33183001  0.67019327  0.81064094  1
  O2-  O405  1  0.33332895  0.90899098  0.17162498  1
  O2-  O406  1  0.33039917  0.92388125  0.48901322  1
  O2-  O407  1  0.32684567  0.90980669  0.81809694  1
  O2-  O408  1  0.58548535  0.10656784  0.14753290  1
  O2-  O409  1  0.57139072  0.17858863  0.48673241  1
  O2-  O410  1  0.56979387  0.15628395  0.80795171  1
  O2-  O411  1  0.58513128  0.39499394  0.20157484  1
  O2-  O412  1  0.58037681  0.41712067  0.48496419  1
  O2-  O413  1  0.57781783  0.40986311  0.79732552  1
  O2-  O414  1  0.58422704  0.66014724  0.15483789  1
  O2-  O415  1  0.59391501  0.67705328  0.49621929  1
  O2-  O416  1  0.56936033  0.64398375  0.80718454  1
  O2-  O417  1  0.59821987  0.92851421  0.16394943  1
  O2-  O418  1  0.60257998  0.93328312  0.47651005  1
  O2-  O419  1  0.56602909  0.92896927  0.81687189  1
  O2-  O420  1  0.81564839  0.17259885  0.14364836  1
  O2-  O421  1  0.83484745  0.17130503  0.47942837  1
  O2-  O422  1  0.81666757  0.15478275  0.80881499  1
  O2-  O423  1  0.84313555  0.42192076  0.14233673  1
  O2-  O424  1  0.83574284  0.40682776  0.48186147  1
  O2-  O425  1  0.81155226  0.39890490  0.80391345  1
  O2-  O426  1  0.83410974  0.66044710  0.17077905  1
  O2-  O427  1  0.83217703  0.65671568  0.48416803  1
  O2-  O428  1  0.82726271  0.65434421  0.80755194  1
  O2-  O429  1  0.83577352  0.91961858  0.15704149  1
  O2-  O430  1  0.83029029  0.90551936  0.47437152  1
  O2-  O431  1  0.91316655  0.95852904  0.79510055  1
  O2-  O432  1  0.17576194  0.07364866  0.20106325  1
  O2-  O433  1  0.16285451  0.07926871  0.47275660  1
  O2-  O434  1  0.20898695  0.13640773  0.90785482  1
  O2-  O435  1  0.16446272  0.30982306  0.18730456  1
  O2-  O436  1  0.17180469  0.34027693  0.51941383  1
  O2-  O437  1  0.18078052  0.33479963  0.86192879  1
  O2-  O438  1  0.17189696  0.58667902  0.18249426  1
  O2-  O439  1  0.15207370  0.57857249  0.52664487  1
  O2-  O440  1  0.15689484  0.59115412  0.84421579  1
  O2-  O441  1  0.16150143  0.82557241  0.19009634  1
  O2-  O442  1  0.17046304  0.83249948  0.51993362  1
  O2-  O443  1  0.15289635  0.80846122  0.84311364  1
  O2-  O444  1  0.42105869  0.08020637  0.19031703  1
  O2-  O445  1  0.41545333  0.07188021  0.52965340  1
  O2-  O446  1  0.40845510  0.07218810  0.86291127  1
  O2-  O447  1  0.41002176  0.33217999  0.18035733  1
  O2-  O448  1  0.41285411  0.33183395  0.52090949  1
  O2-  O449  1  0.43251018  0.32474976  0.84866754  1
  O2-  O450  1  0.40260568  0.59810728  0.16651922  1
  O2-  O451  1  0.42778806  0.59295096  0.52875929  1
  O2-  O452  1  0.40743319  0.57700854  0.84998152  1
  O2-  O453  1  0.43066507  0.85077040  0.23570094  1
  O2-  O454  1  0.38818134  0.81509505  0.52558311  1
  O2-  O455  1  0.39957313  0.82597379  0.87100869  1
  O2-  O456  1  0.66343479  0.16044979  0.18403342  1
  O2-  O457  1  0.67555971  0.07509903  0.52089967  1
  O2-  O458  1  0.65945609  0.08484049  0.85639714  1
  O2-  O459  1  0.66818539  0.31056516  0.14822636  1
  O2-  O460  1  0.66588033  0.33742274  0.51888858  1
  O2-  O461  1  0.65226526  0.32103632  0.84535135  1
  O2-  O462  1  0.66148650  0.57790718  0.20641438  1
  O2-  O463  1  0.66848923  0.58362790  0.52403830  1
  O2-  O464  1  0.65661384  0.56381088  0.84739017  1
  O2-  O465  1  0.67855952  0.83949961  0.18694193  1
  O2-  O466  1  0.67332638  0.84372009  0.52427661  1
  O2-  O467  1  0.62481699  0.78688990  0.88663513  1
  O2-  O468  1  0.90935047  0.09534779  0.16787389  1
  O2-  O469  1  0.89845880  0.07636338  0.51901546  1
  O2-  O470  1  0.91535674  0.09096373  0.84722660  1
  O2-  O471  1  0.92322830  0.33754450  0.18563165  1
  O2-  O472  1  0.91756229  0.33187321  0.52272229  1
  O2-  O473  1  0.88914937  0.30999305  0.85014625  1
  O2-  O474  1  0.91572618  0.57824410  0.19378426  1
  O2-  O475  1  0.92691880  0.58376745  0.51407677  1
  O2-  O476  1  0.90672100  0.56580431  0.84472155  1
  O2-  O477  1  0.91469043  0.83828618  0.19814753  1
  O2-  O478  1  0.91635967  0.82621780  0.52067807  1
  O2-  O479  1  0.91764420  0.81878390  0.84606540  1
  O2-  O480  1  0.16735804  0.07564140  0.33033183  1
  O2-  O481  1  0.14703937  0.07510243  0.63717185  1
  O2-  O482  1  0.15228534  0.09883267  1.04200505  1
  O2-  O483  1  0.11428466  0.30954924  0.31004214  1
  O2-  O484  1  0.17557572  0.33968354  0.64744266  1
  O2-  O485  1  0.16666933  0.33734204  0.98873515  1
  O2-  O486  1  0.16850270  0.58350126  0.31210511  1
  O2-  O487  1  0.16797762  0.58574077  0.64131318  1
  O2-  O488  1  0.17903576  0.59133384  1.00264860  1
  O2-  O489  1  0.15205813  0.82020236  0.31283958  1
  O2-  O490  1  0.16763309  0.83361952  0.64411358  1
  O2-  O491  1  0.17767081  0.85173991  1.00303398  1
  O2-  O492  1  0.40711089  0.07174870  0.31949483  1
  O2-  O493  1  0.41508595  0.07301314  0.64402761  1
  O2-  O494  1  0.42469020  0.08567199  0.98965916  1
  O2-  O495  1  0.42949935  0.29449715  0.30062894  1
  O2-  O496  1  0.41681599  0.32794418  0.64327946  1
  O2-  O497  1  0.39372872  0.33144294  0.97261041  1
  O2-  O498  1  0.40815058  0.59792632  0.28166166  1
  O2-  O499  1  0.41794987  0.58688721  0.65128990  1
  O2-  O500  1  0.42843144  0.60139969  0.97457174  1
  O2-  O501  1  0.42368607  0.84899905  0.30326537  1
  O2-  O502  1  0.41945580  0.83646231  0.65200024  1
  O2-  O503  1  0.39180754  0.76230361  0.98987045  1
  O2-  O504  1  0.66200521  0.08770557  0.31272960  1
  O2-  O505  1  0.67043265  0.08291094  0.64077130  1
  O2-  O506  1  0.66192144  0.08865993  0.97888099  1
  O2-  O507  1  0.63100238  0.33744895  0.31185082  1
  O2-  O508  1  0.68329773  0.34293249  0.64646751  1
  O2-  O509  1  0.66516558  0.32746944  0.97286688  1
  O2-  O510  1  0.66829346  0.58730408  0.32823036  1
  O2-  O511  1  0.66770646  0.58363402  0.64619942  1
  O2-  O512  1  0.70236028  0.63862740  0.96139350  1
  O2-  O513  1  0.64070193  0.82704031  0.33034727  1
  O2-  O514  1  0.66580658  0.83735693  0.64891404  1
  O2-  O515  1  0.67986002  0.83570648  1.00694531  1
  O2-  O516  1  0.89626312  0.06499659  0.32590509  1
  O2-  O517  1  0.92197176  0.09584229  0.65267232  1
  O2-  O518  1  0.88898922  0.07667490  0.97281581  1
  O2-  O519  1  0.90499222  0.33034236  0.30966261  1
  O2-  O520  1  0.91330351  0.32802527  0.64495071  1
  O2-  O521  1  0.91641792  0.33116579  0.97658224  1
  O2-  O522  1  0.91663843  0.57741112  0.31642012  1
  O2-  O523  1  0.91593810  0.57960647  0.63577642  1
  O2-  O524  1  0.92471452  0.57607474  0.96961644  1
  O2-  O525  1  0.91615402  0.84877096  0.31196497  1
  O2-  O526  1  0.91113898  0.82935567  0.64379543  1
  O2-  O527  1  0.93181899  0.82975043  0.97409713  1
  O2-  O528  1  0.05113614  0.17447648  0.00112357  1
  O2-  O529  1  0.07073865  0.15070912  0.36062084  1
  O2-  O530  1  0.09382719  0.17943665  0.69151395  1
  O2-  O531  1  0.08479193  0.41635786  0.01684867  1
  O2-  O532  1  0.06580413  0.42386510  0.36000248  1
  O2-  O533  1  0.08227361  0.41361128  0.68483416  1
  O2-  O534  1  0.07853580  0.66568102  0.02475624  1
  O2-  O535  1  0.08255664  0.65906623  0.35790367  1
  O2-  O536  1  0.08182610  0.66490652  0.67524478  1
  O2-  O537  1  0.08446000  0.92541577  0.03528230  1
  O2-  O538  1  0.07099614  0.90566681  0.35642173  1
  O2-  O539  1  0.08098559  0.91348313  0.67940652  1
  O2-  O540  1  0.31375902  0.18136785  0.02437877  1
  O2-  O541  1  0.32841995  0.15008986  0.35894121  1
  O2-  O542  1  0.33006745  0.15495286  0.68861542  1
  O2-  O543  1  0.33624217  0.43593409  0.00419646  1
  O2-  O544  1  0.44125930  0.50319867  0.37156219  1
  O2-  O545  1  0.34215045  0.41868350  0.68994931  1
  O2-  O546  1  0.31298618  0.73047785  0.02686220  1
  O2-  O547  1  0.34764219  0.68549446  0.34306487  1
  O2-  O548  1  0.32864604  0.66651983  0.68749338  1
  O2-  O549  1  0.34676847  0.91376237  0.04539774  1
  O2-  O550  1  0.30210445  0.85957073  0.36425683  1
  O2-  O551  1  0.33251927  0.91604148  0.68869142  1
  O2-  O552  1  0.58612482  0.17686008  0.03491693  1
  O2-  O553  1  0.57366100  0.16853325  0.35729869  1
  O2-  O554  1  0.59204545  0.17433130  0.68387898  1
  O2-  O555  1  0.56636843  0.40072197  -0.04334976  1
  O2-  O556  1  0.55495017  0.43079163  0.36696601  1
  O2-  O557  1  0.58662913  0.41701403  0.67757345  1
  O2-  O558  1  0.58767607  0.66447152  0.03217928  1
  O2-  O559  1  0.58681973  0.66493839  0.37562972  1
  O2-  O560  1  0.58396274  0.66806080  0.68724167  1
  O2-  O561  1  0.59080234  0.92696204  0.03907923  1
  O2-  O562  1  0.58039417  0.92732796  0.35660027  1
  O2-  O563  1  0.58153367  0.92123179  0.68892300  1
  O2-  O564  1  0.82405283  0.17062860  0.01964720  1
  O2-  O565  1  0.82550087  0.16638540  0.35785640  1
  O2-  O566  1  0.83194095  0.16698368  0.68791279  1
  O2-  O567  1  0.83290098  0.41703329  0.01355447  1
  O2-  O568  1  0.80946774  0.41071215  0.30361891  1
  O2-  O569  1  0.85945137  0.42756516  0.68711815  1
  O2-  O570  1  0.84725269  0.65446942  0.00896027  1
  O2-  O571  1  0.83536139  0.65919729  0.36669783  1
  O2-  O572  1  0.83445315  0.66280190  0.68353837  1
  O2-  O573  1  0.86014497  0.93667304  0.02669921  1
  O2-  O574  1  0.82268143  0.90369761  0.35087849  1
  O2-  O575  1  0.83465839  0.91916107  0.67934810  1
