# generated using pymatgen
data_H2O
_symmetry_space_group_name_H-M   'P 1'
_cell_length_a   17.98884404
_cell_length_b   17.99725112
_cell_length_c   22.00555786
_cell_angle_alpha   90.01065152
_cell_angle_beta   89.99339804
_cell_angle_gamma   120.01660820
_symmetry_Int_Tables_number   1
_chemical_formula_structural   H2O
_chemical_formula_sum   'H384 O192'
_cell_volume   6168.78642300
_cell_formula_units_Z   192
loop_
 _symmetry_equiv_pos_site_id
 _symmetry_equiv_pos_as_xyz
  1  'x, y, z'
loop_
 _atom_type_symbol
 _atom_type_oxidation_number
  H+  1.0
  O2-  -2.0
loop_
 _atom_site_type_symbol
 _atom_site_label
 _atom_site_symmetry_multiplicity
 _atom_site_fract_x
 _atom_site_fract_y
 _atom_site_fract_z
 _atom_site_occupancy
  H+  H0  1  0.61464116  0.14416013  0.15961401  1
  H+  H1  1  0.11701897  0.96806024  0.69625611  1
  H+  H2  1  0.89148989  0.13354444  0.00675550  1
  H+  H3  1  0.73906033  0.13192210  0.17604878  1
  H+  H4  1  0.84208955  0.15766310  0.10031799  1
  H+  H5  1  0.38141843  0.62064911  0.17279338  1
  H+  H6  1  0.63322636  0.36077162  0.30360210  1
  H+  H7  1  0.72817755  0.10220935  0.84888795  1
  H+  H8  1  0.38956870  1.01028389  0.80654386  1
  H+  H9  1  0.75222812  0.63944981  0.31192615  1
  H+  H10  1  0.38152262  0.89197180  0.48988987  1
  H+  H11  1  0.90853667  0.52885378  1.00317821  1
  H+  H12  1  0.11807192  0.88301437  0.00573068  1
  H+  H13  1  0.87373231  0.72575928  0.83831689  1
  H+  H14  1  0.90064246  0.53236864  0.83485644  1
  H+  H15  1  0.88470118  0.27536763  0.65585493  1
  H+  H16  1  0.38510954  0.78322351  0.99269894  1
  H+  H17  1  0.36696639  0.60102411  0.69305664  1
  H+  H18  1  0.23296786  0.86788242  0.17459921  1
  H+  H19  1  0.52841886  0.88445084  0.00020021  1
  H+  H20  1  0.23791243  0.85807353  0.50422344  1
  H+  H21  1  0.35957252  0.47445180  0.48996299  1
  H+  H22  1  0.62347263  0.52314222  0.16807923  1
  H+  H23  1  0.16482578  0.54638490  0.32532284  1
  H+  H24  1  0.39207102  0.27256029  0.48934158  1
  H+  H25  1  0.46202226  0.49603467  0.61634957  1
  H+  H26  1  0.14375483  0.51575610  0.99592981  1
  H+  H27  1  0.53854663  0.62625072  0.66136815  1
  H+  H28  1  0.39517902  0.13966866  0.50689906  1
  H+  H29  1  0.74003658  0.61776291  0.66925077  1
  H+  H30  1  0.62464724  0.76858244  0.51026377  1
  H+  H31  1  0.79768988  0.16759797  0.48439358  1
  H+  H32  1  0.53571331  0.90051705  0.68040301  1
  H+  H33  1  0.38772843  0.61752673  0.32527363  1
  H+  H34  1  0.61068748  0.08831190  0.51120572  1
  H+  H35  1  0.71436505  0.35852372  0.32616613  1
  H+  H36  1  0.84935343  0.38925954  0.30626184  1
  H+  H37  1  0.36088398  0.47589727  0.66577260  1
  H+  H38  1  0.12703392  0.86297367  0.32194645  1
  H+  H39  1  0.40094965  0.61987782  0.50094653  1
  H+  H40  1  0.29729377  0.39439619  -0.01614223  1
  H+  H41  1  0.03530429  0.38512399  0.00356337  1
  H+  H42  1  0.61838798  -0.02797418  1.00396373  1
  H+  H43  1  0.52083180  0.91206538  0.83419608  1
  H+  H44  1  0.10686048  0.86232988  0.48699721  1
  H+  H45  1  0.41826359  0.83593665  0.26092774  1
  H+  H46  1  0.30119425  0.12539526  0.48904442  1
  H+  H47  1  0.16767594  0.09023459  0.95662094  1
  H+  H48  1  0.36897708  0.77671869  0.69266669  1
  H+  H49  1  0.28402875  0.65031764  0.33683528  1
  H+  H50  1  0.11565560  0.72778686  0.48837532  1
  H+  H51  1  0.10901786  0.23949769  0.66430420  1
  H+  H52  1  0.62760845  0.09004681  0.32891005  1
  H+  H53  1  0.50790851  0.38111085  0.51002338  1
  H+  H54  1  0.14634746  0.28424254  0.32030357  1
  H+  H55  1  -0.01606340  0.87104995  0.16094434  1
  H+  H56  1  0.51718613  0.64564496  0.33723668  1
  H+  H57  1  0.63592098  0.01325454  0.84782851  1
  H+  H58  1  0.86810637  0.72117570  0.00506522  1
  H+  H59  1  1.01700019  0.13788330  0.32773096  1
  H+  H60  1  0.89518071  0.30381732  0.50776155  1
  H+  H61  1  0.36946972  0.66717732  0.85005149  1
  H+  H62  1  0.39703569  0.78079269  0.32194112  1
  H+  H63  1  0.63856057  0.77292934  0.66575323  1
  H+  H64  1  0.29070176  0.65737288  0.59744369  1
  H+  H65  1  0.21780236  0.37372340  0.65688981  1
  H+  H66  1  0.44251575  0.97018322  0.86701308  1
  H+  H67  1  0.40221235  0.75250344  0.48307007  1
  H+  H68  1  0.38767813  0.52676200  0.32445076  1
  H+  H69  1  0.24265009  0.87910839  0.65086933  1
  H+  H70  1  0.88513181  0.36035090  0.15260924  1
  H+  H71  1  0.60171902  0.87681849  0.15684370  1
  H+  H72  1  1.01924453  0.64478183  0.48941969  1
  H+  H73  1  0.89218304  0.63403228  0.83728560  1
  H+  H74  1  0.49445661  0.60203265  0.82298318  1
  H+  H75  1  0.87252275  0.00956001  0.50296791  1
  H+  H76  1  0.90829193  0.83263883  0.54479047  1
  H+  H77  1  0.47966745  0.10295755  0.32888694  1
  H+  H78  1  -0.00100665  0.13644655  0.49241181  1
  H+  H79  1  0.04178755  0.15495255  0.14782673  1
  H+  H80  1  0.09424864  0.03016811  0.86885803  1
  H+  H81  1  0.64222053  0.36667613  0.66873114  1
  H+  H82  1  0.16054467  0.41497859  0.33986851  1
  H+  H83  1  0.86288122  0.97481252  0.82401781  1
  H+  H84  1  0.86301432  0.52011516  0.17313906  1
  H+  H85  1  -0.01965817  0.59326017  0.64649519  1
  H+  H86  1  0.88547880  0.52221649  0.65808075  1
  H+  H87  1  0.61539446  0.13905141  0.67443787  1
  H+  H88  1  0.39563505  0.87555148  1.00320708  1
  H+  H89  1  0.23333970  0.86819154  0.99552907  1
  H+  H90  1  0.84956669  0.18692941  0.35314215  1
  H+  H91  1  0.62031705  0.89246096  0.68144009  1
  H+  H92  1  0.36197526  0.11196878  0.01675495  1
  H+  H93  1  0.37375565  0.99546977  0.66520692  1
  H+  H94  1  0.47505908  0.85998460  0.16646058  1
  H+  H95  1  0.07639999  0.51581648  0.65146104  1
  H+  H96  1  0.51056948  0.09891278  0.01023733  1
  H+  H97  1  0.59343169  0.62294261  0.16259144  1
  H+  H98  1  0.60952979  0.38303328  0.16175347  1
  H+  H99  1  0.36785200  0.12980727  0.16509688  1
  H+  H100  1  0.22329304  0.11451226  0.64234974  1
  H+  H101  1  0.42010398  0.07812670  0.23376324  1
  H+  H102  1  0.61879799  0.76743637  0.18370873  1
  H+  H103  1  0.22722252  0.31031238  0.01477272  1
  H+  H104  1  0.87289338  0.62498627  0.16813172  1
  H+  H105  1  0.11605511  0.11008353  0.36654941  1
  H+  H106  1  0.00706684  0.87904324  0.32773570  1
  H+  H107  1  0.34624565  0.88225820  0.81758842  1
  H+  H108  1  0.62578697  -0.06441256  0.30913019  1
  H+  H109  1  0.87862604  0.85594588  0.30967843  1
  H+  H110  1  0.53139173  0.38269776  0.01620108  1
  H+  H111  1  0.99301469  0.36893045  0.32498550  1
  H+  H112  1  0.09067938  0.43814191  0.72515450  1
  H+  H113  1  0.57282871  0.64663682  0.72906077  1
  H+  H114  1  0.73180423  0.10399493  0.99849153  1
  H+  H115  1  0.27313552  0.07348727  0.71925748  1
  H+  H116  1  0.91206414  0.83964766  0.75594961  1
  H+  H117  1  0.86796512  0.63228057  1.00573492  1
  H+  H118  1  0.11802807  0.40264926  0.49807244  1
  H+  H119  1  0.41698258  0.09838910  0.83519282  1
  H+  H120  1  0.08973604  0.14315676  0.82491152  1
  H+  H121  1  0.40521872  0.89228709  0.65177137  1
  H+  H122  1  0.39475501  0.53839987  1.00905773  1
  H+  H123  1  0.96340290  0.61532950  0.31618211  1
  H+  H124  1  0.39900907  0.37314826  0.35404721  1
  H+  H125  1  0.62446536  0.47696575  0.83618044  1
  H+  H126  1  -0.03579176  0.11937449  0.82283671  1
  H+  H127  1  0.30899006  0.66744833  0.49490981  1
  H+  H128  1  0.71367055  0.08639971  0.32614982  1
  H+  H129  1  0.34958554  0.11413645  0.67230541  1
  H+  H130  1  0.14423989  0.62445041  0.32128685  1
  H+  H131  1  0.48601717  0.62143477  1.00054167  1
  H+  H132  1  0.47775440  0.12311811  0.66804222  1
  H+  H133  1  0.23563616  0.63421020  0.85501528  1
  H+  H134  1  0.51363423  0.37960152  0.16163565  1
  H+  H135  1  0.13087076  0.04891018  0.61611456  1
  H+  H136  1  0.63881749  0.49812169  0.29318612  1
  H+  H137  1  0.87587095  0.23024444  0.15279055  1
  H+  H138  1  0.54674350  0.40737023  0.57552849  1
  H+  H139  1  0.65158576  0.62000311  0.66738339  1
  H+  H140  1  0.75170319  0.39479968  0.99605857  1
  H+  H141  1  0.76742948  0.62973019  0.48961284  1
  H+  H142  1  0.14349055  0.86903003  0.17200884  1
  H+  H143  1  0.19214592  0.34473093  0.25969315  1
  H+  H144  1  0.87355311  0.11191532  0.83599835  1
  H+  H145  1  0.14021090  0.50509856  0.81871147  1
  H+  H146  1  0.27044280  0.61425822  0.61274726  1
  H+  H147  1  0.35922837  0.88160544  0.16173901  1
  H+  H148  1  0.08786046  0.14252070  0.47745901  1
  H+  H149  1  0.16827513  0.07526888  0.45110020  1
  H+  H150  1  0.64219691  0.02593375  0.66571338  1
  H+  H151  1  0.71800656  0.07682511  0.49467640  1
  H+  H152  1  0.47916115  0.61919489  0.17170340  1
  H+  H153  1  0.11733485  0.73995718  0.83340309  1
  H+  H154  1  0.75584542  0.88180774  0.48712151  1
  H+  H155  1  0.63113762  0.51939805  0.52279522  1
  H+  H156  1  0.76217797  0.38462519  0.15150907  1
  H+  H157  1  0.23609955  0.46995755  0.79455019  1
  H+  H158  1  0.85765742  0.49251881  0.49813975  1
  H+  H159  1  0.11757781  0.98216711  0.15274609  1
  H+  H160  1  0.45123402  0.85799638  0.60482082  1
  H+  H161  1  0.89980812  0.85946531  1.00293445  1
  H+  H162  1  0.85790129  0.08798401  0.50763080  1
  H+  H163  1  0.65944365  0.38543587  0.99629622  1
  H+  H164  1  0.39101895  0.36647250  0.16309600  1
  H+  H165  1  0.63580436  0.52115567  1.00463720  1
  H+  H166  1  0.58412120  0.42845321  0.24432138  1
  H+  H167  1  0.11108267  0.01757973  0.36533711  1
  H+  H168  1  0.27171275  0.63609228  0.15853453  1
  H+  H169  1  0.14861877  0.62875832  0.16823054  1
  H+  H170  1  0.62611492  0.59506466  0.84751423  1
  H+  H171  1  0.22327639  0.71389210  0.71025482  1
  H+  H172  1  0.14578467  0.12726229  0.15564268  1
  H+  H173  1  0.10644291  0.72855631  0.33039809  1
  H+  H174  1  0.36849325  0.64982188  0.00523199  1
  H+  H175  1  0.11561738  0.40477464  0.81889871  1
  H+  H176  1  0.93257304  0.06870545  0.91713109  1
  H+  H177  1  0.36136755  0.97110759  0.16244863  1
  H+  H178  1  0.38493143  0.77106823  0.17012165  1
  H+  H179  1  0.88015052  0.85654649  0.84724451  1
  H+  H180  1  0.05561387  0.07511538  0.91132659  1
  H+  H181  1  0.14696226  0.86113096  0.66238437  1
  H+  H182  1  0.85816529  0.96220972  0.32353913  1
  H+  H183  1  0.11333061  0.31912004  0.02689651  1
  H+  H184  1  0.11452436  0.61819213  0.65875573  1
  H+  H185  1  0.60929433  0.21628040  0.34330187  1
  H+  H186  1  0.77278653  0.88517269  0.67146513  1
  H+  H187  1  0.97588835  0.11541497  0.65497307  1
  H+  H188  1  0.61580690  0.21581805  0.50069849  1
  H+  H189  1  0.02668769  0.40306059  0.15095589  1
  H+  H190  1  0.18775822  0.35859587  0.85091897  1
  H+  H191  1  0.86274007  0.39078186  0.67242371  1
  H+  H192  1  0.33270386  0.92005672  0.71770195  1
  H+  H193  1  -0.01204354  0.86027406  -0.00560857  1
  H+  H194  1  0.12143916  0.63503065  0.00552901  1
  H+  H195  1  0.49890751  0.35407132  0.85394720  1
  H+  H196  1  0.32812521  0.32491556  0.85959748  1
  H+  H197  1  0.52105557  0.13088719  0.50669642  1
  H+  H198  1  0.25394754  0.87413919  0.81430992  1
  H+  H199  1  0.87676014  0.62922996  0.31882708  1
  H+  H200  1  0.86282932  0.24775027  0.82206081  1
  H+  H201  1  0.36620392  0.17213411  0.40480336  1
  H+  H202  1  0.11163373  0.68603963  0.77385874  1
  H+  H203  1  0.83934918  0.28486019  0.39295076  1
  H+  H204  1  0.38522831  1.02016681  0.32842834  1
  H+  H205  1  0.84665406  0.49474593  0.34283413  1
  H+  H206  1  0.99281639  0.62530925  0.83701833  1
  H+  H207  1  0.40400621  0.62462487  0.71469032  1
  H+  H208  1  0.12124095  0.52369734  0.50838101  1
  H+  H209  1  0.87879757  0.64049610  0.68163060  1
  H+  H210  1  -0.01095673  0.33253723  0.34413396  1
  H+  H211  1  0.22204207  0.36750470  0.50220604  1
  H+  H212  1  0.62933193  0.48488677  0.68451074  1
  H+  H213  1  0.33917612  0.92219168  0.44003399  1
  H+  H214  1  0.84296709  0.87880821  0.47995170  1
  H+  H215  1  0.88879160  0.86691141  0.69531425  1
  H+  H216  1  0.87889167  0.73628364  0.15264560  1
  H+  H217  1  0.72006289  0.36887407  0.51376638  1
  H+  H218  1  0.11293739  0.95254258  0.48299693  1
  H+  H219  1  0.61943266  0.22972452  0.67802161  1
  H+  H220  1  0.88527012  0.76979885  0.30783924  1
  H+  H221  1  0.61168341  0.63254552  0.01346137  1
  H+  H222  1  0.11892178  0.15662584  0.65743901  1
  H+  H223  1  0.11591386  0.49331228  0.15287973  1
  H+  H224  1  0.13375167  0.87259124  0.85416274  1
  H+  H225  1  0.79289005  0.26356331  0.38364775  1
  H+  H226  1  0.61736554  0.72480132  0.01498678  1
  H+  H227  1  0.12072589  0.97471142  0.00857678  1
  H+  H228  1  0.47626107  0.10865681  0.17216085  1
  H+  H229  1  0.88758610  0.28901906  0.99464740  1
  H+  H230  1  0.35402652  0.88524616  0.33985630  1
  H+  H231  1  0.88131672  0.09009848  0.31274078  1
  H+  H232  1  0.80622617  0.05752895  0.03725343  1
  H+  H233  1  0.87472968  0.72698848  0.69588714  1
  H+  H234  1  0.11382752  0.61618636  0.50186534  1
  H+  H235  1  0.86279485  0.97602411  0.67079007  1
  H+  H236  1  0.72845588  0.11598501  0.65594016  1
  H+  H237  1  0.42566373  0.34302675  0.43569402  1
  H+  H238  1  0.90346177  0.98541065  1.02291378  1
  H+  H239  1  0.23615255  0.10244899  1.00771399  1
  H+  H240  1  0.02879916  0.88283272  0.70520061  1
  H+  H241  1  0.79357219  0.40797307  0.82960268  1
  H+  H242  1  0.30112935  0.34368869  0.84900264  1
  H+  H243  1  0.64544177  0.86133418  1.00182961  1
  H+  H244  1  0.26530918  0.88590484  0.34122521  1
  H+  H245  1  0.88796663  0.89895666  0.12410553  1
  H+  H246  1  0.62111654  0.63583433  0.49606400  1
  H+  H247  1  0.90183063  0.37744385  0.83955184  1
  H+  H248  1  0.77400713  0.39140599  0.67564369  1
  H+  H249  1  0.73393477  0.86266386  1.01441764  1
  H+  H250  1  0.50104881  0.39376937  0.66882965  1
  H+  H251  1  0.16727995  0.75162373  0.68086218  1
  H+  H252  1  0.14245469  0.62560273  0.84877214  1
  H+  H253  1  0.97038601  0.85459511  0.48927453  1
  H+  H254  1  0.60660570  0.11996347  1.01051503  1
  H+  H255  1  0.91492539  0.84122643  0.21464544  1
  H+  H256  1  0.72486523  0.60980631  1.00042697  1
  H+  H257  1  0.91092968  0.03931008  0.15119957  1
  H+  H258  1  0.86586682  0.14100481  0.66969806  1
  H+  H259  1  0.02837659  0.40297126  0.49574594  1
  H+  H260  1  0.69619803  0.35362280  0.90163231  1
  H+  H261  1  0.10701158  0.40209807  0.66356936  1
  H+  H262  1  0.03535225  0.64214527  0.00407547  1
  H+  H263  1  0.38121407  0.33037137  0.00069790  1
  H+  H264  1  0.90634490  0.38654658  1.00118565  1
  H+  H265  1  0.39538342  0.21793390  0.84371374  1
  H+  H266  1  0.68074464  0.29326332  0.84180437  1
  H+  H267  1  0.16439901  0.09643428  0.21802841  1
  H+  H268  1  0.63534797  0.39304447  0.82980393  1
  H+  H269  1  0.36314433  0.54372809  0.84384137  1
  H+  H270  1  0.14906976  0.77325823  0.99543429  1
  H+  H271  1  0.62920797  0.26512392  0.16435825  1
  H+  H272  1  0.16663262  0.28935682  0.17804371  1
  H+  H273  1  0.12684108  0.28337910  0.50305092  1
  H+  H274  1  0.65136469  0.15163174  0.82939560  1
  H+  H275  1  0.12603973  0.73556483  0.15886528  1
  H+  H276  1  0.27947348  0.39299255  0.33276458  1
  H+  H277  1  0.28109250  0.13578340  0.15911102  1
  H+  H278  1  0.38500072  0.14714795  0.34017333  1
  H+  H279  1  0.84212130  0.43012059  0.09983042  1
  H+  H280  1  0.27517353  0.64030054  1.00482668  1
  H+  H281  1  0.41435145  0.59118949  0.23685237  1
  H+  H282  1  0.10301791  0.27353029  0.83585422  1
  H+  H283  1  0.85215836  0.72090905  0.48159434  1
  H+  H284  1  0.35112963  0.38978403  0.68487177  1
  H+  H285  1  0.35424315  0.38242350  0.48395561  1
  H+  H286  1  0.90263658  0.12218648  0.16448314  1
  H+  H287  1  0.88412465  0.62307795  0.50274338  1
  H+  H288  1  0.66946745  0.33475841  0.60820233  1
  H+  H289  1  0.91287445  0.82756136  0.90680113  1
  H+  H290  1  0.05939984  0.18140360  0.39122354  1
  H+  H291  1  0.07725010  0.17231021  0.75682927  1
  H+  H292  1  0.16798712  0.57893401  0.93806835  1
  H+  H293  1  0.67188869  0.07809294  0.93958975  1
  H+  H294  1  0.84734978  0.43413923  0.76664812  1
  H+  H295  1  0.66362364  0.32070013  0.22548351  1
  H+  H296  1  1.01413252  0.92064937  0.60265715  1
  H+  H297  1  0.84505741  0.66866960  0.09615800  1
  H+  H298  1  0.67354629  0.09620391  0.23231649  1
  H+  H299  1  0.10851303  0.21270036  0.09537943  1
  H+  H300  1  0.56439339  0.65913949  0.10478603  1
  H+  H301  1  0.83349401  0.91421474  0.76631956  1
  H+  H302  1  0.07140916  0.22226120  0.00476647  1
  H+  H303  1  0.42110581  0.32798171  0.62695948  1
  H+  H304  1  0.90984084  0.07748205  0.59901516  1
  H+  H305  1  0.59009439  0.41918216  0.07511992  1
  H+  H306  1  0.84713290  0.66358703  0.77671472  1
  H+  H307  1  0.17715513  0.09110497  0.52550850  1
  H+  H308  1  0.36354576  0.17096777  0.78135124  1
  H+  H309  1  0.10029393  0.67741531  0.09900235  1
  H+  H310  1  0.59395319  0.79727616  0.34780219  1
  H+  H311  1  0.05857516  0.89024427  0.39084052  1
  H+  H312  1  0.40753110  0.28764853  0.35709062  1
  H+  H313  1  0.42320625  0.88650529  0.90671016  1
  H+  H314  1  0.43895966  0.56020003  0.58098897  1
  H+  H315  1  0.92053651  0.35060662  0.57200939  1
  H+  H316  1  0.44240309  0.31936682  0.91507680  1
  H+  H317  1  0.53116387  0.86149701  0.30434850  1
  H+  H318  1  0.09026679  0.42099848  0.06478820  1
  H+  H319  1  0.34235241  0.15353770  0.07492838  1
  H+  H320  1  0.86057168  0.40596088  0.49887563  1
  H+  H321  1  0.58264270  0.92317468  0.77822546  1
  H+  H322  1  0.17769986  0.59685790  0.22808036  1
  H+  H323  1  0.97249184  0.36734394  0.66088434  1
  H+  H324  1  0.01870013  0.89029972  0.84539936  1
  H+  H325  1  0.60216740  0.84246305  0.52086318  1
  H+  H326  1  0.67718910  0.59075392  0.57239834  1
  H+  H327  1  0.40036554  0.25448863  1.00620551  1
  H+  H328  1  0.76925714  0.20264499  0.79507512  1
  H+  H329  1  0.62674951  0.35746314  0.52579367  1
  H+  H330  1  0.11381960  0.57603694  0.57223230  1
  H+  H331  1  0.55160671  0.93808302  0.52628670  1
  H+  H332  1  0.80539439  0.11161250  0.40033438  1
  H+  H333  1  0.83731190  0.39075748  0.23637332  1
  H+  H334  1  0.16170964  0.34529602  0.59564611  1
  H+  H335  1  0.81833367  0.90507960  0.38189886  1
  H+  H336  1  0.66637741  0.59603787  0.22000523  1
  H+  H337  1  0.65870567  0.57463944  0.90899772  1
  H+  H338  1  0.39865743  0.27719318  0.16963820  1
  H+  H339  1  0.57456924  0.90493651  0.09582331  1
  H+  H340  1  0.68420485  0.80281467  0.91075016  1
  H+  H341  1  0.34729438  0.67643211  0.39528064  1
  H+  H342  1  0.59590791  0.66992266  0.43599224  1
  H+  H343  1  0.58242629  0.15935043  0.40447684  1
  H+  H344  1  0.26522769  0.37087550  0.17260286  1
  H+  H345  1  0.30213229  0.44685024  0.76437378  1
  H+  H346  1  0.91675209  0.59612679  0.56388956  1
  H+  H347  1  0.82195290  0.43550037  0.40395711  1
  H+  H348  1  0.94918126  0.47841930  0.05852476  1
  H+  H349  1  0.34459834  0.71935434  0.80391845  1
  H+  H350  1  0.08942520  0.91737597  0.09635098  1
  H+  H351  1  0.90838181  0.34005176  0.21449255  1
  H+  H352  1  0.66143535  0.83041429  0.60592057  1
  H+  H353  1  0.48473322  0.61085588  0.49594395  1
  H+  H354  1  0.66025904  0.63836819  0.31540969  1
  H+  H355  1  0.12522427  0.44312442  0.39798227  1
  H+  H356  1  0.32843493  0.38184605  0.09901593  1
  H+  H357  1  0.59227157  0.40609781  0.40900485  1
  H+  H358  1  0.63882413  0.43137343  0.41785980  1
  H+  H359  1  0.63213899  0.83516805  0.23469371  1
  H+  H360  1  1.00803790  0.87598050  0.60453373  1
  H+  H361  1  0.17173684  0.83776451  0.90507832  1
  H+  H362  1  0.07605893  0.66702067  0.38790107  1
  H+  H363  1  0.33385821  0.66658454  0.09903439  1
  H+  H364  1  0.92255354  0.07553997  0.25180399  1
  H+  H365  1  0.83673732  0.67648783  0.37851579  1
  H+  H366  1  0.43079163  0.09667393  0.59890683  1
  H+  H367  1  0.33089287  0.42725926  0.39493323  1
  H+  H368  1  0.41412280  0.58956025  0.90597833  1
  H+  H369  1  0.08947420  0.93067745  0.79337137  1
  H+  H370  1  0.64453600  0.06228943  0.57092477  1
  H+  H371  1  0.57323334  0.15625189  0.09773295  1
  H+  H372  1  0.89471964  0.58155065  0.23734125  1
  H+  H373  1  0.50758616  0.53179164  0.79030152  1
  H+  H374  1  0.73410408  0.83261281  0.85018150  1
  H+  H375  1  0.83484991  0.17797408  0.72591500  1
  H+  H376  1  0.92145188  0.33973830  0.89833662  1
  H+  H377  1  0.17440003  0.82931949  0.56134427  1
  H+  H378  1  0.63452841  0.18771538  0.76682750  1
  H+  H379  1  0.16513704  0.83723778  0.26492808  1
  H+  H380  1  0.59667564  0.42250891  0.74405698  1
  H+  H381  1  0.40504490  0.03550954  0.52326485  1
  H+  H382  1  0.32663103  0.67820553  0.70585601  1
  H+  H383  1  0.92629318  0.58320129  0.93873368  1
  O2-  O384  1  0.10320916  0.18431769  0.13541080  1
  O2-  O385  1  0.05857282  0.17575236  0.47626289  1
  O2-  O386  1  0.06487090  0.17267183  0.80089085  1
  O2-  O387  1  0.08493947  0.43573791  0.13343990  1
  O2-  O388  1  0.08990500  0.43570510  0.48325165  1
  O2-  O389  1  0.13338018  0.45664016  0.79228725  1
  O2-  O390  1  0.10114696  0.67547360  0.14393846  1
  O2-  O391  1  0.07909874  0.66685553  0.47339798  1
  O2-  O392  1  0.09200066  0.67965350  0.81693901  1
  O2-  O393  1  0.08841975  0.92014396  0.14196978  1
  O2-  O394  1  0.07377096  0.89031334  0.47353800  1
  O2-  O395  1  0.08119103  0.93056091  0.83778207  1
  O2-  O396  1  0.34185627  0.16261910  0.14605433  1
  O2-  O397  1  0.36306694  0.16749963  0.48571932  1
  O2-  O398  1  0.36642066  0.15922667  0.82426600  1
  O2-  O399  1  0.34395878  0.40190847  0.14082946  1
  O2-  O400  1  0.32163286  0.41367373  0.47692065  1
  O2-  O401  1  0.28615565  0.46193262  0.80367545  1
  O2-  O402  1  0.33424922  0.66383794  0.14433941  1
  O2-  O403  1  0.36407622  0.68496957  0.47562083  1
  O2-  O404  1  0.33624589  0.69745322  0.84579752  1
  O2-  O405  1  0.32656141  0.91034209  0.14902234  1
  O2-  O406  1  0.34230600  0.91634641  0.48478337  1
  O2-  O407  1  0.30549676  0.88781218  0.78957152  1
  O2-  O408  1  0.57550405  0.16441030  0.14327754  1
  O2-  O409  1  0.58277980  0.15609997  0.48576399  1
  O2-  O410  1  0.67088276  0.20438161  0.80438420  1
  O2-  O411  1  0.58140492  0.41653902  0.15020212  1
  O2-  O412  1  0.56557554  0.41044264  0.53344398  1
  O2-  O413  1  0.59971797  0.41821772  0.81587638  1
  O2-  O414  1  0.56036639  0.65542212  0.15008545  1
  O2-  O415  1  0.59067672  0.66589352  0.48066087  1
  O2-  O416  1  0.53601759  0.59352737  0.79709549  1
  O2-  O417  1  0.56849692  0.90345598  0.14058348  1
  O2-  O418  1  0.51567894  0.87492055  0.53466366  1
  O2-  O419  1  0.57940212  0.92346759  0.82313629  1
  O2-  O420  1  0.84680018  0.16683778  0.14521645  1
  O2-  O421  1  0.77961180  0.10763478  0.47672432  1
  O2-  O422  1  0.81887960  0.19259394  0.80006186  1
  O2-  O423  1  0.82578182  0.42290641  0.14525462  1
  O2-  O424  1  0.82517064  0.43072712  0.48513149  1
  O2-  O425  1  0.85401382  0.44052972  0.81173263  1
  O2-  O426  1  0.84947501  0.67391405  0.14161145  1
  O2-  O427  1  0.82653024  0.65898025  0.47207266  1
  O2-  O428  1  0.85330892  0.66565635  0.82252016  1
  O2-  O429  1  0.87038100  0.94013656  0.10626947  1
  O2-  O430  1  0.81496191  0.91283976  0.47019590  1
  O2-  O431  1  0.84269662  0.91469281  0.81096449  1
  O2-  O432  1  0.16936511  0.09157829  0.17436929  1
  O2-  O433  1  0.18447580  0.05971358  0.49190207  1
  O2-  O434  1  0.10367306  0.08630873  0.88379151  1
  O2-  O435  1  0.20416546  0.34640452  0.19546646  1
  O2-  O436  1  0.16162908  0.34295665  0.51869412  1
  O2-  O437  1  0.12551212  0.32918961  0.85740116  1
  O2-  O438  1  0.17746481  0.59514058  0.18270012  1
  O2-  O439  1  0.13806455  0.58333288  0.52710469  1
  O2-  O440  1  0.17153330  0.59364620  0.86186984  1
  O2-  O441  1  0.17079215  0.83783045  0.18995859  1
  O2-  O442  1  0.17512391  0.82610860  0.51614685  1
  O2-  O443  1  0.16300135  0.83855782  0.85990512  1
  O2-  O444  1  0.41581615  0.07742998  0.18833594  1
  O2-  O445  1  0.43836178  0.09569905  0.53647883  1
  O2-  O446  1  0.43699310  0.05605018  0.82978048  1
  O2-  O447  1  0.42865332  0.33833500  0.18097788  1
  O2-  O448  1  0.41639249  0.33599056  0.48335724  1
  O2-  O449  1  0.44030062  0.31640260  0.86993932  1
  O2-  O450  1  0.41444371  0.59257574  0.19047950  1
  O2-  O451  1  0.42406395  0.58092314  0.51139277  1
  O2-  O452  1  0.41217656  0.59765396  0.86141874  1
  O2-  O453  1  0.41456014  0.83130785  0.18495163  1
  O2-  O454  1  0.44713706  0.84664672  0.48823761  1
  O2-  O455  1  0.43125024  0.91014727  0.86489155  1
  O2-  O456  1  0.68422519  0.12383089  0.19190322  1
  O2-  O457  1  0.63066786  0.04770798  0.52661509  1
  O2-  O458  1  0.66992487  0.07463230  0.86605661  1
  O2-  O459  1  0.66318639  0.32595156  0.18031041  1
  O2-  O460  1  0.66271063  0.33032609  0.53228856  1
  O2-  O461  1  0.69819238  0.35269829  0.85576194  1
  O2-  O462  1  0.64642739  0.58525672  0.17690448  1
  O2-  O463  1  0.66870795  0.58310182  0.52747863  1
  O2-  O464  1  0.65934552  0.56978781  0.86393251  1
  O2-  O465  1  0.65027328  0.82925951  0.19357820  1
  O2-  O466  1  0.64807067  0.82796348  0.52667676  1
  O2-  O467  1  0.68775050  0.78190677  0.87020559  1
  O2-  O468  1  0.93628806  0.09263754  0.17536682  1
  O2-  O469  1  0.89969576  0.06977244  0.51988278  1
  O2-  O470  1  0.90609800  0.08238297  0.84242966  1
  O2-  O471  1  0.91770716  0.33459400  0.17032126  1
  O2-  O472  1  0.92553514  0.36074122  0.52584025  1
  O2-  O473  1  0.92138907  0.33762823  0.85312371  1
  O2-  O474  1  0.89295080  0.58067108  0.18978031  1
  O2-  O475  1  0.91885913  0.59667185  0.51863215  1
  O2-  O476  1  0.93129302  0.59419542  0.85248182  1
  O2-  O477  1  0.92041847  0.84276350  0.16888911  1
  O2-  O478  1  0.90809710  0.83120707  0.50053880  1
  O2-  O479  1  0.91098733  0.82561371  0.86065380  1
  O2-  O480  1  0.13891196  0.07512328  0.38493137  1
  O2-  O481  1  0.17342894  0.10985744  0.61794892  1
  O2-  O482  1  0.17341784  0.07363004  0.99810575  1
  O2-  O483  1  0.18372613  0.34446808  0.30766183  1
  O2-  O484  1  0.15770628  0.34520815  0.64115350  1
  O2-  O485  1  0.12205350  0.26853787  1.02771395  1
  O2-  O486  1  0.18378922  0.60450969  0.30671641  1
  O2-  O487  1  0.07737241  0.56693133  0.63186883  1
  O2-  O488  1  0.17063688  0.57784781  0.98355514  1
  O2-  O489  1  0.16083201  0.83457160  0.31080062  1
  O2-  O490  1  0.17956980  0.83799730  0.64148608  1
  O2-  O491  1  0.17411460  0.83404794  0.98007375  1
  O2-  O492  1  0.42118823  0.07856472  0.31071926  1
  O2-  O493  1  0.42037443  0.09359071  0.64838090  1
  O2-  O494  1  0.38775329  0.02548303  0.99152967  1
  O2-  O495  1  0.43449958  0.34949076  0.36971101  1
  O2-  O496  1  0.45107530  0.38639490  0.64267728  1
  O2-  O497  1  0.42689547  0.31596530  0.99332628  1
  O2-  O498  1  0.41930384  0.58849170  0.30906041  1
  O2-  O499  1  0.45114539  0.54396088  0.62239535  1
  O2-  O500  1  0.42331784  0.59212493  0.98647132  1
  O2-  O501  1  0.42542199  0.84086102  0.30646477  1
  O2-  O502  1  0.43638191  0.85900965  0.64811920  1
  O2-  O503  1  0.41964024  0.84503768  0.98072718  1
  O2-  O504  1  0.65466792  0.05919578  0.30993736  1
  O2-  O505  1  0.66637900  0.08333263  0.64491044  1
  O2-  O506  1  0.67112963  0.07767391  0.98548112  1
  O2-  O507  1  0.65767529  0.32115745  0.30691031  1
  O2-  O508  1  0.67251638  0.33632359  0.65398772  1
  O2-  O509  1  0.69609010  0.36555815  0.97603107  1
  O2-  O510  1  0.68851280  0.61047502  0.29576863  1
  O2-  O511  1  0.68068027  0.58789085  0.65267590  1
  O2-  O512  1  0.66322541  0.58165979  0.98850049  1
  O2-  O513  1  0.58426680  0.75493265  0.38123230  1
  O2-  O514  1  0.66831707  0.83363566  0.65115317  1
  O2-  O515  1  0.67731169  0.82925959  0.99544911  1
  O2-  O516  1  0.92012973  0.07025315  0.29727268  1
  O2-  O517  1  0.91350103  0.08155519  0.64433208  1
  O2-  O518  1  0.96163385  0.06973786  0.95617729  1
  O2-  O519  1  0.85851457  0.36689930  0.26720171  1
  O2-  O520  1  0.91287239  0.33738795  0.64299062  1
  O2-  O521  1  0.92350621  0.34638987  0.97823066  1
  O2-  O522  1  0.90191459  0.58686631  0.30466080  1
  O2-  O523  1  0.92158102  0.58369373  0.64368309  1
  O2-  O524  1  0.92828716  0.58928364  0.98325245  1
  O2-  O525  1  0.91417536  0.83235695  0.29205036  1
  O2-  O526  1  0.91994866  0.83736574  0.71214223  1
  O2-  O527  1  0.92535035  0.82965137  0.98098605  1
  O2-  O528  1  -0.02602123  0.15160760  -0.01891244  1
  O2-  O529  1  0.07324592  0.17544058  0.34875833  1
  O2-  O530  1  0.08319328  0.17784318  0.67689479  1
  O2-  O531  1  0.09467354  0.41032115  0.01945896  1
  O2-  O532  1  0.15586464  0.46282850  0.35938707  1
  O2-  O533  1  0.07386895  0.42831802  0.68061272  1
  O2-  O534  1  0.09686468  0.67204030  0.01754707  1
  O2-  O535  1  0.07643293  0.66643966  0.34303570  1
  O2-  O536  1  0.16280539  0.70075567  0.70316609  1
  O2-  O537  1  0.08518940  0.91091630  0.01978822  1
  O2-  O538  1  0.06607413  0.90739658  0.34754626  1
  O2-  O539  1  0.09250364  0.90931028  0.71074161  1
  O2-  O540  1  0.34075562  0.15072372  0.02857641  1
  O2-  O541  1  0.36255609  0.18103150  0.36058203  1
  O2-  O542  1  0.30019942  0.12030738  0.69005632  1
  O2-  O543  1  0.29119008  0.34768378  0.00929167  1
  O2-  O544  1  0.33967919  0.42934111  0.35030447  1
  O2-  O545  1  0.32079571  0.42234861  0.68845045  1
  O2-  O546  1  0.33592761  0.67774486  0.01929380  1
  O2-  O547  1  0.34537440  0.67492432  0.35006733  1
  O2-  O548  1  0.32554526  0.72935352  0.71923594  1
  O2-  O549  1  0.34811927  0.94927334  0.01362061  1
  O2-  O550  1  0.32543384  0.91519861  0.35747630  1
  O2-  O551  1  0.34155591  0.93050121  0.67278662  1
  O2-  O552  1  0.56816584  0.14148783  0.02409209  1
  O2-  O553  1  0.58320966  0.15645781  0.35914053  1
  O2-  O554  1  0.58938768  0.17017042  0.69473350  1
  O2-  O555  1  0.59238624  0.41990742  0.02914449  1
  O2-  O556  1  0.60933400  0.43550088  0.28476895  1
  O2-  O557  1  0.59457930  0.42357373  0.69753619  1
  O2-  O558  1  0.58016284  0.66294743  0.02673286  1
  O2-  O559  1  0.57925542  0.67989149  0.35172180  1
  O2-  O560  1  0.59079708  0.66411990  0.68588726  1
  O2-  O561  1  0.58840322  0.90969918  0.01531560  1
  O2-  O562  1  0.59179187  0.87282290  0.30424334  1
  O2-  O563  1  0.59566708  0.92779925  0.69653989  1
  O2-  O564  1  0.83195800  0.11829675  0.02740824  1
  O2-  O565  1  0.82036427  0.12452949  0.35638134  1
  O2-  O566  1  0.83624069  0.17366012  0.68035739  1
  O2-  O567  1  0.89352344  0.45133688  0.03796253  1
  O2-  O568  1  0.81559408  0.43436748  0.35919461  1
  O2-  O569  1  0.83657366  0.42482768  0.68774471  1
  O2-  O570  1  0.83562827  0.66110213  0.02034150  1
  O2-  O571  1  0.84078460  0.67762142  0.33414181  1
  O2-  O572  1  0.84501245  0.66370989  0.70206438  1
  O2-  O573  1  0.86409133  0.92740303  0.04001729  1
  O2-  O574  1  0.82394291  0.90198762  0.33766836  1
  O2-  O575  1  0.83365010  0.91604114  0.68690352  1
