# generated using pymatgen
data_H2O
_symmetry_space_group_name_H-M   'P 1'
_cell_length_a   17.98022148
_cell_length_b   17.97095296
_cell_length_c   21.96542847
_cell_angle_alpha   89.97755997
_cell_angle_beta   89.96203764
_cell_angle_gamma   119.99005485
_symmetry_Int_Tables_number   1
_chemical_formula_structural   H2O
_chemical_formula_sum   'H384 O192'
_cell_volume   6147.23367823
_cell_formula_units_Z   192
loop_
 _symmetry_equiv_pos_site_id
 _symmetry_equiv_pos_as_xyz
  1  'x, y, z'
loop_
 _atom_type_symbol
 _atom_type_oxidation_number
  H+  1.0
  O2-  -2.0
loop_
 _atom_site_type_symbol
 _atom_site_label
 _atom_site_symmetry_multiplicity
 _atom_site_fract_x
 _atom_site_fract_y
 _atom_site_fract_z
 _atom_site_occupancy
  H+  H0  1  0.89621961  0.53192113  0.65638125  1
  H+  H1  1  0.66042588  0.60338116  0.24185394  1
  H+  H2  1  0.86586181  0.37494625  0.82575027  1
  H+  H3  1  0.72998415  0.36098739  0.17137671  1
  H+  H4  1  0.13194856  0.61515187  0.66296128  1
  H+  H5  1  0.48598652  0.62384179  -0.00357643  1
  H+  H6  1  0.91039894  0.58090027  0.59244865  1
  H+  H7  1  0.36595449  0.48742025  0.99715565  1
  H+  H8  1  0.78040226  0.14030192  0.49686963  1
  H+  H9  1  0.76855895  0.64299690  0.50443606  1
  H+  H10  1  0.30845931  0.68048904  0.03623314  1
  H+  H11  1  0.72675338  0.86141933  0.17176127  1
  H+  H12  1  0.57889881  0.12782375  0.07258578  1
  H+  H13  1  0.71529490  0.60689077  0.33623647  1
  H+  H14  1  0.59569664  0.92036981  0.10484711  1
  H+  H15  1  0.84861950  0.87764138  0.33256256  1
  H+  H16  1  0.17221378  0.83641486  0.44550866  1
  H+  H17  1  0.86877253  0.13899510  0.48938356  1
  H+  H18  1  0.90967239  0.78377944  0.82640800  1
  H+  H19  1  0.14193920  0.77939020  0.24346113  1
  H+  H20  1  0.09604590  0.93952493  0.44369658  1
  H+  H21  1  0.63074612  0.33232067  0.16625508  1
  H+  H22  1  0.84631997  0.41548341  0.76853191  1
  H+  H23  1  0.65441142  0.13297879  0.51808179  1
  H+  H24  1  0.89833504  0.69920441  0.16465026  1
  H+  H25  1  0.67412066  0.33346751  0.26573009  1
  H+  H26  1  0.49018153  0.13845469  0.51496600  1
  H+  H27  1  0.96574992  0.60413553  0.99015696  1
  H+  H28  1  0.41035737  0.33459881  0.59936774  1
  H+  H29  1  0.12657250  0.22717942  0.99517359  1
  H+  H30  1  0.39153319  0.64113683  0.51517080  1
  H+  H31  1  0.64638956  0.86236037  0.98972302  1
  H+  H32  1  0.64700226  0.63637678  0.67026987  1
  H+  H33  1  0.96305958  0.34405079  0.98016254  1
  H+  H34  1  0.11532322  0.14113109  0.82682384  1
  H+  H35  1  0.33221106  0.87645364  0.00978789  1
  H+  H36  1  0.01174245  0.14260700  0.68333402  1
  H+  H37  1  0.62532947  0.90455144  0.49853909  1
  H+  H38  1  0.64279403  0.55145176  0.72898703  1
  H+  H39  1  0.06995153  0.65455102  0.05753022  1
  H+  H40  1  0.89444531  0.78632809  0.66241717  1
  H+  H41  1  0.62342260  0.15001136  0.34588973  1
  H+  H42  1  0.35189171  0.46532816  0.67939686  1
  H+  H43  1  0.95571748  0.59861736  0.49952160  1
  H+  H44  1  0.86257281  0.24763039  0.18259281  1
  H+  H45  1  0.62638960  1.00395922  0.34887290  1
  H+  H46  1  0.49924914  0.31505809  0.14756451  1
  H+  H47  1  0.78280002  0.09865208  0.15180659  1
  H+  H48  1  0.49996488  0.11645790  0.67757939  1
  H+  H49  1  0.60744620  0.32546422  0.65138024  1
  H+  H50  1  0.96222836  0.62283117  0.16425950  1
  H+  H51  1  0.64437483  0.63083504  0.00748226  1
  H+  H52  1  0.21654400  0.07695814  0.16262290  1
  H+  H53  1  0.86348646  0.38218700  0.34132121  1
  H+  H54  1  0.87815289  0.11499651  0.64883868  1
  H+  H55  1  0.09246632  0.77292117  0.34131279  1
  H+  H56  1  0.73056432  0.10197218  0.98220843  1
  H+  H57  1  0.01084335  0.11752750  0.33307839  1
  H+  H58  1  0.58729655  0.67292362  0.41383449  1
  H+  H59  1  0.35642417  0.13947476  0.68015941  1
  H+  H60  1  0.53401264  0.90539753  0.34902016  1
  H+  H61  1  0.11465961  0.48349762  0.66414762  1
  H+  H62  1  0.41196220  0.37824733  0.66339007  1
  H+  H63  1  0.19152156  0.57640516  0.97889158  1
  H+  H64  1  0.24594447  0.85579313  0.16593498  1
  H+  H65  1  0.28885635  0.91054711  0.49703372  1
  H+  H66  1  0.38042867  0.75962698  0.85132887  1
  H+  H67  1  0.12391571  0.50620480  0.82500544  1
  H+  H68  1  0.98959572  0.37253246  0.64064801  1
  H+  H69  1  0.87530971  0.43236747  0.16574256  1
  H+  H70  1  0.69947020  0.31711965  0.49277036  1
  H+  H71  1  0.01535069  0.64170932  0.66919354  1
  H+  H72  1  0.76709528  0.38116804  0.33462134  1
  H+  H73  1  0.37947019  0.64757267  0.36040631  1
  H+  H74  1  0.38420989  0.44455041  0.14661360  1
  H+  H75  1  0.62857871  0.21312884  0.16064260  1
  H+  H76  1  0.60947120  0.41005307  0.00454278  1
  H+  H77  1  0.76896367  0.38019377  0.00886982  1
  H+  H78  1  0.23930042  0.36027621  0.16385833  1
  H+  H79  1  0.37371616  0.67809917  0.18675871  1
  H+  H80  1  0.14643020  0.12741259  0.50463286  1
  H+  H81  1  0.85696748  1.00397902  0.31572418  1
  H+  H82  1  0.62561640  0.99489375  0.50225307  1
  H+  H83  1  0.62682777  0.60913350  0.33957732  1
  H+  H84  1  0.16860250  0.59366890  0.60244200  1
  H+  H85  1  0.86605254  0.22007534  0.79746067  1
  H+  H86  1  0.13649919  0.11090878  0.31695103  1
  H+  H87  1  0.36181799  0.23149963  0.68022848  1
  H+  H88  1  0.26481744  0.78026255  0.78114548  1
  H+  H89  1  0.58684305  0.10820961  0.67690247  1
  H+  H90  1  0.04792040  0.45472254  0.17907363  1
  H+  H91  1  0.22012305  0.12432841  0.66688233  1
  H+  H92  1  0.50184492  0.90979664  0.18082769  1
  H+  H93  1  0.93752845  0.38941068  0.23896010  1
  H+  H94  1  0.76967283  0.89023117  0.67443951  1
  H+  H95  1  0.60121614  0.71675369  0.34763685  1
  H+  H96  1  0.73116102  0.34787409  0.82988220  1
  H+  H97  1  1.05422996  0.63463202  0.32574438  1
  H+  H98  1  0.20906791  0.84102765  0.82989975  1
  H+  H99  1  0.60489714  0.19697095  0.44205612  1
  H+  H100  1  0.90005778  0.28551902  0.63323173  1
  H+  H101  1  0.51549293  0.86808309  0.83317300  1
  H+  H102  1  0.55062956  0.26932837  0.98194697  1
  H+  H103  1  0.11511635  0.25936705  0.31488555  1
  H+  H104  1  0.23821379  0.36760342  0.83225686  1
  H+  H105  1  0.59159823  0.18580522  1.01656076  1
  H+  H106  1  0.86702825  0.12781507  -0.01098335  1
  H+  H107  1  0.86080846  0.88741184  -0.00131757  1
  H+  H108  1  0.72639241  0.66149390  0.19078060  1
  H+  H109  1  0.12129023  0.99392453  0.16449116  1
  H+  H110  1  0.77881699  0.89464208  0.49312010  1
  H+  H111  1  0.62072943  0.73282907  0.00704548  1
  H+  H112  1  0.40204881  0.63098546  1.00080356  1
  H+  H113  1  0.87363571  -0.04306059  0.15504111  1
  H+  H114  1  0.67102785  0.82833399  0.92886091  1
  H+  H115  1  0.09362916  0.62000744  0.99761858  1
  H+  H116  1  0.48077674  0.36111503  0.32769915  1
  H+  H117  1  0.12172033  0.99336662  0.50542226  1
  H+  H118  1  0.85736555  0.79015612  0.25236919  1
  H+  H119  1  0.03556039  0.89861389  0.82450925  1
  H+  H120  1  0.08662317  0.42569183  0.37200887  1
  H+  H121  1  0.03196611  0.14202585  0.48048492  1
  H+  H122  1  0.33528508  0.44744179  0.08840731  1
  H+  H123  1  0.88284412  0.50965716  0.84060674  1
  H+  H124  1  0.63169096  0.53358090  0.51476520  1
  H+  H125  1  0.89322225  0.01403497  0.83218912  1
  H+  H126  1  0.87023745  0.60493060  0.50467401  1
  H+  H127  1  0.37515454  0.48057495  0.83626334  1
  H+  H128  1  0.71064456  0.84688938  0.32976124  1
  H+  H129  1  0.63711416  0.09568119  0.99099006  1
  H+  H130  1  0.87042865  0.88907797  0.82126020  1
  H+  H131  1  0.11917645  0.23353003  0.47534842  1
  H+  H132  1  0.09410493  0.71615102  0.48999655  1
  H+  H133  1  0.39552868  0.76447195  0.03155364  1
  H+  H134  1  0.48824079  0.88290916  0.51322269  1
  H+  H135  1  0.62638988  1.01112952  0.66663156  1
  H+  H136  1  0.89719241  1.02091785  -0.01477744  1
  H+  H137  1  0.26680695  0.88397516  0.66788599  1
  H+  H138  1  0.86063545  0.72912525  0.50076247  1
  H+  H139  1  0.53756105  0.88357434  0.00939157  1
  H+  H140  1  0.41830171  0.59890851  0.23126784  1
  H+  H141  1  0.57303460  0.29007496  1.05146414  1
  H+  H142  1  0.91159868  0.52484050  0.31423120  1
  H+  H143  1  0.60922563  0.64739816  0.16485511  1
  H+  H144  1  0.59839293  0.62099881  0.80438675  1
  H+  H145  1  0.25924296  0.65198732  0.20727325  1
  H+  H146  1  0.46958042  0.36587409  0.99994478  1
  H+  H147  1  0.63728668  0.76334910  0.83235063  1
  H+  H148  1  0.41213687  0.09296755  0.90558031  1
  H+  H149  1  0.86360188  0.70182720  0.07099331  1
  H+  H150  1  0.86511516  0.76004383  0.98371092  1
  H+  H151  1  0.89899768  0.08795536  0.15220852  1
  H+  H152  1  0.13765085  0.03251838  0.84584499  1
  H+  H153  1  0.84024616  0.46599897  0.48537483  1
  H+  H154  1  0.77813735  0.89486403  0.00051612  1
  H+  H155  1  0.07540868  0.65747271  0.43266754  1
  H+  H156  1  0.21076596  0.34876580  0.63866453  1
  H+  H157  1  0.98933409  0.11268218  0.83244601  1
  H+  H158  1  0.36005513  0.39477839  0.00335333  1
  H+  H159  1  0.87767096  0.12851597  0.71890685  1
  H+  H160  1  0.13471167  0.87630832  0.83411550  1
  H+  H161  1  0.12052432  0.26732182  0.64984905  1
  H+  H162  1  0.36576375  1.01208113  -0.00127744  1
  H+  H163  1  0.35939019  0.18183427  0.17172010  1
  H+  H164  1  0.89656921  0.40279262  0.66875624  1
  H+  H165  1  0.88093208  0.61026584  0.99343713  1
  H+  H166  1  0.61505957  -0.00740198  0.83942440  1
  H+  H167  1  0.82172971  0.66055837  0.40555952  1
  H+  H168  1  0.11687899  0.75966062  -0.01734577  1
  H+  H169  1  0.64479949  0.79206733  0.51028808  1
  H+  H170  1  0.73486096  0.12517211  0.33307772  1
  H+  H171  1  0.10064453  0.61024636  0.81861390  1
  H+  H172  1  0.94241493  0.83894598  0.28777923  1
  H+  H173  1  0.10569698  0.38641319  0.46329702  1
  H+  H174  1  0.22351196  0.12105175  0.85018272  1
  H+  H175  1  0.89212664  0.02041204  0.49341189  1
  H+  H176  1  0.27877395  0.13552053  0.33548328  1
  H+  H177  1  0.51636832  0.88209034  0.67588339  1
  H+  H178  1  0.35855488  0.63079738  0.83185282  1
  H+  H179  1  0.09883375  0.69830113  0.15974279  1
  H+  H180  1  0.16843166  0.09822900  0.60395217  1
  H+  H181  1  0.22713150  0.37940137  0.49200906  1
  H+  H182  1  1.02685024  0.11395335  0.14695446  1
  H+  H183  1  0.39283977  0.36347061  0.84565200  1
  H+  H184  1  0.78345834  0.64643892  1.02601629  1
  H+  H185  1  0.23195224  0.63255676  0.51416439  1
  H+  H186  1  0.45692647  0.92499023  0.97940301  1
  H+  H187  1  0.73436325  0.62949967  0.66679591  1
  H+  H188  1  0.46965118  0.59947896  0.36950620  1
  H+  H189  1  0.37019579  0.22171515  0.33792582  1
  H+  H190  1  0.88466778  0.27797781  0.49036781  1
  H+  H191  1  0.10098260  0.88229474  -0.00358957  1
  H+  H192  1  0.61799866  0.88526984  0.16519740  1
  H+  H193  1  0.10479713  0.73021291  0.67681872  1
  H+  H194  1  0.17269632  0.33462239  0.92283334  1
  H+  H195  1  0.63567067  0.77542832  0.17024049  1
  H+  H196  1  0.05487887  0.89833024  0.35175164  1
  H+  H197  1  0.14677116  0.27886554  0.83253414  1
  H+  H198  1  0.37983880  0.28712961  0.50370589  1
  H+  H199  1  0.00983824  0.85040757  0.14795944  1
  H+  H200  1  0.11277279  0.39210322  0.65780553  1
  H+  H201  1  0.16466833  0.55287163  0.20086948  1
  H+  H202  1  0.80358007  0.65752236  0.83395285  1
  H+  H203  1  0.98087918  0.87307942  0.51049890  1
  H+  H204  1  0.37384131  0.13288415  1.01194711  1
  H+  H205  1  0.70001903  0.10626371  0.68407786  1
  H+  H206  1  0.38243925  0.78111275  0.66544126  1
  H+  H207  1  0.59059137  0.43373165  0.79283922  1
  H+  H208  1  0.52113397  0.40396825  0.49857620  1
  H+  H209  1  1.04537735  0.92828734  0.99849283  1
  H+  H210  1  0.87684126  0.34882986  -0.01827363  1
  H+  H211  1  0.20349906  0.85123569  0.98772460  1
  H+  H212  1  0.16197113  0.26337442  0.15956297  1
  H+  H213  1  0.87002886  0.23236755  0.21258803  1
  H+  H214  1  0.86912643  0.64530653  0.66521495  1
  H+  H215  1  0.29013875  0.88325706  0.35129101  1
  H+  H216  1  0.10475541  0.49052827  0.98517810  1
  H+  H217  1  0.53073677  0.65829138  0.50628186  1
  H+  H218  1  0.83821689  0.81386930  0.15700197  1
  H+  H219  1  0.97680797  0.34941378  0.82746857  1
  H+  H220  1  0.23580117  0.12888796  0.50994122  1
  H+  H221  1  0.37179420  0.30606468  0.18009787  1
  H+  H222  1  0.24780779  0.34591121  0.33523369  1
  H+  H223  1  0.58227068  0.43146809  0.44137932  1
  H+  H224  1  0.35947515  0.88893073  0.67037048  1
  H+  H225  1  0.60208814  0.35456449  0.81640253  1
  H+  H226  1  0.63678741  0.86538815  0.66164695  1
  H+  H227  1  0.16408358  0.52300874  0.29832234  1
  H+  H228  1  0.10559328  0.36437501  -0.00817970  1
  H+  H229  1  0.38083674  0.55600778  0.16784849  1
  H+  H230  1  0.85410058  0.47067126  0.00116302  1
  H+  H231  1  0.30460275  0.87450534  0.75581620  1
  H+  H232  1  0.65358730  0.01788642  0.18215297  1
  H+  H233  1  0.79040916  0.23539200  0.72906283  1
  H+  H234  1  0.47757425  0.61643194  0.83607735  1
  H+  H235  1  0.37275327  0.22921039  0.01704387  1
  H+  H236  1  0.39936890  0.02772027  0.33554431  1
  H+  H237  1  0.11554516  0.82211095  0.18907614  1
  H+  H238  1  0.62577239  0.97158691  0.00466904  1
  H+  H239  1  0.37549553  0.14128284  0.83687460  1
  H+  H240  1  0.37211411  0.15669787  0.49540237  1
  H+  H241  1  0.22746451  0.36772647  0.98477984  1
  H+  H242  1  0.86612798  0.55194880  0.16976475  1
  H+  H243  1  0.85758176  0.21152835  -0.00612932  1
  H+  H244  1  0.96994089  0.48751162  0.23876138  1
  H+  H245  1  1.01837335  0.38831432  0.46009769  1
  H+  H246  1  0.40016673  0.87143285  0.17994577  1
  H+  H247  1  0.60998539  0.49677055  1.01637144  1
  H+  H248  1  0.52099218  0.65173488  0.15782540  1
  H+  H249  1  0.66198294  0.10941790  0.17892099  1
  H+  H250  1  0.37082542  0.74877265  0.49923292  1
  H+  H251  1  0.61073024  0.20551578  0.82480551  1
  H+  H252  1  0.15456876  0.82967076  0.89774416  1
  H+  H253  1  0.41095564  0.32287070  -0.05853107  1
  H+  H254  1  0.40283942  1.04891814  0.50963417  1
  H+  H255  1  0.63918950  0.77711239  0.65838628  1
  H+  H256  1  0.38296186  0.52282136  0.34169893  1
  H+  H257  1  0.89101521  0.87395137  0.66422860  1
  H+  H258  1  0.32932378  0.94861128  0.16348440  1
  H+  H259  1  0.36727979  0.23491975  0.83358369  1
  H+  H260  1  0.27016791  0.64745568  0.67749778  1
  H+  H261  1  0.60782635  0.87131274  0.82982616  1
  H+  H262  1  0.11858645  0.38322109  0.81366249  1
  H+  H263  1  0.61279176  0.22984631  0.65315475  1
  H+  H264  1  0.00849553  0.61501738  0.82524602  1
  H+  H265  1  0.54166612  0.12263341  0.16769787  1
  H+  H266  1  0.61730073  0.65201414  0.50882158  1
  H+  H267  1  0.30256440  0.65683419  0.33658516  1
  H+  H268  1  0.07321851  0.60011751  0.15037176  1
  H+  H269  1  0.38115492  0.37792372  0.50788549  1
  H+  H270  1  0.60699902  0.47894486  0.34114619  1
  H+  H271  1  0.61402489  0.39372922  0.34269774  1
  H+  H272  1  0.46492078  0.08780424  1.00340143  1
  H+  H273  1  0.37025632  0.02114073  0.66036547  1
  H+  H274  1  0.11734906  0.98662680  0.67275692  1
  H+  H275  1  0.44483211  0.00349710  0.20000491  1
  H+  H276  1  0.39389141  0.11340912  0.32907928  1
  H+  H277  1  0.85372347  0.98297328  0.68430044  1
  H+  H278  1  0.47364071  0.34730551  0.84148851  1
  H+  H279  1  0.84545830  0.70973658  0.34240939  1
  H+  H280  1  0.80398864  0.77649057  0.94188533  1
  H+  H281  1  0.53384322  0.14756320  0.34732563  1
  H+  H282  1  0.41394612  0.78978134  0.32854661  1
  H+  H283  1  0.86150066  0.14073625  0.33586409  1
  H+  H284  1  0.36539664  0.50282564  0.50508001  1
  H+  H285  1  0.02830793  0.89772457  0.67510738  1
  H+  H286  1  0.13275990  0.86919674  0.65758893  1
  H+  H287  1  0.10731368  0.38634614  0.31410366  1
  H+  H288  1  0.35250772  0.93639811  0.44165442  1
  H+  H289  1  0.85174190  0.38197783  0.48126365  1
  H+  H290  1  0.35244506  0.46696757  0.43944226  1
  H+  H291  1  0.09294539  0.14893467  0.08273610  1
  H+  H292  1  0.08410814  0.17103756  0.76610724  1
  H+  H293  1  0.28340071  0.32251522  0.39278455  1
  H+  H294  1  0.42511671  0.61812093  0.57592737  1
  H+  H295  1  0.91200092  0.57365096  0.89922884  1
  H+  H296  1  0.31872205  0.47100586  0.26010976  1
  H+  H297  1  0.56138430  0.38184307  0.09780457  1
  H+  H298  1  0.07727537  0.89870753  0.09609171  1
  H+  H299  1  0.08364326  0.40946070  0.75383831  1
  H+  H300  1  0.66406304  0.58818817  0.57719827  1
  H+  H301  1  0.33911093  0.71074713  0.13458901  1
  H+  H302  1  0.40104379  0.88658765  0.51455946  1
  H+  H303  1  0.86618127  0.88945408  0.49282217  1
  H+  H304  1  0.38221253  0.34392688  0.32396520  1
  H+  H305  1  0.92308651  0.34842137  0.54256896  1
  H+  H306  1  0.41724358  0.30076984  0.24018698  1
  H+  H307  1  0.36147045  0.09533740  0.15980463  1
  H+  H308  1  0.14114993  0.87821751  0.49376223  1
  H+  H309  1  0.72541644  0.85482429  0.83429621  1
  H+  H310  1  0.83382837  0.43024113  0.10085774  1
  H+  H311  1  0.09990531  0.13822841  0.67240856  1
  H+  H312  1  0.13766455  0.55739780  0.88789753  1
  H+  H313  1  0.16463508  0.31712739  0.25758672  1
  H+  H314  1  0.36718852  0.43400150  0.77434740  1
  H+  H315  1  0.14373650  0.11919410  0.94717877  1
  H+  H316  1  0.92720863  0.07631745  0.89632638  1
  H+  H317  1  0.95811150  0.47532870  0.71201189  1
  H+  H318  1  0.42577730  0.59441510  0.89991279  1
  H+  H319  1  0.13643303  0.61653560  0.51190974  1
  H+  H320  1  0.98050781  0.37484470  0.32071323  1
  H+  H321  1  0.64415767  0.28015317  0.32857790  1
  H+  H322  1  0.57573030  0.90558134  0.73524016  1
  H+  H323  1  0.84009545  0.17276645  0.39857819  1
  H+  H324  1  0.12015604  0.10679147  0.14459891  1
  H+  H325  1  0.93125217  0.08066102  0.55072712  1
  H+  H326  1  0.69188983  0.56060082  0.78969405  1
  H+  H327  1  0.68191277  0.59953259  0.95351885  1
  H+  H328  1  0.92046032  0.84407949  0.56894838  1
  H+  H329  1  0.09705882  0.93129505  0.76558744  1
  H+  H330  1  0.40934481  0.08990451  0.60471925  1
  H+  H331  1  0.11248806  0.48191831  0.12125512  1
  H+  H332  1  0.87667911  0.63354298  0.82653431  1
  H+  H333  1  0.83307292  0.91769192  0.76497958  1
  H+  H334  1  0.34365776  0.15677119  0.07863939  1
  H+  H335  1  0.67468073  0.09286371  0.57662873  1
  H+  H336  1  0.82071415  0.04274877  0.26829416  1
  H+  H337  1  0.82914954  0.12261673  0.08612869  1
  H+  H338  1  0.38252670  0.89209457  0.34932187  1
  H+  H339  1  0.06820313  0.65359027  0.75905427  1
  H+  H340  1  0.28379382  0.48156769  0.25432580  1
  H+  H341  1  0.33015849  0.67499998  0.73638100  1
  H+  H342  1  0.65315235  0.06352971  0.89985383  1
  H+  H343  1  0.58548935  0.67482598  0.06887560  1
  H+  H344  1  0.47341388  0.11894828  0.84516270  1
  H+  H345  1  0.61334179  0.08865750  0.83726300  1
  H+  H346  1  0.83156332  0.91348182  0.39554907  1
  H+  H347  1  0.83269647  0.90919058  0.09312253  1
  H+  H348  1  0.67675904  0.08667055  0.27327895  1
  H+  H349  1  0.67708373  0.85218267  0.56850451  1
  H+  H350  1  0.93663366  0.07639118  0.21640338  1
  H+  H351  1  0.33593495  0.17307227  0.43352899  1
  H+  H352  1  0.93605535  0.58651457  0.25652880  1
  H+  H353  1  0.33798609  0.17261430  0.77007734  1
  H+  H354  1  0.84879313  0.67504308  0.72839020  1
  H+  H355  1  0.56826889  0.35930769  0.72005622  1
  H+  H356  1  0.98931228  0.10874485  0.98139962  1
  H+  H357  1  0.53745999  0.60612985  0.61606751  1
  H+  H358  1  0.51632975  0.35155734  0.65816404  1
  H+  H359  1  0.91220355  0.31335744  0.88505706  1
  H+  H360  1  0.41871345  0.84434318  0.93570420  1
  H+  H361  1  0.63935857  0.28302154  0.58706081  1
  H+  H362  1  0.05961961  0.37211671  0.05126347  1
  H+  H363  1  0.65642830  0.81695152  0.26956984  1
  H+  H364  1  0.37758824  0.84436536  0.84110015  1
  H+  H365  1  0.15613858  0.82985081  0.60022085  1
  H+  H366  1  0.26637309  0.62603364  0.83135547  1
  H+  H367  1  0.43153879  0.06816255  0.24137804  1
  H+  H368  1  0.89186435  0.28288428  0.32636830  1
  H+  H369  1  0.13433885  0.99086061  0.34425279  1
  H+  H370  1  0.29704259  0.90141807  0.06814612  1
  H+  H371  1  0.15605338  0.33610868  0.54346153  1
  H+  H372  1  0.44410540  0.86411044  0.27486617  1
  H+  H373  1  0.34217970  0.68905543  0.43994818  1
  H+  H374  1  0.67229667  0.31901118  0.88821218  1
  H+  H375  1  0.07660998  0.15735322  0.38868985  1
  H+  H376  1  0.59435923  0.94131588  0.41525677  1
  H+  H377  1  0.16630527  0.07601815  0.26039571  1
  H+  H378  1  0.57676784  0.66992856  0.75447587  1
  H+  H379  1  0.91761918  0.83270276  0.88758312  1
  H+  H380  1  0.41991685  0.84312219  0.60590952  1
  H+  H381  1  0.56557762  0.14131360  0.76889857  1
  H+  H382  1  0.44962285  0.52542248  0.68641260  1
  H+  H383  1  0.82265910  0.41133907  0.40432465  1
  O2-  O384  1  0.09114039  0.14207085  0.12899697  1
  O2-  O385  1  0.09164745  0.17111606  0.46399176  1
  O2-  O386  1  0.08268401  0.16988815  0.81194626  1
  O2-  O387  1  0.10922784  0.47556300  0.16531719  1
  O2-  O388  1  0.07661532  0.41368398  0.44258786  1
  O2-  O389  1  0.08251787  0.40808177  0.79950376  1
  O2-  O390  1  0.06128724  0.64434843  0.13563527  1
  O2-  O391  1  0.06472951  0.65546144  0.47719447  1
  O2-  O392  1  0.06875068  0.64314287  0.80601145  1
  O2-  O393  1  0.07175987  0.89071054  0.14162418  1
  O2-  O394  1  0.09057238  0.93319594  0.48909780  1
  O2-  O395  1  0.09773249  0.92968712  0.81165631  1
  O2-  O396  1  0.33185821  0.12684683  0.14733309  1
  O2-  O397  1  0.33692306  0.18073080  0.47867830  1
  O2-  O398  1  0.33910238  0.17228313  0.81740359  1
  O2-  O399  1  0.33884731  0.45594803  0.13392427  1
  O2-  O400  1  0.33858476  0.44755584  0.48201637  1
  O2-  O401  1  0.35066868  0.42149656  0.81805073  1
  O2-  O402  1  0.33901671  0.70704736  0.17947617  1
  O2-  O403  1  0.34040486  0.68771743  0.48526525  1
  O2-  O404  1  0.32780975  0.66270545  0.82069950  1
  O2-  O405  1  0.30035444  0.89229360  0.14315946  1
  O2-  O406  1  0.35097008  0.94220940  0.48689231  1
  O2-  O407  1  0.28655016  0.83922390  0.79526180  1
  O2-  O408  1  0.59895115  0.15134709  0.14757934  1
  O2-  O409  1  0.60734015  0.19355213  0.48795107  1
  O2-  O410  1  0.57095341  0.14363770  0.81488758  1
  O2-  O411  1  0.54905073  0.32924531  0.12042756  1
  O2-  O412  1  0.58207540  0.43696398  0.48616371  1
  O2-  O413  1  0.56070719  0.36941044  0.79777919  1
  O2-  O414  1  0.58025394  0.67593939  0.14183275  1
  O2-  O415  1  0.59147000  0.68626955  0.49224149  1
  O2-  O416  1  0.57635191  0.66133168  0.80131883  1
  O2-  O417  1  0.59262606  0.92108483  0.14994407  1
  O2-  O418  1  0.59473553  0.93579633  0.48395201  1
  O2-  O419  1  0.57591149  0.90195982  0.81782141  1
  O2-  O420  1  0.82626838  0.09534310  0.12592883  1
  O2-  O421  1  0.83747398  0.16874931  0.47588674  1
  O2-  O422  1  0.83585051  0.16921479  0.76948581  1
  O2-  O423  1  0.82981713  0.43939503  0.14505794  1
  O2-  O424  1  0.81439258  0.40653607  0.46717259  1
  O2-  O425  1  0.83541259  0.40702145  0.81327178  1
  O2-  O426  1  0.89992655  0.74976383  0.14284958  1
  O2-  O427  1  0.82812375  0.66808670  0.48752265  1
  O2-  O428  1  0.85542414  0.67232574  0.81070589  1
  O2-  O429  1  0.83141784  0.90015729  0.13819473  1
  O2-  O430  1  0.83792812  0.92065758  0.47480383  1
  O2-  O431  1  0.83823760  0.91950007  0.81123520  1
  O2-  O432  1  0.15610017  0.05743461  0.17442771  1
  O2-  O433  1  0.17548001  0.10001723  0.52621652  1
  O2-  O434  1  0.16217600  0.09262271  0.86093238  1
  O2-  O435  1  0.19922073  0.30915169  0.18762185  1
  O2-  O436  1  0.16456880  0.33857335  0.49891351  1
  O2-  O437  1  0.17703545  0.34011141  0.84612329  1
  O2-  O438  1  0.19760891  0.60781808  0.22935496  1
  O2-  O439  1  0.17379401  0.59856920  0.53219673  1
  O2-  O440  1  0.14694101  0.56588739  0.84308466  1
  O2-  O441  1  0.14513318  0.78958412  0.19868441  1
  O2-  O442  1  0.17011369  0.84230550  0.48968017  1
  O2-  O443  1  0.15495838  0.83441929  0.85051431  1
  O2-  O444  1  0.43353803  0.05270664  0.19743832  1
  O2-  O445  1  0.42891233  0.10810112  0.52718395  1
  O2-  O446  1  0.41455853  0.10248972  0.86083161  1
  O2-  O447  1  0.40830852  0.28409383  0.19485671  1
  O2-  O448  1  0.40748748  0.34466875  0.52385539  1
  O2-  O449  1  0.41562099  0.32550465  0.86101063  1
  O2-  O450  1  0.41607513  0.61285783  0.18855897  1
  O2-  O451  1  0.42162299  0.61038971  0.53176329  1
  O2-  O452  1  0.41871813  0.58649189  0.85503154  1
  O2-  O453  1  0.45233922  0.90829161  0.20344929  1
  O2-  O454  1  0.42781753  0.85234148  0.52822206  1
  O2-  O455  1  0.41143746  0.82277514  0.86268493  1
  O2-  O456  1  0.68884643  0.07823970  0.19809289  1
  O2-  O457  1  0.67974016  0.09745096  0.53120129  1
  O2-  O458  1  0.64348960  0.05678456  0.85342993  1
  O2-  O459  1  0.67156636  0.31870471  0.18734981  1
  O2-  O460  1  0.64035152  0.28240504  0.50999319  1
  O2-  O461  1  0.66927466  0.31433004  0.84393391  1
  O2-  O462  1  0.66645684  0.61635334  0.19715536  1
  O2-  O463  1  0.66370149  0.59413420  0.53229449  1
  O2-  O464  1  0.63357843  0.53757976  0.77447050  1
  O2-  O465  1  0.66732698  0.83490352  0.18805843  1
  O2-  O466  1  0.67707595  0.85430416  0.52268847  1
  O2-  O467  1  0.66542534  0.82301651  0.84987046  1
  O2-  O468  1  0.94254058  0.07248112  0.17187828  1
  O2-  O469  1  0.92527682  0.08340358  0.50682019  1
  O2-  O470  1  0.92697201  0.07636942  0.84907547  1
  O2-  O471  1  0.96010139  0.43948140  0.21075351  1
  O2-  O472  1  0.91189503  0.34117995  0.49802415  1
  O2-  O473  1  0.91490154  0.31728522  0.83961147  1
  O2-  O474  1  0.90766841  0.61047845  0.18480899  1
  O2-  O475  1  0.89597616  0.56815159  0.51613833  1
  O2-  O476  1  0.91544948  0.57197521  0.85327592  1
  O2-  O477  1  0.83486588  0.76061977  0.17612709  1
  O2-  O478  1  0.91946196  0.84161913  0.52350699  1
  O2-  O479  1  0.93232013  0.84261463  0.84325040  1
  O2-  O480  1  0.17245432  0.08524789  0.30494021  1
  O2-  O481  1  0.16127116  0.09365876  0.64948274  1
  O2-  O482  1  0.15799151  0.13660081  0.99039638  1
  O2-  O483  1  0.15160305  0.31993935  0.30159394  1
  O2-  O484  1  0.15017836  0.32509521  0.62902143  1
  O2-  O485  1  0.16788341  0.33063532  0.96865470  1
  O2-  O486  1  0.22023127  0.57560047  0.28404723  1
  O2-  O487  1  0.16335742  0.58625832  0.64916099  1
  O2-  O488  1  0.13097613  0.55024564  0.96796141  1
  O2-  O489  1  0.13650983  0.76016145  0.32637198  1
  O2-  O490  1  0.15832316  0.83270378  0.64471178  1
  O2-  O491  1  0.14623270  0.82003070  0.96673569  1
  O2-  O492  1  0.42892138  0.08620044  0.31711499  1
  O2-  O493  1  0.40196621  0.08376677  0.65007924  1
  O2-  O494  1  0.40700083  0.07340928  0.98680700  1
  O2-  O495  1  0.42143114  0.32290657  0.30972608  1
  O2-  O496  1  0.41811589  0.33134517  0.64470900  1
  O2-  O497  1  0.40938560  0.32395162  0.98707661  1
  O2-  O498  1  0.40471177  0.56732810  0.37298077  1
  O2-  O499  1  0.51239531  0.62086344  0.65048537  1
  O2-  O500  1  0.42485255  0.59687117  0.98175727  1
  O2-  O501  1  0.44285466  0.85328329  0.31980265  1
  O2-  O502  1  0.41588311  0.84334327  0.65137593  1
  O2-  O503  1  0.42673211  0.86214681  0.98030815  1
  O2-  O504  1  0.67327200  0.09226672  0.31893448  1
  O2-  O505  1  0.65336896  0.07353618  0.65427187  1
  O2-  O506  1  0.66762749  0.06895455  0.96996263  1
  O2-  O507  1  0.67748497  0.33988128  0.31128533  1
  O2-  O508  1  0.64182907  0.28871181  0.63286041  1
  O2-  O509  1  0.59735279  0.28697252  1.01122572  1
  O2-  O510  1  0.65514372  0.57990170  0.31919121  1
  O2-  O511  1  0.67086960  0.59565265  0.66162905  1
  O2-  O512  1  0.67815910  0.59992379  0.99787144  1
  O2-  O513  1  0.65132643  0.81221804  0.31448303  1
  O2-  O514  1  0.67188814  0.84064871  0.64575848  1
  O2-  O515  1  0.67700041  0.83232123  0.97432569  1
  O2-  O516  1  0.87263881  0.05865844  0.29193870  1
  O2-  O517  1  0.89855825  0.10323126  0.68679866  1
  O2-  O518  1  0.92910103  0.08009517  0.96607078  1
  O2-  O519  1  0.91593409  0.34422450  0.31393146  1
  O2-  O520  1  0.92914312  0.34650343  0.62308781  1
  O2-  O521  1  0.90317723  0.31628183  0.96440635  1
  O2-  O522  1  0.95915452  0.56141793  0.28668095  1
  O2-  O523  1  0.91742238  0.58951997  0.63803285  1
  O2-  O524  1  0.90459470  0.57545617  0.97540590  1
  O2-  O525  1  0.88060924  0.81151321  0.29402834  1
  O2-  O526  1  0.92534994  0.84795186  0.64932199  1
  O2-  O527  1  0.86355379  0.80443541  0.95585411  1
  O2-  O528  1  0.09667358  0.16490141  0.00891406  1
  O2-  O529  1  0.07187071  0.15194310  0.34282823  1
  O2-  O530  1  0.07514069  0.17323639  0.68929826  1
  O2-  O531  1  0.06766965  0.38748798  0.00820707  1
  O2-  O532  1  0.08657223  0.42691179  0.32523274  1
  O2-  O533  1  0.08155905  0.41992984  0.67538538  1
  O2-  O534  1  0.06921538  0.65575429  0.01194228  1
  O2-  O535  1  0.10593804  0.67256275  0.35117819  1
  O2-  O536  1  0.07208143  0.66932359  0.69163409  1
  O2-  O537  1  0.08796529  0.92079215  0.02085929  1
  O2-  O538  1  0.11197851  0.93604962  0.36797119  1
  O2-  O539  1  0.09008721  0.92633690  0.68871466  1
  O2-  O540  1  0.34800212  0.16689720  0.03215409  1
  O2-  O541  1  0.33719712  0.16115197  0.35362505  1
  O2-  O542  1  0.33094320  0.17279481  0.69907240  1
  O2-  O543  1  0.33051534  0.42736533  0.01327091  1
  O2-  O544  1  0.30245196  0.35901661  0.35675849  1
  O2-  O545  1  0.40161508  0.46633581  0.69801540  1
  O2-  O546  1  0.36768477  0.70686643  0.05036496  1
  O2-  O547  1  0.35729502  0.68895447  0.35878385  1
  O2-  O548  1  0.33007250  0.68409453  0.69209867  1
  O2-  O549  1  0.30124673  0.90652431  0.02210779  1
  O2-  O550  1  0.34948160  0.92025351  0.36441624  1
  O2-  O551  1  0.32460502  0.91464896  0.68733147  1
  O2-  O552  1  0.56995258  0.12445925  0.02699308  1
  O2-  O553  1  0.59466514  0.18126639  0.36183931  1
  O2-  O554  1  0.56083549  0.14270707  0.69296246  1
  O2-  O555  1  0.57564565  0.43306266  0.02331819  1
  O2-  O556  1  0.57774722  0.41735867  0.35639194  1
  O2-  O557  1  0.57424573  0.36509896  0.67470255  1
  O2-  O558  1  0.58836948  0.67227574  0.02265840  1
  O2-  O559  1  0.57517752  0.65958167  0.36955503  1
  O2-  O560  1  0.59292442  0.68092822  0.68426369  1
  O2-  O561  1  0.59779733  0.91243131  0.02313343  1
  O2-  O562  1  0.59395707  0.94279047  0.36778286  1
  O2-  O563  1  0.57790806  0.91020083  0.69022756  1
  O2-  O564  1  0.83044398  0.14982547  0.00617508  1
  O2-  O565  1  0.83890024  0.17662611  0.35295349  1
  O2-  O566  1  0.76303901  0.17672193  0.74562633  1
  O2-  O567  1  0.83016084  0.41124326  0.01856150  1
  O2-  O568  1  0.82872106  0.41154000  0.35463678  1
  O2-  O569  1  0.89840307  0.44626676  0.69832452  1
  O2-  O570  1  0.84741251  0.67928914  0.02844742  1
  O2-  O571  1  0.81670401  0.65205489  0.36071076  1
  O2-  O572  1  0.84426015  0.67901583  0.68377497  1
  O2-  O573  1  0.83919076  0.92442464  0.01560717  1
  O2-  O574  1  0.82561084  0.91302053  0.35024931  1
  O2-  O575  1  0.83031474  0.92092826  0.69164286  1
