# generated using pymatgen
data_H2O
_symmetry_space_group_name_H-M   'P 1'
_cell_length_a   17.97104227
_cell_length_b   17.97860901
_cell_length_c   21.98654986
_cell_angle_alpha   89.99915975
_cell_angle_beta   90.05041610
_cell_angle_gamma   119.96710794
_symmetry_Int_Tables_number   1
_chemical_formula_structural   H2O
_chemical_formula_sum   'H384 O192'
_cell_volume   6154.04542870
_cell_formula_units_Z   192
loop_
 _symmetry_equiv_pos_site_id
 _symmetry_equiv_pos_as_xyz
  1  'x, y, z'
loop_
 _atom_type_symbol
 _atom_type_oxidation_number
  H+  1.0
  O2-  -2.0
loop_
 _atom_site_type_symbol
 _atom_site_label
 _atom_site_symmetry_multiplicity
 _atom_site_fract_x
 _atom_site_fract_y
 _atom_site_fract_z
 _atom_site_occupancy
  H+  H0  1  0.72528367  0.87536825  0.17239514  1
  H+  H1  1  0.66919926  0.07570459  0.72339355  1
  H+  H2  1  0.15129602  0.08261512  0.59015965  1
  H+  H3  1  0.34146520  0.24866038  0.67645114  1
  H+  H4  1  0.11276507  0.97628040  0.82496061  1
  H+  H5  1  0.39053958  0.39049160  0.82589966  1
  H+  H6  1  -0.01618562  0.87606107  0.83777678  1
  H+  H7  1  0.13832139  0.86905314  0.83855756  1
  H+  H8  1  0.86205451  0.38169096  0.15835852  1
  H+  H9  1  0.39594941  0.60085199  0.53112211  1
  H+  H10  1  0.47043636  0.35398870  0.66644666  1
  H+  H11  1  0.62100730  0.32612642  -0.02371283  1
  H+  H12  1  0.10918238  0.46672360  0.30417727  1
  H+  H13  1  0.13049143  0.85517428  0.32862892  1
  H+  H14  1  0.41371286  0.48895341  -0.00499401  1
  H+  H15  1  0.39115513  0.78204023  0.83572221  1
  H+  H16  1  0.65302112  0.12531761  0.84612005  1
  H+  H17  1  0.39735244  0.37738044  0.66110027  1
  H+  H18  1  0.61348129  0.58751566  0.65245837  1
  H+  H19  1  0.50741991  0.07639122  0.67624676  1
  H+  H20  1  0.12660127  0.85636002  0.17318468  1
  H+  H21  1  0.27647267  0.65697021  0.00249154  1
  H+  H22  1  0.26435470  0.14942816  0.48518337  1
  H+  H23  1  0.58462243  0.32582172  0.64773797  1
  H+  H24  1  0.39556083  0.09284351  0.14445293  1
  H+  H25  1  0.92363365  0.57624897  0.27887718  1
  H+  H26  1  0.11374974  -0.02643867  0.15462375  1
  H+  H27  1  0.27984992  0.90104906  0.82988513  1
  H+  H28  1  0.61716453  0.63171287  0.49703358  1
  H+  H29  1  0.87616062  0.61518073  0.51901169  1
  H+  H30  1  0.33489087  0.09333109  0.66456248  1
  H+  H31  1  0.63065192  0.24338090  0.66917026  1
  H+  H32  1  0.27715131  0.64872878  0.83480847  1
  H+  H33  1  0.37052343  0.14130184  0.81709017  1
  H+  H34  1  0.68545342  0.30960836  0.83429454  1
  H+  H35  1  0.89817653  0.30115141  0.86142059  1
  H+  H36  1  0.09811986  0.96666827  0.66938954  1
  H+  H37  1  0.64222936  0.47980213  0.10720094  1
  H+  H38  1  0.46198838  0.86167479  0.65779900  1
  H+  H39  1  0.39835111  0.03787333  0.83608469  1
  H+  H40  1  0.34494683  0.88388919  0.67396664  1
  H+  H41  1  0.59067505  0.67192145  0.40264217  1
  H+  H42  1  0.86996230  0.47628191  0.34911172  1
  H+  H43  1  0.89558208  0.51002868  0.67622385  1
  H+  H44  1  0.88381948  0.11281770  0.66999547  1
  H+  H45  1  0.89868522  0.37237782  0.68169410  1
  H+  H46  1  0.83310624  0.68056535  0.08783301  1
  H+  H47  1  0.68141154  0.39391566  0.82432148  1
  H+  H48  1  0.98450235  0.62617785  0.97793406  1
  H+  H49  1  0.38437304  0.51680014  0.83831000  1
  H+  H50  1  0.01883084  0.37965369  0.29976534  1
  H+  H51  1  0.64000969  0.28503368  0.31367548  1
  H+  H52  1  0.71018244  0.85112174  0.65848741  1
  H+  H53  1  0.64890520  1.03403695  0.84244065  1
  H+  H54  1  0.38481361  0.35738356  0.50061871  1
  H+  H55  1  0.09138518  0.11156177  0.67021176  1
  H+  H56  1  0.62628870  0.61545607  0.82477549  1
  H+  H57  1  0.40423106  0.27295828  0.83322596  1
  H+  H58  1  0.05340307  0.39399182  -0.00923256  1
  H+  H59  1  0.77826908  0.89993451  0.34334321  1
  H+  H60  1  0.64371296  0.60954055  0.98918860  1
  H+  H61  1  0.77512332  0.63081198  0.99059526  1
  H+  H62  1  0.86754938  0.13643293  0.34728884  1
  H+  H63  1  1.08406100  0.91978032  0.43142550  1
  H+  H64  1  0.53939615  0.62785226  1.00676975  1
  H+  H65  1  0.22394594  0.09843833  0.98694507  1
  H+  H66  1  -0.02884164  0.60484608  0.18534236  1
  H+  H67  1  0.11752557  0.22009533  0.33872448  1
  H+  H68  1  0.11859552  0.76400846  0.66282799  1
  H+  H69  1  0.88216716  0.59458261  0.66674996  1
  H+  H70  1  0.65139292  0.55301553  0.20159998  1
  H+  H71  1  0.86557806  0.22603648  0.15350773  1
  H+  H72  1  0.13930072  0.63192178  0.99812447  1
  H+  H73  1  0.82594957  0.95183991  0.49322647  1
  H+  H74  1  0.77924493  0.12988578  0.51653032  1
  H+  H75  1  0.23223637  0.10386976  0.16163910  1
  H+  H76  1  0.63234208  0.15259400  0.18228985  1
  H+  H77  1  0.85835064  0.89489622  0.15401504  1
  H+  H78  1  0.21241585  0.85108671  0.17025626  1
  H+  H79  1  0.98864204  0.38768897  0.85544319  1
  H+  H80  1  0.14357523  0.62785376  0.84205091  1
  H+  H81  1  0.64035965  0.76987294  0.98713132  1
  H+  H82  1  0.38179131  0.01021535  0.33851870  1
  H+  H83  1  0.41670936  0.36202801  0.15483608  1
  H+  H84  1  0.89275904  0.03220372  0.32337324  1
  H+  H85  1  0.34003904  0.36768748  0.36245769  1
  H+  H86  1  0.16078114  0.82556826  0.26973384  1
  H+  H87  1  0.41910982  0.10509952  0.88992770  1
  H+  H88  1  0.58665299  0.40836308  0.73320932  1
  H+  H89  1  0.25469814  0.37175853  0.35566728  1
  H+  H90  1  0.10473433  0.96883699  0.00347570  1
  H+  H91  1  0.46909224  0.09532968  0.35179815  1
  H+  H92  1  0.64259856  0.01301413  0.99098281  1
  H+  H93  1  0.38846688  0.79038290  0.98412191  1
  H+  H94  1  0.92070606  0.74243372  0.38333826  1
  H+  H95  1  0.22584766  0.36266340  0.15907191  1
  H+  H96  1  0.35392608  0.61415505  0.16359912  1
  H+  H97  1  0.71924115  0.28672060  0.70449332  1
  H+  H98  1  0.11944672  0.72212921  0.34741448  1
  H+  H99  1  0.86042701  0.22730950  0.50959624  1
  H+  H100  1  0.71921728  0.85795672  0.83341592  1
  H+  H101  1  0.63879513  0.65863955  0.34746728  1
  H+  H102  1  0.09626951  0.87697186  0.67396523  1
  H+  H103  1  0.35529946  0.45415194  0.51035600  1
  H+  H104  1  0.61402101  0.89091547  0.82234661  1
  H+  H105  1  0.63507688  0.51806725  0.97187406  1
  H+  H106  1  0.55641707  0.90298316  0.43835911  1
  H+  H107  1  0.68446922  0.85311572  0.50670008  1
  H+  H108  1  0.11842883  0.71915370  0.50350852  1
  H+  H109  1  0.15654384  0.25517191  0.83637270  1
  H+  H110  1  0.37086470  0.85099255  0.35251364  1
  H+  H111  1  0.12006800  0.48875051  0.84182475  1
  H+  H112  1  0.89180994  1.02999160  0.17002075  1
  H+  H113  1  0.60214282  0.19866395  0.39466416  1
  H+  H114  1  0.58255517  0.15051467  0.54569500  1
  H+  H115  1  0.63641797  1.05908351  0.53940810  1
  H+  H116  1  0.49317884  0.60527290  0.51597859  1
  H+  H117  1  0.20561142  0.85430242  0.66528412  1
  H+  H118  1  0.91969584  0.49151760  0.95783914  1
  H+  H119  1  0.84555551  0.87500638  0.67272388  1
  H+  H120  1  0.51099667  0.36752707  0.97872193  1
  H+  H121  1  0.27319131  0.64657234  0.68347990  1
  H+  H122  1  0.17146374  0.36549003  0.98594963  1
  H+  H123  1  0.84546537  0.38524699  1.00152121  1
  H+  H124  1  0.33717841  0.68107925  0.74014323  1
  H+  H125  1  0.48030177  0.87272552  0.83268846  1
  H+  H126  1  0.61538578  0.38853243  0.48142236  1
  H+  H127  1  0.11022567  0.38779373  0.68794977  1
  H+  H128  1  0.22479907  0.87411663  0.99372979  1
  H+  H129  1  0.36960924  0.35441864  0.02038940  1
  H+  H130  1  0.54856499  0.15785299  0.82617932  1
  H+  H131  1  0.53896526  0.14190688  0.16962549  1
  H+  H132  1  0.14320062  0.51072589  0.52452415  1
  H+  H133  1  0.73349632  0.12166928  0.18952874  1
  H+  H134  1  0.63965366  0.87146877  0.33787035  1
  H+  H135  1  0.45656675  0.07230710  0.10640260  1
  H+  H136  1  0.97781744  0.10321579  0.99635973  1
  H+  H137  1  0.03418663  0.63064753  0.34977570  1
  H+  H138  1  0.45639394  0.34490905  0.33170062  1
  H+  H139  1  0.02007119  0.88940225  0.15453740  1
  H+  H140  1  0.13631272  0.54225763  -0.00339327  1
  H+  H141  1  0.64055249  0.27768265  0.17762266  1
  H+  H142  1  0.76744734  0.62090073  0.68309772  1
  H+  H143  1  0.55084996  0.39576231  0.12140595  1
  H+  H144  1  0.88412376  0.23916831  0.68602683  1
  H+  H145  1  0.88794850  1.01160823  -0.00544927  1
  H+  H146  1  0.29468093  0.37445828  0.82352110  1
  H+  H147  1  0.34438267  0.69898519  0.14286040  1
  H+  H148  1  0.86108897  0.97703740  0.82679431  1
  H+  H149  1  0.65365138  0.29057696  0.49212393  1
  H+  H150  1  0.55031700  0.39272786  0.82657742  1
  H+  H151  1  0.52850769  0.88873620  -0.00934950  1
  H+  H152  1  0.72639678  0.10147028  0.34953370  1
  H+  H153  1  0.31804113  0.99831023  0.65809297  1
  H+  H154  1  0.11060523  0.11993011  0.82561448  1
  H+  H155  1  0.77637550  0.65216762  0.35144515  1
  H+  H156  1  0.89516558  0.13992796  0.52297423  1
  H+  H157  1  0.11697699  0.21703656  1.00484925  1
  H+  H158  1  0.48032854  0.35789120  0.48911337  1
  H+  H159  1  0.75976493  0.11073540  1.00549722  1
  H+  H160  1  0.12606836  0.19050056  0.49972321  1
  H+  H161  1  0.87937733  0.35632415  0.32568694  1
  H+  H162  1  0.98963756  0.60337441  0.52259646  1
  H+  H163  1  0.84199881  0.41780030  0.44271106  1
  H+  H164  1  0.42402144  0.59304275  0.23430613  1
  H+  H165  1  0.86317387  0.69252870  0.53810367  1
  H+  H166  1  0.84309236  0.96301710  0.67169471  1
  H+  H167  1  0.39097845  0.48527530  0.17472066  1
  H+  H168  1  0.14506280  0.61192723  0.33207117  1
  H+  H169  1  0.11324047  0.36232615  0.51249071  1
  H+  H170  1  0.61252928  0.74214133  0.16166299  1
  H+  H171  1  0.14332862  0.29322660  0.57257833  1
  H+  H172  1  0.72880659  0.59983963  0.51068513  1
  H+  H173  1  0.88766101  0.87628376  0.83913283  1
  H+  H174  1  0.89471112  0.81677748  0.49661864  1
  H+  H175  1  0.24761659  0.34965671  1.00260159  1
  H+  H176  1  0.38156013  0.26077643  0.48910995  1
  H+  H177  1  0.02283073  0.12446633  0.82925521  1
  H+  H178  1  0.36795182  0.69370314  0.51841826  1
  H+  H179  1  0.36547059  0.66083788  0.99529927  1
  H+  H180  1  0.96201980  0.85578626  0.66543092  1
  H+  H181  1  0.91864012  0.33699560  0.61749526  1
  H+  H182  1  0.60113462  0.11202356  1.02642291  1
  H+  H183  1  0.14026532  0.52708496  0.67609010  1
  H+  H184  1  0.98294703  0.11820362  0.32701475  1
  H+  H185  1  0.87193910  0.78256221  0.30673318  1
  H+  H186  1  0.48237875  0.85811157  0.50054345  1
  H+  H187  1  0.32827303  0.45990631  0.68526536  1
  H+  H188  1  0.38200218  0.90666230  -0.00368727  1
  H+  H189  1  0.88592128  0.87495330  0.32088300  1
  H+  H190  1  0.33996655  0.39940881  0.21109982  1
  H+  H191  1  0.57782759  0.86597028  0.50473713  1
  H+  H192  1  0.36270593  0.83487375  0.14465692  1
  H+  H193  1  0.63679981  0.10037064  0.35543405  1
  H+  H194  1  0.35630791  0.95171900  0.14994271  1
  H+  H195  1  0.69369829  0.56384706  0.34511633  1
  H+  H196  1  0.01690055  0.62883944  0.67837100  1
  H+  H197  1  0.20707150  0.11279865  0.65102881  1
  H+  H198  1  0.09079178  0.67597966  0.76622219  1
  H+  H199  1  0.60640924  0.23574205  0.00148793  1
  H+  H200  1  0.13715530  0.10488809  -0.00834582  1
  H+  H201  1  0.60500729  0.46028446  0.67132009  1
  H+  H202  1  0.88263793  0.76417809  -0.01787769  1
  H+  H203  1  0.21558063  0.86265161  0.51397001  1
  H+  H204  1  0.86968925  0.13891117  0.15870946  1
  H+  H205  1  -0.02491649  0.35523317  0.52306528  1
  H+  H206  1  0.36206829  0.64078102  0.83361737  1
  H+  H207  1  0.87442946  0.47531451  0.50450323  1
  H+  H208  1  0.12960517  0.35285130  0.30834832  1
  H+  H209  1  0.60778803  0.97398193  0.36172621  1
  H+  H210  1  0.82823922  0.14949537  0.07038546  1
  H+  H211  1  0.35981049  0.11531988  0.34546663  1
  H+  H212  1  0.88894562  0.36191821  0.51734808  1
  H+  H213  1  0.64872304  0.36964354  0.16080902  1
  H+  H214  1  0.34523226  0.98561225  0.50108558  1
  H+  H215  1  0.03809481  0.27415297  0.63016816  1
  H+  H216  1  0.87845800  0.26704487  0.32619893  1
  H+  H217  1  0.12094766  0.13685794  0.15620471  1
  H+  H218  1  0.89491827  0.11691024  0.84716463  1
  H+  H219  1  0.36488854  0.91048981  0.50621204  1
  H+  H220  1  0.14001127  0.27207469  0.16230395  1
  H+  H221  1  0.63712973  0.85778056  0.98377423  1
  H+  H222  1  0.21859280  0.33229355  0.52150749  1
  H+  H223  1  0.03135704  0.13767453  0.15887291  1
  H+  H224  1  0.60290366  0.71450310  0.50106213  1
  H+  H225  1  0.62767164  0.48921197  0.81805918  1
  H+  H226  1  0.51137542  0.86684975  0.13329961  1
  H+  H227  1  0.10579241  0.63436651  0.16041977  1
  H+  H228  1  0.12304451  0.73947520  0.82472308  1
  H+  H229  1  0.77713554  0.39263623  0.34703584  1
  H+  H230  1  0.37263476  0.20384663  0.13303551  1
  H+  H231  1  0.12915400  0.03920864  0.49174766  1
  H+  H232  1  0.77072563  0.39062302  0.76088657  1
  H+  H233  1  0.17335320  0.60374528  0.90435680  1
  H+  H234  1  0.90522865  0.61320797  0.34140015  1
  H+  H235  1  0.85278764  0.70995712  0.67762544  1
  H+  H236  1  0.08365626  0.40129399  0.45995314  1
  H+  H237  1  0.92692927  1.06805692  0.51568313  1
  H+  H238  1  0.33949193  0.78873009  0.51818634  1
  H+  H239  1  0.02025651  0.88599558  0.33551823  1
  H+  H240  1  0.13907859  0.10418789  0.31842768  1
  H+  H241  1  0.88537002  0.51580651  0.18531850  1
  H+  H242  1  0.50788324  0.63620496  0.82078611  1
  H+  H243  1  0.35961141  0.71242907  0.36772175  1
  H+  H244  1  0.11177462  0.97088079  0.33443712  1
  H+  H245  1  0.34574301  0.04747022  0.98288407  1
  H+  H246  1  0.77037364  0.88038579  -0.00188312  1
  H+  H247  1  0.61637057  0.65646327  0.16756512  1
  H+  H248  1  0.11020905  0.38793077  0.15135907  1
  H+  H249  1  0.67498452  0.15352420  0.68542319  1
  H+  H250  1  0.73838493  0.37748534  0.50487829  1
  H+  H251  1  0.92636805  0.56859898  0.58321229  1
  H+  H252  1  0.90540246  0.93767307  0.49381059  1
  H+  H253  1  0.60310397  0.97485889  0.66714288  1
  H+  H254  1  0.00045683  0.43898647  0.00333357  1
  H+  H255  1  0.88504718  0.78740088  0.15796000  1
  H+  H256  1  0.10996882  0.63560496  0.67768749  1
  H+  H257  1  0.08791289  0.23532972  0.66344539  1
  H+  H258  1  0.23190369  0.10987603  0.83820529  1
  H+  H259  1  0.97139283  0.85514408  0.98880095  1
  H+  H260  1  0.51426739  0.88345208  0.35761956  1
  H+  H261  1  0.77905814  0.65924379  0.14966560  1
  H+  H262  1  0.34858002  0.29132300  0.94728501  1
  H+  H263  1  0.85991590  0.11342028  0.00911540  1
  H+  H264  1  0.47883072  0.62434541  0.17148165  1
  H+  H265  1  0.10106059  0.72035124  0.16317943  1
  H+  H266  1  0.64575804  0.78672119  0.33322523  1
  H+  H267  1  0.86603204  0.63459391  -0.00788762  1
  H+  H268  1  0.60512098  0.88430613  0.14840957  1
  H+  H269  1  0.48614258  0.51628385  0.94629757  1
  H+  H270  1  0.35313876  0.20236011  0.34200741  1
  H+  H271  1  0.96350390  0.09497906  0.66791507  1
  H+  H272  1  0.47854282  0.08413837  0.65572745  1
  H+  H273  1  0.11241829  0.73609800  1.00930872  1
  H+  H274  1  0.60401897  0.38368106  0.32607859  1
  H+  H275  1  0.15015187  0.60335578  0.51653011  1
  H+  H276  1  0.11318850  0.89407318  0.49410308  1
  H+  H277  1  0.57650741  0.45541735  0.31653302  1
  H+  H278  1  0.25174012  0.60892658  0.16587774  1
  H+  H279  1  0.26185642  0.87432124  0.34598660  1
  H+  H280  1  0.79459415  0.15117636  0.69255386  1
  H+  H281  1  0.98925399  0.64155523  0.82552364  1
  H+  H282  1  0.22432900  0.09716519  0.32194335  1
  H+  H283  1  0.39692439  0.61330473  0.32912191  1
  H+  H284  1  0.07445812  0.91338988  0.76645781  1
  H+  H285  1  0.59677719  0.72616501  0.81570719  1
  H+  H286  1  0.28082113  0.60413579  0.51757939  1
  H+  H287  1  0.73316432  0.32871686  0.01406466  1
  H+  H288  1  1.02773400  0.39587700  0.68881394  1
  H+  H289  1  0.36306321  0.06917184  0.57299341  1
  H+  H290  1  0.46000108  0.58652535  0.58765504  1
  H+  H291  1  0.66545401  0.59420524  0.88273173  1
  H+  H292  1  0.90945890  0.32650899  0.22728283  1
  H+  H293  1  0.58066169  0.41669687  0.42289986  1
  H+  H294  1  0.15109997  0.82976609  0.57054667  1
  H+  H295  1  0.41662955  0.57058209  0.89855815  1
  H+  H296  1  0.66779599  0.84951289  0.23295994  1
  H+  H297  1  0.87455042  0.65743951  0.77739874  1
  H+  H298  1  0.84049079  0.16488881  0.40938491  1
  H+  H299  1  0.67740857  0.08519496  0.93764680  1
  H+  H300  1  0.42409850  0.99801873  0.02417020  1
  H+  H301  1  0.59378037  0.67279064  0.06680351  1
  H+  H302  1  0.32730907  0.17414366  0.76559524  1
  H+  H303  1  0.36775527  0.89845306  0.82540132  1
  H+  H304  1  0.54055537  0.66772667  0.72605494  1
  H+  H305  1  0.00115083  0.37179509  0.40172464  1
  H+  H306  1  0.40620413  0.81024394  0.19710711  1
  H+  H307  1  0.16926831  0.84157042  0.89834624  1
  H+  H308  1  0.80616578  0.37591846  0.07471842  1
  H+  H309  1  0.68971485  0.07856725  0.59921584  1
  H+  H310  1  0.09565948  0.15553347  0.39566186  1
  H+  H311  1  0.22904546  0.60290923  0.33371952  1
  H+  H312  1  0.07545371  0.90972385  0.06379015  1
  H+  H313  1  0.70172946  0.62702068  0.24784484  1
  H+  H314  1  0.17405249  0.32113063  0.26392708  1
  H+  H315  1  0.06815144  0.13908769  0.73592036  1
  H+  H316  1  0.17578712  0.07991384  0.22329507  1
  H+  H317  1  0.85865305  0.18644101  0.78402401  1
  H+  H318  1  0.63566701  0.51792607  0.49935331  1
  H+  H319  1  0.65949810  0.56846909  0.59934918  1
  H+  H320  1  0.07425683  0.67059009  0.06625117  1
  H+  H321  1  0.58345922  0.90845048  0.05244069  1
  H+  H322  1  0.67222760  0.35019909  0.25959821  1
  H+  H323  1  0.13262096  0.86743456  0.99435848  1
  H+  H324  1  -0.02514039  0.36280902  0.17058600  1
  H+  H325  1  0.56452399  0.12240103  0.44097563  1
  H+  H326  1  0.90963779  0.83527392  0.60431372  1
  H+  H327  1  0.32216787  0.91649247  0.73555709  1
  H+  H328  1  0.07364032  0.42252278  0.09774216  1
  H+  H329  1  0.45913326  0.31611367  0.18861531  1
  H+  H330  1  0.35093930  0.39828838  0.07925709  1
  H+  H331  1  0.48959657  0.62349838  0.32229478  1
  H+  H332  1  0.79297691  0.15201016  0.83922514  1
  H+  H333  1  0.85772238  0.87708398  0.00263274  1
  H+  H334  1  0.67908356  0.09618055  0.25174934  1
  H+  H335  1  0.58751188  0.15466472  0.08515222  1
  H+  H336  1  0.33383006  0.13773369  0.07933016  1
  H+  H337  1  0.41969179  0.84840827  0.92314666  1
  H+  H338  1  0.46377674  0.54823641  0.67417501  1
  H+  H339  1  0.82888173  0.91404169  0.76765208  1
  H+  H340  1  0.82451060  0.92130238  0.09633575  1
  H+  H341  1  0.08781981  0.42331014  0.78767726  1
  H+  H342  1  0.31590081  0.39809609  0.44814489  1
  H+  H343  1  0.17031810  0.58141289  0.61449709  1
  H+  H344  1  0.91905126  0.84005783  0.90263565  1
  H+  H345  1  0.37242720  0.44498842  0.74300779  1
  H+  H346  1  0.61169113  0.76888746  0.65784156  1
  H+  H347  1  0.13217133  0.51857381  0.17582604  1
  H+  H348  1  0.91721440  0.40480076  0.92489649  1
  H+  H349  1  0.60258681  0.88604583  0.66501665  1
  H+  H350  1  0.32177118  0.90234252  0.08988758  1
  H+  H351  1  0.36918386  0.11475388  0.50853375  1
  H+  H352  1  0.33388080  0.63864747  0.41687017  1
  H+  H353  1  0.92022852  0.09876059  0.58826536  1
  H+  H354  1  0.48769572  0.09368991  0.52450288  1
  H+  H355  1  0.58511124  0.40223409  0.02746974  1
  H+  H356  1  0.99288272  0.88905527  0.50457427  1
  H+  H357  1  0.40003779  0.81126579  0.30006178  1
  H+  H358  1  0.31687718  0.90796429  0.40865782  1
  H+  H359  1  0.77321206  0.38305272  0.16208824  1
  H+  H360  1  0.65936346  0.82653770  0.89161187  1
  H+  H361  1  0.09424150  0.65938737  0.44514501  1
  H+  H362  1  0.43873431  0.32339347  0.89479289  1
  H+  H363  1  0.25621543  0.21484314  0.71562004  1
  H+  H364  1  0.91898403  0.07544615  0.90248464  1
  H+  H365  1  0.58256080  0.92040630  0.76380265  1
  H+  H366  1  0.16914966  0.07568155  0.89683862  1
  H+  H367  1  0.32411694  0.15820151  0.42718561  1
  H+  H368  1  0.92543363  0.09022888  0.22989917  1
  H+  H369  1  0.37911423  0.31377226  0.28512318  1
  H+  H370  1  0.64053386  0.82325690  0.57235510  1
  H+  H371  1  0.86545343  0.67203813  0.43273323  1
  H+  H372  1  0.85207240  0.94027774  0.39579695  1
  H+  H373  1  0.62615115  0.31116914  0.58908664  1
  H+  H374  1  0.93003622  0.60751937  0.91513032  1
  H+  H375  1  0.39541052  0.80973898  0.58303959  1
  H+  H376  1  0.37312834  0.76894058  0.66799486  1
  H+  H377  1  0.62135607  0.19635855  0.77447774  1
  H+  H378  1  0.01396106  0.41871100  0.40145357  1
  H+  H379  1  0.36398890  0.21790326  -0.01005909  1
  H+  H380  1  0.91480962  0.84634676  0.21900858  1
  H+  H381  1  0.19636148  0.31245192  0.89597161  1
  H+  H382  1  0.08574242  0.15987378  0.06478824  1
  H+  H383  1  0.17004985  0.58140348  0.23541240  1
  O2-  O384  1  0.09111821  0.16803043  0.14176229  1
  O2-  O385  1  0.10443863  0.13351006  0.47892245  1
  O2-  O386  1  0.08054631  0.15006026  0.80930243  1
  O2-  O387  1  0.07999734  0.42046346  0.14247207  1
  O2-  O388  1  0.08780371  0.40018053  0.50425618  1
  O2-  O389  1  0.08673755  0.42644899  0.83251094  1
  O2-  O390  1  0.07213223  0.66068333  0.14603779  1
  O2-  O391  1  0.09509284  0.65826260  0.49068652  1
  O2-  O392  1  0.09140652  0.67790160  0.81202915  1
  O2-  O393  1  0.08118351  0.91232039  0.14099137  1
  O2-  O394  1  0.08630917  0.92696930  0.47681789  1
  O2-  O395  1  0.07589430  0.91446983  0.81219641  1
  O2-  O396  1  0.33752431  0.14189753  0.12533146  1
  O2-  O397  1  0.32543186  0.17137397  0.47273262  1
  O2-  O398  1  0.33601029  0.17059558  0.81001342  1
  O2-  O399  1  0.36451686  0.42041660  0.17078303  1
  O2-  O400  1  0.32555298  0.39527606  0.49454475  1
  O2-  O401  1  0.35637423  0.41693245  0.81114129  1
  O2-  O402  1  0.31389786  0.63364725  0.14467115  1
  O2-  O403  1  0.34368686  0.63217162  0.50559677  1
  O2-  O404  1  0.33802249  0.67679007  0.81916021  1
  O2-  O405  1  0.31693153  0.89211397  0.13475805  1
  O2-  O406  1  0.32386226  0.92374734  0.48712248  1
  O2-  O407  1  0.33927244  0.93172228  0.81247275  1
  O2-  O408  1  0.60116870  0.18086308  0.16200932  1
  O2-  O409  1  0.54762146  0.10417356  0.51731690  1
  O2-  O410  1  0.61098351  0.18373691  0.81875977  1
  O2-  O411  1  0.61099642  0.41717349  0.10717672  1
  O2-  O412  1  0.57988756  0.41487894  0.46804013  1
  O2-  O413  1  0.60716356  0.42723672  0.80706625  1
  O2-  O414  1  0.58366367  0.68047822  0.14756309  1
  O2-  O415  1  0.57861075  0.65509037  0.48447857  1
  O2-  O416  1  0.56320423  0.66725820  0.79779741  1
  O2-  O417  1  0.57246172  0.90482333  0.12392706  1
  O2-  O418  1  0.54520041  0.89424167  0.48748851  1
  O2-  O419  1  0.58757025  0.92585527  0.80873767  1
  O2-  O420  1  0.83524150  0.16388568  0.14135362  1
  O2-  O421  1  0.83662983  0.16564035  0.49623425  1
  O2-  O422  1  0.85529121  0.18300715  0.82916547  1
  O2-  O423  1  0.83057321  0.41047958  0.14171420  1
  O2-  O424  1  0.83899983  0.41509333  0.48822684  1
  O2-  O425  1  0.78172668  0.38952680  0.71553449  1
  O2-  O426  1  0.83681012  0.69224957  0.13221121  1
  O2-  O427  1  0.84359541  0.64725438  0.50749748  1
  O2-  O428  1  0.90930850  0.68437547  0.81436974  1
  O2-  O429  1  0.82684296  0.92570816  0.14164960  1
  O2-  O430  1  0.88381496  0.97584095  0.47672332  1
  O2-  O431  1  0.83252885  0.91534033  0.81306320  1
  O2-  O432  1  0.17312940  0.08101583  0.17784967  1
  O2-  O433  1  0.15749143  0.10034263  0.50665695  1
  O2-  O434  1  0.17032092  0.07654661  0.85119161  1
  O2-  O435  1  0.16803429  0.33361195  0.17646977  1
  O2-  O436  1  0.15555786  0.29622066  0.52790848  1
  O2-  O437  1  0.20412670  0.31035823  0.85191207  1
  O2-  O438  1  0.16873137  0.58012782  0.18943622  1
  O2-  O439  1  0.17877357  0.57294627  0.53462044  1
  O2-  O440  1  0.17607588  0.60081154  0.85916436  1
  O2-  O441  1  0.15494450  0.82459723  0.18979626  1
  O2-  O442  1  0.15362193  0.83079501  0.52470348  1
  O2-  O443  1  0.17356422  0.84387720  0.85308894  1
  O2-  O444  1  0.43062888  0.06360754  0.14700159  1
  O2-  O445  1  0.38763964  0.07786761  0.52996750  1
  O2-  O446  1  0.42985480  0.10064373  0.84645733  1
  O2-  O447  1  0.44689150  0.32875439  0.14788982  1
  O2-  O448  1  0.41865550  0.32485764  0.50441188  1
  O2-  O449  1  0.43994028  0.33244768  0.85042895  1
  O2-  O450  1  0.41902309  0.58648263  0.18764668  1
  O2-  O451  1  0.43786801  0.57644450  0.54306996  1
  O2-  O452  1  0.40829385  0.57645473  0.85485292  1
  O2-  O453  1  0.39395116  0.80176651  0.15368284  1
  O2-  O454  1  0.39335056  0.79580351  0.53411316  1
  O2-  O455  1  0.41964608  0.84449752  0.84740938  1
  O2-  O456  1  0.67704720  0.10498532  0.20773745  1
  O2-  O457  1  0.68837179  0.06218156  0.55626083  1
  O2-  O458  1  0.68118956  0.09216152  0.86095919  1
  O2-  O459  1  0.67144954  0.34179176  0.18826905  1
  O2-  O460  1  0.67340144  0.34701063  0.50994286  1
  O2-  O461  1  0.72213281  0.37172926  0.82781533  1
  O2-  O462  1  0.68197451  0.61539368  0.20501498  1
  O2-  O463  1  0.66634294  0.57672552  0.51746425  1
  O2-  O464  1  0.66057944  0.58934041  0.83797798  1
  O2-  O465  1  0.66468651  0.84401741  0.18810418  1
  O2-  O466  1  0.62856871  0.81786234  0.52574022  1
  O2-  O467  1  0.65794599  0.82939034  0.84598336  1
  O2-  O468  1  0.92695942  0.09085197  0.18443598  1
  O2-  O469  1  0.93602371  0.11876601  0.54109942  1
  O2-  O470  1  0.91847797  0.07784200  0.85708682  1
  O2-  O471  1  0.91270056  0.32945931  0.18178619  1
  O2-  O472  1  0.91359971  0.32744316  0.53504975  1
  O2-  O473  1  0.92761714  0.36284977  0.87090056  1
  O2-  O474  1  0.91599468  0.57089712  0.20737042  1
  O2-  O475  1  0.92838714  0.57188552  0.53621042  1
  O2-  O476  1  0.92653273  0.61728065  0.83689975  1
  O2-  O477  1  0.91607541  0.84899830  0.17412042  1
  O2-  O478  1  0.93173975  0.86823386  0.52017877  1
  O2-  O479  1  0.92221576  0.84904275  0.85537644  1
  O2-  O480  1  0.16595658  0.07082667  0.30283849  1
  O2-  O481  1  0.14844627  0.07356158  0.63470942  1
  O2-  O482  1  0.16185075  0.07045315  0.97432845  1
  O2-  O483  1  0.16400417  0.32196680  0.30808401  1
  O2-  O484  1  0.09627898  0.28808707  0.64128737  1
  O2-  O485  1  0.19065685  0.32378224  0.98139136  1
  O2-  O486  1  0.17398372  0.58311158  0.31192521  1
  O2-  O487  1  0.16803198  0.58706685  0.65929891  1
  O2-  O488  1  0.17163840  0.60290699  0.98346017  1
  O2-  O489  1  0.16212126  0.82548791  0.31527390  1
  O2-  O490  1  0.14631625  0.82527434  0.64781154  1
  O2-  O491  1  0.16601981  0.83948792  0.97877390  1
  O2-  O492  1  0.41501968  0.07249129  0.32882675  1
  O2-  O493  1  0.31510985  0.04563831  0.63618183  1
  O2-  O494  1  0.37428510  0.10735028  0.96852688  1
  O2-  O495  1  0.39255132  0.31160572  0.32779632  1
  O2-  O496  1  0.41092375  0.33242821  0.64986677  1
  O2-  O497  1  0.39259741  0.29650645  0.97593964  1
  O2-  O498  1  0.43107730  0.59440711  0.30500795  1
  O2-  O499  1  0.51114506  0.59721157  0.64906249  1
  O2-  O500  1  0.45417802  0.53820268  0.96868955  1
  O2-  O501  1  0.40620592  0.82148745  0.34375591  1
  O2-  O502  1  0.40054908  0.82848657  0.64488965  1
  O2-  O503  1  0.42220621  0.85135309  0.96894525  1
  O2-  O504  1  0.66420821  0.06969580  0.33689328  1
  O2-  O505  1  0.68331409  0.09984785  0.68243172  1
  O2-  O506  1  0.67670225  0.07762290  0.98321176  1
  O2-  O507  1  0.66747337  0.34667053  0.30612469  1
  O2-  O508  1  0.58839583  0.28055262  0.62355885  1
  O2-  O509  1  0.64836732  0.29065294  0.98223568  1
  O2-  O510  1  0.71850678  0.62321066  0.33141984  1
  O2-  O511  1  0.65525126  0.56838676  0.64436440  1
  O2-  O512  1  0.67011868  0.58118431  0.96586310  1
  O2-  O513  1  0.67384988  0.84792429  0.31959717  1
  O2-  O514  1  0.65084931  0.82798742  0.64099040  1
  O2-  O515  1  0.66889251  0.82849648  0.96877007  1
  O2-  O516  1  0.92307919  0.09377693  0.31097737  1
  O2-  O517  1  0.90424383  0.07528680  0.64940970  1
  O2-  O518  1  0.91636050  0.07403373  0.98239716  1
  O2-  O519  1  0.90295251  0.32323908  0.30516533  1
  O2-  O520  1  0.92523151  0.33645668  0.66224394  1
  O2-  O521  1  0.91709356  0.43518841  0.96595994  1
  O2-  O522  1  0.92845133  0.57772689  0.32551810  1
  O2-  O523  1  0.91713426  0.56894518  0.65284309  1
  O2-  O524  1  0.92669716  0.59080795  0.95900641  1
  O2-  O525  1  0.91429045  0.84337198  0.30332606  1
  O2-  O526  1  0.90191123  0.82586011  0.64860266  1
  O2-  O527  1  0.91256338  0.82716649  0.96996294  1
  O2-  O528  1  0.08362989  0.15659555  0.01910947  1
  O2-  O529  1  0.08893282  0.15807927  0.35118893  1
  O2-  O530  1  0.05945787  0.13764259  0.69022111  1
  O2-  O531  1  0.05218180  0.43591406  0.01826969  1
  O2-  O532  1  0.08085875  0.40632401  0.29061974  1
  O2-  O533  1  0.08910962  0.42535995  0.70316137  1
  O2-  O534  1  0.08000855  0.67423038  0.02093341  1
  O2-  O535  1  0.09491855  0.66312490  0.36483247  1
  O2-  O536  1  0.07895166  0.66614901  0.69091834  1
  O2-  O537  1  0.07357727  0.90772509  0.01799573  1
  O2-  O538  1  0.07890530  0.91183324  0.35310675  1
  O2-  O539  1  0.06728024  0.90925464  0.68892565  1
  O2-  O540  1  0.32981252  0.14421795  0.00387467  1
  O2-  O541  1  0.32318395  0.14238654  0.35714397  1
  O2-  O542  1  0.29104808  0.19375828  0.69628238  1
  O2-  O543  1  0.34860831  0.39497139  0.03475489  1
  O2-  O544  1  0.30958880  0.39595267  0.37905569  1
  O2-  O545  1  0.38169769  0.46315081  0.69813738  1
  O2-  O546  1  0.33916470  0.69190937  0.01277982  1
  O2-  O547  1  0.33339371  0.64930642  0.37287927  1
  O2-  O548  1  0.33497589  0.68279933  0.69482629  1
  O2-  O549  1  0.36694711  0.94778237  0.01776700  1
  O2-  O550  1  0.32143326  0.90166372  0.36395587  1
  O2-  O551  1  0.31120789  0.90923642  0.69052461  1
  O2-  O552  1  0.56276073  0.13094720  0.04413007  1
  O2-  O553  1  0.57356938  0.13624423  0.39629984  1
  O2-  O554  1  0.66525567  0.22917609  0.69917062  1
  O2-  O555  1  0.57437712  0.40152961  -0.01672637  1
  O2-  O556  1  0.56677777  0.40717341  0.34231026  1
  O2-  O557  1  0.57336725  0.40119016  0.68822397  1
  O2-  O558  1  0.59802977  0.66889434  0.02181682  1
  O2-  O559  1  0.59963627  0.68036308  0.35802330  1
  O2-  O560  1  0.52649374  0.67567578  0.68191608  1
  O2-  O561  1  0.58863977  0.91270188  0.00610553  1
  O2-  O562  1  0.57289077  0.91169447  0.37673463  1
  O2-  O563  1  0.57046095  0.91451004  0.68017739  1
  O2-  O564  1  0.82487864  0.14070756  0.02384126  1
  O2-  O565  1  0.83325385  0.16163100  0.36468552  1
  O2-  O566  1  0.85707207  0.17749737  0.70139537  1
  O2-  O567  1  0.79361389  0.34742448  0.03257875  1
  O2-  O568  1  0.83545095  0.41494803  0.36369755  1
  O2-  O569  1  0.87470046  0.43116648  0.70930109  1
  O2-  O570  1  0.83508351  0.66445892  0.00674465  1
  O2-  O571  1  0.87269607  0.68395342  0.38771109  1
  O2-  O572  1  0.82918216  0.65104945  0.69361763  1
  O2-  O573  1  0.82943468  0.90962516  0.01673309  1
  O2-  O574  1  0.84176621  0.92845997  0.35172401  1
  O2-  O575  1  0.81260727  0.90320512  0.68748521  1
