# generated using pymatgen
data_H2O
_symmetry_space_group_name_H-M   'P 1'
_cell_length_a   17.99427234
_cell_length_b   18.00164100
_cell_length_c   22.01840878
_cell_angle_alpha   90.00291165
_cell_angle_beta   89.99658976
_cell_angle_gamma   119.99631518
_symmetry_Int_Tables_number   1
_chemical_formula_structural   H2O
_chemical_formula_sum   'H384 O192'
_cell_volume   6177.02090859
_cell_formula_units_Z   192
loop_
 _symmetry_equiv_pos_site_id
 _symmetry_equiv_pos_as_xyz
  1  'x, y, z'
loop_
 _atom_type_symbol
 _atom_type_oxidation_number
  H+  1.0
  O2-  -2.0
loop_
 _atom_site_type_symbol
 _atom_site_label
 _atom_site_symmetry_multiplicity
 _atom_site_fract_x
 _atom_site_fract_y
 _atom_site_fract_z
 _atom_site_occupancy
  H+  H0  1  0.38230488  0.01074887  0.17313224  1
  H+  H1  1  0.89567721  0.12057755  -0.00733921  1
  H+  H2  1  0.22895960  0.61712921  0.83810907  1
  H+  H3  1  0.13710454  0.36131791  0.16762042  1
  H+  H4  1  0.88677177  0.77086469  0.83823523  1
  H+  H5  1  0.12998086  0.23049394  0.33691245  1
  H+  H6  1  -0.01698553  0.61753804  0.49358625  1
  H+  H7  1  0.39470339  0.11402040  0.83847294  1
  H+  H8  1  0.62016356  0.48130796  0.99968109  1
  H+  H9  1  0.22500813  0.10389174  0.31796387  1
  H+  H10  1  0.82020531  0.93654062  0.09242444  1
  H+  H11  1  0.39232354  0.28355426  0.99951049  1
  H+  H12  1  0.38737422  0.35591139  0.17960919  1
  H+  H13  1  0.87806186  0.34579018  0.65556750  1
  H+  H14  1  0.41601818  0.58604532  0.94006124  1
  H+  H15  1  -0.03294421  0.85964489  0.51023398  1
  H+  H16  1  0.39087222  0.02253477  0.83593970  1
  H+  H17  1  0.00216106  0.71247131  0.38986314  1
  H+  H18  1  0.61387979  0.22465489  0.00617002  1
  H+  H19  1  0.34815224  0.11756606  0.65952346  1
  H+  H20  1  0.12496737  0.60245229  0.98055092  1
  H+  H21  1  0.42333826  0.63610745  0.50212943  1
  H+  H22  1  0.35227718  0.23866046  0.34244891  1
  H+  H23  1  0.61303783  0.39958977  0.83425112  1
  H+  H24  1  0.75872852  0.63659454  0.68147647  1
  H+  H25  1  0.62014157  0.84937797  0.65569424  1
  H+  H26  1  0.13250044  0.01510130  0.50928775  1
  H+  H27  1  0.49282347  0.87256908  0.67026063  1
  H+  H28  1  0.13511433  0.82039487  0.23227019  1
  H+  H29  1  0.12281813  0.22630224  0.83539190  1
  H+  H30  1  0.88549130  0.35663776  0.32621825  1
  H+  H31  1  0.57568235  0.14639668  0.72841996  1
  H+  H32  1  0.38898499  0.53074586  0.84289987  1
  H+  H33  1  0.36273680  0.63553737  0.67453742  1
  H+  H34  1  0.13970983  0.64345294  0.67083602  1
  H+  H35  1  0.05780105  0.63605345  0.14303604  1
  H+  H36  1  0.87959121  0.24728194  0.15922269  1
  H+  H37  1  0.32095786  0.42466919  0.54173450  1
  H+  H38  1  0.25015671  0.61394988  0.16221792  1
  H+  H39  1  0.51420667  0.62459260  0.16526982  1
  H+  H40  1  0.61780518  0.72371833  1.01272899  1
  H+  H41  1  -0.01274936  0.12293992  0.83922301  1
  H+  H42  1  0.62009902  0.12678980  0.48619029  1
  H+  H43  1  0.33408500  0.91405289  0.10577031  1
  H+  H44  1  0.27575977  0.88562648  0.83167074  1
  H+  H45  1  0.86527621  0.39471877  0.16148699  1
  H+  H46  1  0.62673102  0.40402114  0.33700952  1
  H+  H47  1  0.73135992  0.36286735  0.98974951  1
  H+  H48  1  0.60580371  0.21235838  0.67636717  1
  H+  H49  1  0.57367693  0.60019618  0.42503745  1
  H+  H50  1  0.46172472  0.84900730  0.17136269  1
  H+  H51  1  0.12548704  0.73753406  0.50007839  1
  H+  H52  1  0.72903186  0.85709186  0.99506501  1
  H+  H53  1  0.41360533  0.07404940  0.23086358  1
  H+  H54  1  0.88577889  0.10416451  0.65302020  1
  H+  H55  1  0.35784559  0.22621001  0.83535981  1
  H+  H56  1  0.62848923  -0.01006667  0.36081157  1
  H+  H57  1  0.94911577  0.61656763  0.63311438  1
  H+  H58  1  0.89151468  0.77559782  -0.00512927  1
  H+  H59  1  0.88289987  0.24280830  0.00432919  1
  H+  H60  1  0.65023484  0.12379110  0.00515095  1
  H+  H61  1  0.27417498  0.39736177  0.67677415  1
  H+  H62  1  0.88085003  0.34824441  0.50010647  1
  H+  H63  1  0.97447182  0.35449852  0.32505156  1
  H+  H64  1  0.39883292  0.01474217  0.99422003  1
  H+  H65  1  0.87215404  0.00964710  0.49863497  1
  H+  H66  1  0.65667039  1.03452369  0.17655360  1
  H+  H67  1  0.64009676  0.61537150  0.00104613  1
  H+  H68  1  0.02929719  0.88563138  0.00018372  1
  H+  H69  1  0.29893708  0.14443381  0.61587078  1
  H+  H70  1  1.02761271  0.13191308  1.00545952  1
  H+  H71  1  0.62667020  0.76509666  0.66520314  1
  H+  H72  1  0.80198644  0.94601922  0.76403732  1
  H+  H73  1  0.73217278  0.62839938  0.50567879  1
  H+  H74  1  0.90472636  0.07037080  0.59179167  1
  H+  H75  1  0.15993891  0.57507151  0.89313596  1
  H+  H76  1  0.70641793  0.87842931  0.83924766  1
  H+  H77  1  0.76120272  0.88536677  0.67265048  1
  H+  H78  1  0.89737485  0.13264573  0.16899856  1
  H+  H79  1  0.13948090  0.77298985  0.84327900  1
  H+  H80  1  0.14742927  0.64226157  0.14601870  1
  H+  H81  1  0.13840247  0.86774857  0.66577660  1
  H+  H82  1  0.19776680  0.57126891  0.48193271  1
  H+  H83  1  0.12250712  0.48093357  0.14705050  1
  H+  H84  1  0.38120551  0.01437774  0.48605607  1
  H+  H85  1  0.28321198  0.15248314  1.00749377  1
  H+  H86  1  0.14027796  0.77131754  -0.01127883  1
  H+  H87  1  0.55951700  0.86801427  0.42934064  1
  H+  H88  1  0.61755202  0.39275531  0.48273594  1
  H+  H89  1  0.38885819  0.76996887  -0.00642985  1
  H+  H90  1  0.62747525  0.10749158  0.17644102  1
  H+  H91  1  0.06937228  0.41353894  0.09419748  1
  H+  H92  1  0.36549726  0.63979341  0.83195357  1
  H+  H93  1  0.61237471  0.14087680  0.82574144  1
  H+  H94  1  0.02450633  0.63538874  0.00043652  1
  H+  H95  1  0.62800931  0.09783453  0.64896353  1
  H+  H96  1  0.72780279  0.62194631  0.84499821  1
  H+  H97  1  0.86706824  -0.01888267  0.99949799  1
  H+  H98  1  0.38716363  0.10897480  0.49220180  1
  H+  H99  1  0.71197301  0.94519563  0.14243049  1
  H+  H100  1  0.57223199  0.81859651  0.48610517  1
  H+  H101  1  0.29533332  0.27516160  0.88762888  1
  H+  H102  1  0.67211053  0.33726067  0.42120784  1
  H+  H103  1  0.38331891  0.60662785  0.18401286  1
  H+  H104  1  0.23044918  0.36974977  0.84105616  1
  H+  H105  1  0.64572019  0.01086725  0.84686260  1
  H+  H106  1  0.92291797  0.09195486  0.93164718  1
  H+  H107  1  0.62311362  0.52256627  0.66378997  1
  H+  H108  1  0.89159257  0.86169654  0.83794498  1
  H+  H109  1  0.11203797  0.37966467  0.33505059  1
  H+  H110  1  0.02891759  0.88612768  0.83191811  1
  H+  H111  1  0.27522684  0.38319905  0.16207136  1
  H+  H112  1  0.86757181  0.23962638  0.82944331  1
  H+  H113  1  0.00339115  0.35818562  0.48990156  1
  H+  H114  1  0.41596437  0.06674421  0.59591057  1
  H+  H115  1  0.61424055  -0.01540797  1.02600264  1
  H+  H116  1  0.27772680  0.88199626  1.00897604  1
  H+  H117  1  0.62470811  0.64393891  0.33125242  1
  H+  H118  1  0.77906721  0.64174444  0.00995803  1
  H+  H119  1  0.27530984  0.13354682  0.15693762  1
  H+  H120  1  0.13159278  0.51936033  0.64170688  1
  H+  H121  1  0.71150946  0.48273870  0.11610811  1
  H+  H122  1  0.76453521  0.12125648  0.67375183  1
  H+  H123  1  0.37397666  0.84296412  0.32595626  1
  H+  H124  1  0.51488810  0.65183586  0.52009797  1
  H+  H125  1  0.61649623  0.89833333  0.21632258  1
  H+  H126  1  0.37472524  0.26763842  0.66212062  1
  H+  H127  1  0.11734842  0.78606622  0.33478396  1
  H+  H128  1  -0.00703261  0.11771101  0.31731879  1
  H+  H129  1  0.86054651  0.46227496  0.34177507  1
  H+  H130  1  0.27537179  0.62325489  0.33597020  1
  H+  H131  1  0.76262801  0.64297924  0.33264401  1
  H+  H132  1  0.39912308  0.49916655  0.50880589  1
  H+  H133  1  0.85285504  0.00000217  0.15072741  1
  H+  H134  1  0.43054593  0.74423542  0.46498224  1
  H+  H135  1  0.87208300  0.25355948  0.65642986  1
  H+  H136  1  0.11810391  0.88557748  0.83379590  1
  H+  H137  1  0.26761039  0.88145736  0.67447231  1
  H+  H138  1  0.13718889  0.88009341  0.32387530  1
  H+  H139  1  0.95380907  0.60066225  0.33533355  1
  H+  H140  1  0.88231093  0.52925169  0.66355428  1
  H+  H141  1  0.38772856  0.52769690  0.66096410  1
  H+  H142  1  0.97271177  0.61296938  0.84262486  1
  H+  H143  1  0.11616988  0.13156893  0.00653893  1
  H+  H144  1  0.65643987  0.53761519  0.17348968  1
  H+  H145  1  0.94233334  0.46503177  0.70355931  1
  H+  H146  1  0.13506267  1.02256087  0.16253095  1
  H+  H147  1  0.14184275  0.86170367  0.99196393  1
  H+  H148  1  0.50783592  0.38656243  0.68250150  1
  H+  H149  1  0.51901069  0.63766057  0.68122713  1
  H+  H150  1  0.47698786  0.86935098  0.50931029  1
  H+  H151  1  0.34987269  0.62513607  0.00146538  1
  H+  H152  1  0.41110273  0.08182984  0.40438918  1
  H+  H153  1  0.74661564  0.13629450  0.33103081  1
  H+  H154  1  0.41698647  0.57290507  0.24003393  1
  H+  H155  1  0.28352956  0.40180817  0.01317151  1
  H+  H156  1  0.52623862  0.63746304  0.01319960  1
  H+  H157  1  0.84530165  0.87554416  0.49783907  1
  H+  H158  1  0.35234104  0.96315106  0.34781271  1
  H+  H159  1  0.08856138  0.44555480  0.49908120  1
  H+  H160  1  0.76886382  0.37870032  0.15988110  1
  H+  H161  1  0.63754141  0.53339839  0.84803391  1
  H+  H162  1  0.39040574  0.86542574  0.84365924  1
  H+  H163  1  0.86934934  0.89331520  0.00597424  1
  H+  H164  1  0.14447594  0.78044359  0.66035976  1
  H+  H165  1  0.39043277  0.60719046  0.33040764  1
  H+  H166  1  0.38866519  0.52771365  0.00058823  1
  H+  H167  1  0.53051301  0.39174192  0.00243825  1
  H+  H168  1  0.63165788  0.26828657  0.17303117  1
  H+  H169  1  0.76450076  0.89342960  0.34028046  1
  H+  H170  1  0.82858517  0.66896779  0.77041615  1
  H+  H171  1  0.52023503  0.13305709  0.82364513  1
  H+  H172  1  0.36399181  0.47168380  0.16694720  1
  H+  H173  1  0.84398805  0.00529763  0.82277827  1
  H+  H174  1  0.65350169  0.53597743  0.32563495  1
  H+  H175  1  0.36081799  0.71667323  0.33301866  1
  H+  H176  1  0.21818947  0.35023809  0.47832572  1
  H+  H177  1  0.77564546  0.38416404  0.82964152  1
  H+  H178  1  0.06906681  0.68722055  0.41165343  1
  H+  H179  1  0.86169928  0.63937261  0.82924184  1
  H+  H180  1  0.85649107  0.74226264  0.33230077  1
  H+  H181  1  0.13926374  0.60068605  0.31610271  1
  H+  H182  1  0.82907433  0.86871358  0.17261375  1
  H+  H183  1  0.67886053  0.33975998  0.73774555  1
  H+  H184  1  0.61252566  0.90488234  0.33342984  1
  H+  H185  1  0.59468365  -0.03179102  0.66373474  1
  H+  H186  1  0.14130641  0.65855593  0.48832686  1
  H+  H187  1  0.88846758  0.61512205  0.99768394  1
  H+  H188  1  0.12082003  0.13591649  0.83096609  1
  H+  H189  1  0.79102467  0.15531822  0.01125636  1
  H+  H190  1  0.48035815  0.60682410  0.33242372  1
  H+  H191  1  0.09323853  0.95730021  0.67627189  1
  H+  H192  1  0.08361521  0.14274009  0.67408017  1
  H+  H193  1  0.93603559  0.60426754  0.19025107  1
  H+  H194  1  0.84924357  0.65202182  0.16542082  1
  H+  H195  1  0.14738282  1.02285845  -0.00816351  1
  H+  H196  1  0.37457487  0.85345361  0.66792687  1
  H+  H197  1  0.85856355  0.12161709  0.48028857  1
  H+  H198  1  -0.01992319  0.12092586  0.16508423  1
  H+  H199  1  0.63565116  0.61364321  0.17804378  1
  H+  H200  1  0.38748565  0.26781302  0.17750734  1
  H+  H201  1  0.36655838  0.47598087  0.34198687  1
  H+  H202  1  -0.04247674  0.86508677  0.30268552  1
  H+  H203  1  0.47848992  0.61959630  0.84562430  1
  H+  H204  1  0.60724376  0.63626402  0.68002424  1
  H+  H205  1  0.86660877  0.85949946  0.65716413  1
  H+  H206  1  0.36560771  0.88004675  1.01192234  1
  H+  H207  1  0.36090691  0.39164341  0.67552314  1
  H+  H208  1  0.37254045  0.11027200  0.35165918  1
  H+  H209  1  0.10499316  0.12260425  0.49058517  1
  H+  H210  1  0.87104284  0.47932834  1.00787780  1
  H+  H211  1  0.35783220  0.88040794  0.16505669  1
  H+  H212  1  0.63336853  0.12131875  0.32553643  1
  H+  H213  1  0.60064330  0.88183049  0.81641661  1
  H+  H214  1  0.08730916  0.91474305  0.05949590  1
  H+  H215  1  0.64429440  0.36698060  0.98854318  1
  H+  H216  1  0.78397011  0.38646859  0.48445729  1
  H+  H217  1  0.84707611  0.63717903  0.67763664  1
  H+  H218  1  0.86583471  0.77089466  0.65847699  1
  H+  H219  1  0.69700446  0.82249983  0.50584995  1
  H+  H220  1  0.20739518  0.59093675  0.98197513  1
  H+  H221  1  0.13463922  0.51060908  0.32080970  1
  H+  H222  1  0.52908911  0.12998808  0.00516888  1
  H+  H223  1  0.26236795  0.87829914  0.33893646  1
  H+  H224  1  0.63375855  0.72945863  0.20708985  1
  H+  H225  1  0.85843631  0.51081439  0.17917407  1
  H+  H226  1  0.85839189  0.42602720  0.74222252  1
  H+  H227  1  0.70524752  0.36106332  0.66931550  1
  H+  H228  1  0.38194611  0.35416790  0.32605672  1
  H+  H229  1  0.11022192  0.63395769  0.83067335  1
  H+  H230  1  0.37936519  0.75039344  0.17218637  1
  H+  H231  1  0.64004430  0.01026445  0.49318748  1
  H+  H232  1  0.36780852  0.89524998  0.49748161  1
  H+  H233  1  0.64781456  0.36522645  0.16851599  1
  H+  H234  1  0.06561610  0.42025701  0.71687171  1
  H+  H235  1  0.98471450  0.38198224  0.17260669  1
  H+  H236  1  0.15480350  0.43512883  0.77546581  1
  H+  H237  1  0.14265190  0.37391725  0.65779861  1
  H+  H238  1  0.36618540  0.22446090  0.50485290  1
  H+  H239  1  0.77229862  0.37293834  0.33814162  1
  H+  H240  1  0.65273254  0.80801216  0.24863985  1
  H+  H241  1  -0.03518118  0.09654370  0.49432064  1
  H+  H242  1  0.14272642  1.02155380  0.83992643  1
  H+  H243  1  0.01407862  0.89163528  0.14557242  1
  H+  H244  1  0.13683037  0.35783459  0.84614178  1
  H+  H245  1  0.39709138  0.37566753  -0.00066039  1
  H+  H246  1  1.00727163  0.37623893  0.65818380  1
  H+  H247  1  0.48400233  0.36149374  0.51314402  1
  H+  H248  1  0.36295031  0.13104938  0.15928538  1
  H+  H249  1  0.07267429  0.46137997  0.99067261  1
  H+  H250  1  0.89517720  0.52941585  0.48871517  1
  H+  H251  1  0.47459237  0.10004971  0.65492988  1
  H+  H252  1  0.85139288  -0.02695215  0.66867792  1
  H+  H253  1  0.51869921  0.13362857  0.15956039  1
  H+  H254  1  0.09095121  0.87429453  0.15812454  1
  H+  H255  1  0.83914802  0.87161923  0.33906013  1
  H+  H256  1  0.85587210  0.22864741  0.33240630  1
  H+  H257  1  0.13017570  0.34649696  0.49093133  1
  H+  H258  1  0.78592581  0.14421197  0.83488334  1
  H+  H259  1  0.59626101  0.38784403  0.69168506  1
  H+  H260  1  0.39208625  0.77726276  0.84243296  1
  H+  H261  1  0.86304165  0.73150189  0.48921672  1
  H+  H262  1  0.61540320  0.64532373  0.83602969  1
  H+  H263  1  0.90552117  0.13697560  0.83780880  1
  H+  H264  1  0.82207897  0.16167362  0.39243286  1
  H+  H265  1  0.85537089  0.20973670  0.48471628  1
  H+  H266  1  0.12897905  0.77297691  0.16944388  1
  H+  H267  1  0.63935493  0.26998482  0.47353703  1
  H+  H268  1  0.13716588  0.27242878  0.16772361  1
  H+  H269  1  -0.01049716  0.37280255  0.83755752  1
  H+  H270  1  0.51466625  0.88674120  0.81743922  1
  H+  H271  1  0.13127618  0.35686217  0.99852006  1
  H+  H272  1  0.11117184  0.88243390  0.49707445  1
  H+  H273  1  0.10130370  -0.01362766  0.33538916  1
  H+  H274  1  0.61734181  0.48030306  0.49784079  1
  H+  H275  1  0.14303844  0.11327529  0.31627752  1
  H+  H276  1  0.51816904  0.13996900  0.34447504  1
  H+  H277  1  0.12960754  0.49088030  0.81731270  1
  H+  H278  1  0.83905710  0.73451140  0.15999783  1
  H+  H279  1  0.53701978  0.82804446  0.25456479  1
  H+  H280  1  0.17932365  0.09283141  0.66595436  1
  H+  H281  1  0.91919098  0.38865609  1.00115000  1
  H+  H282  1  0.27157558  0.63025621  0.67125800  1
  H+  H283  1  0.63482312  0.27568606  0.83740631  1
  H+  H284  1  0.27997380  0.65538227  0.49864895  1
  H+  H285  1  0.63225828  0.27419693  0.32376055  1
  H+  H286  1  0.56823904  0.91191019  0.73198752  1
  H+  H287  1  0.22739800  0.36488592  0.32230299  1
  H+  H288  1  0.09701665  0.16460355  0.39485703  1
  H+  H289  1  0.33230921  0.91160433  0.77098117  1
  H+  H290  1  0.32949575  0.17073306  0.44417009  1
  H+  H291  1  0.66022363  0.82819597  0.94172117  1
  H+  H292  1  0.72935051  0.09775224  0.49503423  1
  H+  H293  1  0.87515198  0.83081165  0.25491130  1
  H+  H294  1  0.36066742  0.67015806  0.42324292  1
  H+  H295  1  0.41528908  0.33041540  0.60624887  1
  H+  H296  1  0.34196366  0.42280814  0.07281464  1
  H+  H297  1  0.08309770  0.66628345  0.77311644  1
  H+  H298  1  0.52608433  0.89510221  0.02345797  1
  H+  H299  1  0.42815881  0.83675232  0.93958331  1
  H+  H300  1  0.07837141  0.40631546  0.39443695  1
  H+  H301  1  0.33585715  0.42488712  0.76812766  1
  H+  H302  1  0.59505077  0.43578774  0.39409333  1
  H+  H303  1  0.68056480  0.08101616  0.95342498  1
  H+  H304  1  0.76415407  0.79500089  0.21391979  1
  H+  H305  1  0.36088777  0.96481872  0.67372350  1
  H+  H306  1  0.62014521  0.43571362  0.08734518  1
  H+  H307  1  0.07985402  0.91348267  0.43853135  1
  H+  H308  1  0.58873505  0.16732716  0.39537703  1
  H+  H309  1  0.82937641  0.68195110  0.39777900  1
  H+  H310  1  0.23293056  0.10958212  0.83708338  1
  H+  H311  1  0.17335942  0.83398455  0.90204909  1
  H+  H312  1  0.10646211  0.21160674  0.48508374  1
  H+  H313  1  0.88870083  0.56324307  0.27921366  1
  H+  H314  1  0.30260256  0.64992012  0.05280591  1
  H+  H315  1  0.35323367  0.38885237  0.83093737  1
  H+  H316  1  0.68048051  0.59515928  0.26276806  1
  H+  H317  1  0.18301247  0.58958173  0.58856724  1
  H+  H318  1  0.08826324  0.17001297  0.09473137  1
  H+  H319  1  0.62388779  0.92894672  0.11094342  1
  H+  H320  1  0.19265357  0.71730108  0.71601836  1
  H+  H321  1  0.09773508  0.66585818  0.05251778  1
  H+  H322  1  0.66134474  0.08530663  0.26596183  1
  H+  H323  1  0.90291713  0.31060404  0.55957831  1
  H+  H324  1  0.34708258  0.18114361  0.77092847  1
  H+  H325  1  0.88389772  0.52443509  0.84259692  1
  H+  H326  1  0.86881433  0.39053331  0.83434107  1
  H+  H327  1  0.33443214  0.66677401  0.77151163  1
  H+  H328  1  0.34202314  0.18155888  0.06648404  1
  H+  H329  1  0.67280931  0.59349470  0.93928132  1
  H+  H330  1  0.26183321  0.18913217  0.38033158  1
  H+  H331  1  0.17873232  0.35421532  0.93905330  1
  H+  H332  1  0.01797813  0.94997944  0.37459539  1
  H+  H333  1  0.65975985  0.06401168  0.59182106  1
  H+  H334  1  0.66787612  0.33564099  0.26635618  1
  H+  H335  1  0.18063131  0.58058363  0.21736142  1
  H+  H336  1  0.85662205  0.18931416  0.10012508  1
  H+  H337  1  0.37869393  0.76374659  0.66560054  1
  H+  H338  1  0.89978308  0.82580255  0.56647692  1
  H+  H339  1  0.39893209  0.36671556  0.51681892  1
  H+  H340  1  0.91940795  0.83368692  0.93515302  1
  H+  H341  1  0.16627736  0.07924947  0.22256778  1
  H+  H342  1  0.91396825  0.58368694  0.93703118  1
  H+  H343  1  0.58074463  0.16570413  0.10123888  1
  H+  H344  1  0.33457010  0.41434751  0.39951856  1
  H+  H345  1  0.66060042  0.58615077  0.60542821  1
  H+  H346  1  0.17640834  0.08347741  0.93371095  1
  H+  H347  1  0.84512910  0.67997622  0.06690592  1
  H+  H348  1  0.40560735  0.31584720  0.26723238  1
  H+  H349  1  0.66278323  0.65420542  0.51958148  1
  H+  H350  1  0.53057601  0.12748904  0.48260098  1
  H+  H351  1  0.32225622  0.89937106  0.43401651  1
  H+  H352  1  0.84446261  0.40820585  0.42919724  1
  H+  H353  1  0.62783698  0.77996245  0.84253977  1
  H+  H354  1  0.57923802  0.66307662  0.10770774  1
  H+  H355  1  0.58256829  0.67013468  0.77573044  1
  H+  H356  1  0.37737234  0.66758383  0.11541573  1
  H+  H357  1  0.22717019  0.86643797  0.50948493  1
  H+  H358  1  0.57433734  0.42892386  0.78125939  1
  H+  H359  1  0.94517007  0.35464020  0.90238555  1
  H+  H360  1  0.14516731  0.28805219  0.66918540  1
  H+  H361  1  0.80767541  0.89746275  0.43983201  1
  H+  H362  1  0.08958617  0.91082136  0.73887111  1
  H+  H363  1  0.22096091  0.10500826  0.51339514  1
  H+  H364  1  0.73826840  0.35572143  0.58407042  1
  H+  H365  1  0.13206516  0.06590398  0.60343444  1
  H+  H366  1  0.42686271  0.59468624  0.60414770  1
  H+  H367  1  0.67032871  0.33535633  0.89628511  1
  H+  H368  1  0.16674257  0.33211991  0.26270292  1
  H+  H369  1  0.08820393  0.18066457  0.73918367  1
  H+  H370  1  0.86424737  0.64243371  0.47950600  1
  H+  H371  1  0.39948656  0.81419304  0.26475445  1
  H+  H372  1  0.64355872  0.79916917  0.56616592  1
  H+  H373  1  0.92362755  0.34643345  0.23203011  1
  H+  H374  1  0.16845551  0.83999997  0.57018385  1
  H+  H375  1  0.73200682  0.39408045  0.58675191  1
  H+  H376  1  0.38877493  0.32419273  0.91433847  1
  H+  H377  1  0.11672338  0.14144147  0.15518455  1
  H+  H378  1  0.83928848  0.41710746  0.06578064  1
  H+  H379  1  0.42480237  0.85643218  0.57071672  1
  H+  H380  1  0.72663729  0.01901045  0.87581581  1
  H+  H381  1  0.42937402  0.07304669  0.93429679  1
  H+  H382  1  0.82551992  0.16179899  0.73237056  1
  H+  H383  1  0.92857797  0.09540782  0.26389596  1
  O2-  O384  1  0.08838659  0.17362112  0.14097431  1
  O2-  O385  1  0.07536631  0.15050945  0.47081007  1
  O2-  O386  1  0.09058771  0.16732927  0.81824207  1
  O2-  O387  1  0.08325547  0.41862044  0.13793219  1
  O2-  O388  1  0.06548383  0.39287999  0.47548146  1
  O2-  O389  1  0.10624523  0.43131761  0.79809085  1
  O2-  O390  1  0.11661286  0.67268583  0.12946501  1
  O2-  O391  1  0.10055347  0.67908709  0.48062330  1
  O2-  O392  1  0.07858868  0.66419160  0.81790441  1
  O2-  O393  1  0.07514557  0.91538559  0.13758624  1
  O2-  O394  1  0.07981853  0.91269180  0.48331584  1
  O2-  O395  1  0.08990520  0.91778921  0.81841203  1
  O2-  O396  1  0.33720801  0.16574991  0.14537130  1
  O2-  O397  1  0.33321471  0.16421517  0.48917089  1
  O2-  O398  1  0.34407287  0.17076011  0.81452324  1
  O2-  O399  1  0.33646687  0.41259913  0.14886198  1
  O2-  O400  1  0.35778487  0.43615334  0.50624264  1
  O2-  O401  1  0.33184288  0.42585772  0.81369920  1
  O2-  O402  1  0.34568256  0.66359355  0.15214802  1
  O2-  O403  1  0.37771243  0.68583923  0.46710592  1
  O2-  O404  1  0.33446897  0.66988642  0.81663077  1
  O2-  O405  1  0.33405835  0.91664165  0.15104110  1
  O2-  O406  1  0.32542336  0.91055148  0.47878883  1
  O2-  O407  1  0.33657214  0.91572233  0.81612065  1
  O2-  O408  1  0.58001288  0.16676992  0.14676825  1
  O2-  O409  1  0.59259499  0.15969863  0.47126774  1
  O2-  O410  1  0.58146874  0.16618463  0.80635956  1
  O2-  O411  1  0.65114556  0.45072486  0.12769555  1
  O2-  O412  1  0.58313400  0.42226707  0.48065263  1
  O2-  O413  1  0.58324336  0.43188311  0.82573796  1
  O2-  O414  1  0.57593244  0.65632848  0.15287192  1
  O2-  O415  1  0.60356718  0.66149897  0.41572070  1
  O2-  O416  1  0.58233574  0.67310558  0.82102174  1
  O2-  O417  1  0.65668577  0.94429631  0.15032816  1
  O2-  O418  1  0.53101045  0.83356630  0.46693099  1
  O2-  O419  1  0.57341134  0.91454562  0.79749099  1
  O2-  O420  1  0.85472303  0.18738904  0.14506203  1
  O2-  O421  1  0.82555271  0.15104533  0.46633574  1
  O2-  O422  1  0.83934790  0.18098271  0.81185106  1
  O2-  O423  1  0.82870115  0.41808536  0.14472027  1
  O2-  O424  1  0.84577665  0.41208734  0.47498619  1
  O2-  O425  1  0.83699542  0.41692612  0.81552868  1
  O2-  O426  1  0.86345899  0.70212929  0.13992841  1
  O2-  O427  1  0.83169579  0.67278497  0.46914272  1
  O2-  O428  1  0.83284727  0.67185510  0.81627291  1
  O2-  O429  1  0.80765421  0.94134462  0.13594701  1
  O2-  O430  1  0.80976021  0.90128168  0.48537161  1
  O2-  O431  1  0.78899512  0.95991251  0.80527576  1
  O2-  O432  1  0.16774628  0.08278668  0.17740357  1
  O2-  O433  1  0.15964703  0.07516354  0.52562423  1
  O2-  O434  1  0.17373947  0.08318748  0.85344752  1
  O2-  O435  1  0.16681960  0.33252834  0.18532899  1
  O2-  O436  1  0.16408966  0.31821811  0.50010130  1
  O2-  O437  1  0.17199581  0.33313250  0.85976932  1
  O2-  O438  1  0.18484652  0.58413422  0.17255295  1
  O2-  O439  1  0.21690579  0.62055746  0.50884293  1
  O2-  O440  1  0.16584637  0.58261498  0.84736796  1
  O2-  O441  1  0.10888062  0.80723363  0.19141506  1
  O2-  O442  1  0.16621736  0.83687140  0.52448572  1
  O2-  O443  1  0.17271447  0.83420052  0.85604591  1
  O2-  O444  1  0.41308849  0.07440375  0.18668971  1
  O2-  O445  1  0.42077585  0.07896475  0.48583123  1
  O2-  O446  1  0.42617767  0.08361944  0.84963606  1
  O2-  O447  1  0.41509775  0.32515762  0.19745606  1
  O2-  O448  1  0.42384908  0.33049673  0.52943177  1
  O2-  O449  1  0.35493342  0.30512874  0.87387361  1
  O2-  O450  1  0.41275706  0.57269608  0.19485643  1
  O2-  O451  1  0.45357221  0.61016110  0.52505032  1
  O2-  O452  1  0.41702801  0.59019939  0.85964517  1
  O2-  O453  1  0.40427350  0.81527670  0.18817718  1
  O2-  O454  1  0.44240566  0.88915686  0.53258827  1
  O2-  O455  1  0.42502663  0.83834240  0.85605506  1
  O2-  O456  1  0.65242305  0.07893280  0.20073587  1
  O2-  O457  1  0.66824780  0.06734241  0.51164612  1
  O2-  O458  1  0.69537325  0.05042087  0.87240053  1
  O2-  O459  1  0.66703053  0.32850944  0.18927744  1
  O2-  O460  1  0.66766188  0.33304686  0.46546247  1
  O2-  O461  1  0.67041280  0.33638732  0.85035633  1
  O2-  O462  1  0.67408138  0.59271226  0.19401042  1
  O2-  O463  1  0.67446689  0.60692799  0.52500464  1
  O2-  O464  1  0.66857522  0.59519167  0.86203113  1
  O2-  O465  1  0.67232485  0.76648629  0.24019236  1
  O2-  O466  1  0.63832718  0.78372308  0.52225982  1
  O2-  O467  1  0.64706846  0.84002163  0.85582323  1
  O2-  O468  1  0.92017452  0.09319131  0.18069281  1
  O2-  O469  1  0.90476971  0.07250514  0.50908072  1
  O2-  O470  1  0.92675705  0.09959397  0.85404378  1
  O2-  O471  1  0.92416855  0.35510967  0.18722023  1
  O2-  O472  1  0.90612242  0.31200196  0.51415675  1
  O2-  O473  1  0.93346611  0.34830827  0.85777542  1
  O2-  O474  1  0.87601607  0.56698546  0.20080090  1
  O2-  O475  1  0.92017053  0.59202691  0.49381466  1
  O2-  O476  1  0.91217302  0.58464416  0.85756566  1
  O2-  O477  1  0.82434113  0.81861942  0.19609527  1
  O2-  O478  1  0.90512641  0.82637259  0.51998766  1
  O2-  O479  1  0.92026989  0.83216367  0.85410036  1
  O2-  O480  1  0.16590779  0.07509342  0.30096716  1
  O2-  O481  1  0.12183015  0.06179009  0.64811629  1
  O2-  O482  1  0.17632843  0.08411882  0.97887640  1
  O2-  O483  1  0.16651257  0.33309191  0.30850774  1
  O2-  O484  1  0.18001302  0.34897693  0.65375728  1
  O2-  O485  1  0.18791550  0.37840988  0.98053449  1
  O2-  O486  1  0.16905527  0.57046731  0.30374610  1
  O2-  O487  1  0.17176282  0.58149168  0.63286315  1
  O2-  O488  1  0.14728325  0.56388198  0.96613175  1
  O2-  O489  1  0.15794295  0.84089640  0.31338028  1
  O2-  O490  1  0.17209648  0.84056136  0.64608749  1
  O2-  O491  1  0.17387757  0.83299265  0.97656420  1
  O2-  O492  1  0.40589748  0.08159975  0.35916464  1
  O2-  O493  1  0.41343690  0.06847986  0.64035493  1
  O2-  O494  1  0.43624707  0.07390114  0.97865717  1
  O2-  O495  1  0.40170759  0.31392210  0.31405449  1
  O2-  O496  1  0.40744828  0.32924921  0.65152015  1
  O2-  O497  1  0.42439983  0.34433429  0.98082980  1
  O2-  O498  1  0.41931285  0.57388516  0.31829241  1
  O2-  O499  1  0.41786051  0.59014874  0.64895220  1
  O2-  O500  1  0.41431837  0.58849644  0.98530564  1
  O2-  O501  1  0.40126477  0.81100240  0.31004384  1
  O2-  O502  1  0.40896940  0.82630022  0.65272207  1
  O2-  O503  1  0.42204621  0.83205180  0.98443621  1
  O2-  O504  1  0.66688765  0.09287539  0.31374515  1
  O2-  O505  1  0.65313040  0.06140093  0.63711916  1
  O2-  O506  1  0.68455469  0.09441286  0.99707491  1
  O2-  O507  1  0.66847606  0.33579538  0.31210170  1
  O2-  O508  1  0.65610458  0.32911219  0.69636544  1
  O2-  O509  1  0.67219352  0.33421463  0.97317018  1
  O2-  O510  1  0.68262386  0.59809710  0.30990099  1
  O2-  O511  1  0.65552150  0.58384764  0.65048625  1
  O2-  O512  1  0.67322424  0.58827543  0.98466013  1
  O2-  O513  1  0.59878632  0.86719446  0.25665404  1
  O2-  O514  1  0.65339189  0.82212921  0.64366464  1
  O2-  O515  1  0.66789638  0.81766547  0.98446894  1
  O2-  O516  1  0.93254293  0.09751462  0.30878185  1
  O2-  O517  1  0.90528683  0.06604642  0.63663634  1
  O2-  O518  1  0.92046698  0.08563499  0.97681418  1
  O2-  O519  1  0.91448222  0.32535651  0.30910740  1
  O2-  O520  1  0.90281595  0.31273054  0.63739544  1
  O2-  O521  1  0.95239834  0.36191235  0.98247583  1
  O2-  O522  1  0.89559733  0.55665447  0.32328702  1
  O2-  O523  1  0.88904360  0.58194929  0.64451902  1
  O2-  O524  1  0.91778755  0.58352345  0.98232986  1
  O2-  O525  1  0.89502657  0.82936358  0.29873804  1
  O2-  O526  1  0.89054717  0.82659465  0.63705132  1
  O2-  O527  1  0.92292988  0.83660504  0.98020813  1
  O2-  O528  1  0.08670190  0.16180549  0.02227171  1
  O2-  O529  1  0.11266007  0.17109078  0.35064742  1
  O2-  O530  1  0.08540048  0.19161319  0.69535932  1
  O2-  O531  1  0.03779005  0.40430150  0.01179382  1
  O2-  O532  1  0.08105494  0.41021777  0.34943666  1
  O2-  O533  1  0.06662458  0.41946003  0.67207464  1
  O2-  O534  1  0.08810912  0.66367904  0.00765437  1
  O2-  O535  1  0.04420192  0.69835986  0.37378948  1
  O2-  O536  1  0.13548826  0.68596066  0.69802839  1
  O2-  O537  1  0.09054187  0.91411010  0.01426646  1
  O2-  O538  1  0.05669095  0.93238096  0.35699229  1
  O2-  O539  1  0.08814892  0.90429566  0.69400028  1
  O2-  O540  1  0.34273025  0.19034224  0.02187387  1
  O2-  O541  1  0.30863137  0.17909712  0.36864836  1
  O2-  O542  1  0.31378829  0.14701342  0.65882562  1
  O2-  O543  1  0.34426144  0.42698114  0.02713213  1
  O2-  O544  1  0.33148150  0.41368472  0.35523337  1
  O2-  O545  1  0.33739874  0.42794561  0.69036924  1
  O2-  O546  1  0.31256028  0.65219911  0.00894676  1
  O2-  O547  1  0.33569037  0.65563893  0.35024449  1
  O2-  O548  1  0.32990966  0.66393001  0.68951488  1
  O2-  O549  1  0.33658389  0.91159624  0.02662228  1
  O2-  O550  1  0.32129453  0.90072424  0.35579210  1
  O2-  O551  1  0.32843628  0.90581005  0.69085061  1
  O2-  O552  1  0.58910611  0.16622944  0.02351455  1
  O2-  O553  1  0.58143718  0.17107478  0.35043237  1
  O2-  O554  1  0.57718398  0.14962204  0.68295597  1
  O2-  O555  1  0.59285844  0.42012156  0.01394550  1
  O2-  O556  1  0.60629237  0.44338203  0.35012646  1
  O2-  O557  1  0.56801942  0.42229974  0.69772325  1
  O2-  O558  1  0.58541869  0.66275796  0.02944716  1
  O2-  O559  1  0.58556674  0.66214320  0.35080160  1
  O2-  O560  1  0.57919618  0.66796935  0.69699058  1
  O2-  O561  1  0.58240442  0.92656403  0.04372945  1
  O2-  O562  1  0.61966065  0.93353531  0.37317060  1
  O2-  O563  1  0.56104408  0.90825713  0.68344906  1
  O2-  O564  1  0.85426408  0.18345791  0.01966762  1
  O2-  O565  1  0.81511657  0.16816901  0.34749276  1
  O2-  O566  1  0.82458010  0.15794929  0.68716856  1
  O2-  O567  1  0.84638730  0.41789984  0.02061367  1
  O2-  O568  1  0.83200010  0.39917487  0.35461480  1
  O2-  O569  1  0.88009423  0.43618465  0.69879449  1
  O2-  O570  1  0.84127652  0.67168520  0.02134515  1
  O2-  O571  1  0.82811391  0.68201085  0.35111017  1
  O2-  O572  1  0.81929546  0.66799915  0.69608920  1
  O2-  O573  1  0.83603775  0.92179379  0.01692450  1
  O2-  O574  1  0.80732801  0.89061811  0.36546271  1
  O2-  O575  1  0.81885486  0.91676073  0.69155173  1
