# generated using pymatgen
data_H2O
_symmetry_space_group_name_H-M   'P 1'
_cell_length_a   17.97980673
_cell_length_b   17.97657342
_cell_length_c   21.99796724
_cell_angle_alpha   89.99505889
_cell_angle_beta   89.98259452
_cell_angle_gamma   120.00530481
_symmetry_Int_Tables_number   1
_chemical_formula_structural   H2O
_chemical_formula_sum   'H384 O192'
_cell_volume   6157.18014959
_cell_formula_units_Z   192
loop_
 _symmetry_equiv_pos_site_id
 _symmetry_equiv_pos_as_xyz
  1  'x, y, z'
loop_
 _atom_type_symbol
 _atom_type_oxidation_number
  H+  1.0
  O2-  -2.0
loop_
 _atom_site_type_symbol
 _atom_site_label
 _atom_site_symmetry_multiplicity
 _atom_site_fract_x
 _atom_site_fract_y
 _atom_site_fract_z
 _atom_site_occupancy
  H+  H0  1  0.60861860  0.63931715  0.15887043  1
  H+  H1  1  0.85408057  0.70215644  0.69654332  1
  H+  H2  1  0.59531742  0.71717817  0.82622045  1
  H+  H3  1  0.99091593  0.98735362  0.95342090  1
  H+  H4  1  0.84288570  0.88462577  0.82743585  1
  H+  H5  1  0.13091909  0.27578910  0.50072823  1
  H+  H6  1  0.36479741  0.23126850  0.13678356  1
  H+  H7  1  0.01827304  0.37165952  0.16626675  1
  H+  H8  1  1.02262912  0.64633132  0.33573480  1
  H+  H9  1  0.88174323  0.36111695  0.50544431  1
  H+  H10  1  0.38540211  0.97325711  0.48836300  1
  H+  H11  1  0.11774661  0.14121886  0.14948260  1
  H+  H12  1  0.09944119  0.38123161  0.35315942  1
  H+  H13  1  0.89618818  0.02950239  0.31385486  1
  H+  H14  1  0.16384857  0.13668471  0.99181857  1
  H+  H15  1  0.60361368  0.42045400  0.76901734  1
  H+  H16  1  0.97250658  0.80372762  1.04105515  1
  H+  H17  1  0.01048066  0.38459460  0.35013011  1
  H+  H18  1  0.76095835  0.88087946  0.67910048  1
  H+  H19  1  0.46566888  0.37583358  0.12059154  1
  H+  H20  1  0.61460377  0.63339936  0.67438016  1
  H+  H21  1  0.65273815  0.27871252  0.66304441  1
  H+  H22  1  0.85618675  0.11322778  0.67390784  1
  H+  H23  1  0.47870597  0.36061432  0.35084963  1
  H+  H24  1  0.48858247  0.87846807  0.64941620  1
  H+  H25  1  0.91427208  0.57622861  0.59784868  1
  H+  H26  1  0.38180324  0.11741389  0.16745464  1
  H+  H27  1  0.73642278  0.86819019  0.32019298  1
  H+  H28  1  0.87270427  0.86051990  0.46041105  1
  H+  H29  1  0.38930535  0.87520828  0.49004173  1
  H+  H30  1  0.25797535  0.14626388  0.98503180  1
  H+  H31  1  0.87162572  0.46833028  0.67093986  1
  H+  H32  1  0.85191220  0.22058392  0.49862028  1
  H+  H33  1  0.89769444  1.02123111  0.16808535  1
  H+  H34  1  0.89941537  1.01330756  -0.00161098  1
  H+  H35  1  0.96890493  0.61110066  0.66032472  1
  H+  H36  1  0.91351625  0.82474030  0.36198880  1
  H+  H37  1  0.86873872  0.38779136  0.33884091  1
  H+  H38  1  0.59022934  0.17631183  0.73696564  1
  H+  H39  1  0.64046871  0.11513921  0.33134052  1
  H+  H40  1  0.62687203  0.38809978  0.48960845  1
  H+  H41  1  0.98301409  0.35804071  0.75904738  1
  H+  H42  1  0.63105120  0.02161024  0.66649728  1
  H+  H43  1  0.63815520  0.27446384  0.16838259  1
  H+  H44  1  0.86275864  0.64133392  0.84800435  1
  H+  H45  1  0.77434576  0.38300573  0.33929145  1
  H+  H46  1  0.39305952  0.85039971  0.32544530  1
  H+  H47  1  0.63683547  0.52682466  0.83773462  1
  H+  H48  1  0.36086374  0.21730185  0.35533098  1
  H+  H49  1  0.59646464  0.87437966  0.00218827  1
  H+  H50  1  0.64616946  0.39779878  0.67591584  1
  H+  H51  1  0.44866131  0.33085351  0.99028957  1
  H+  H52  1  0.09333870  0.36801098  0.67551926  1
  H+  H53  1  0.75662421  0.88221439  0.49780614  1
  H+  H54  1  0.38302844  0.35594760  0.81744231  1
  H+  H55  1  0.23083489  0.86493871  0.84220054  1
  H+  H56  1  0.59388831  0.49633000  -0.01786727  1
  H+  H57  1  0.65553385  0.87569444  0.16750560  1
  H+  H58  1  0.21897929  0.59934784  0.17215628  1
  H+  H59  1  0.14123607  0.90834514  0.01192707  1
  H+  H60  1  0.28813574  0.15464213  0.81656947  1
  H+  H61  1  0.46014413  0.84879606  0.00540439  1
  H+  H62  1  0.87719185  0.77617028  0.84435104  1
  H+  H63  1  0.59061145  0.61933982  0.00667212  1
  H+  H64  1  0.00024334  0.84066317  0.70581536  1
  H+  H65  1  1.02704704  0.14373815  0.32896685  1
  H+  H66  1  0.63512498  0.77740386  0.17275438  1
  H+  H67  1  0.64861371  0.82087136  0.93456873  1
  H+  H68  1  0.10205114  1.00905484  0.66505111  1
  H+  H69  1  0.72733787  0.61915133  0.17484975  1
  H+  H70  1  0.14433696  0.85316414  0.65326083  1
  H+  H71  1  0.86490593  0.47465021  1.00322319  1
  H+  H72  1  0.36605747  0.47932918  0.34737414  1
  H+  H73  1  0.79944337  0.11750039  0.08674807  1
  H+  H74  1  0.34468392  0.39140906  0.14303341  1
  H+  H75  1  0.89658252  0.86217969  0.17802373  1
  H+  H76  1  0.47914461  0.37160024  0.82585168  1
  H+  H77  1  0.45110655  0.85593919  0.17271696  1
  H+  H78  1  0.85375541  0.61672809  0.67578664  1
  H+  H79  1  0.31888150  0.48667042  0.66386288  1
  H+  H80  1  0.61243606  0.00918514  0.98613907  1
  H+  H81  1  0.60929080  0.26211944  0.86625464  1
  H+  H82  1  0.38231021  0.08797815  0.50299828  1
  H+  H83  1  0.10951697  -0.03151606  0.46767615  1
  H+  H84  1  0.40636036  0.39680452  0.68049251  1
  H+  H85  1  0.96310321  0.86215036  0.45638406  1
  H+  H86  1  0.61196637  0.14497089  0.83243087  1
  H+  H87  1  1.01892697  0.14059972  0.83807382  1
  H+  H88  1  0.53224236  0.89067787  0.48989911  1
  H+  H89  1  -0.02113329  0.61611408  0.84473807  1
  H+  H90  1  0.30207263  0.40453707  0.75555805  1
  H+  H91  1  0.61486603  0.22461365  0.49388254  1
  H+  H92  1  0.72703858  0.60925797  0.67136189  1
  H+  H93  1  0.06467710  0.93851772  0.88497989  1
  H+  H94  1  0.64115292  0.87301713  0.51705993  1
  H+  H95  1  0.86937465  0.72664939  0.16635093  1
  H+  H96  1  0.73596147  0.12492871  0.31510309  1
  H+  H97  1  0.51592374  0.65344522  0.50429648  1
  H+  H98  1  0.18630582  0.14316486  0.58022470  1
  H+  H99  1  0.89932857  0.52217087  0.83697970  1
  H+  H100  1  1.00232753  0.36077463  0.66307917  1
  H+  H101  1  0.86618072  0.47081056  0.15987403  1
  H+  H102  1  0.38884147  0.11643989  0.82521889  1
  H+  H103  1  0.03873214  0.39631302  0.01116441  1
  H+  H104  1  0.42474006  0.29351765  0.49640869  1
  H+  H105  1  0.84512921  0.97533387  0.83056438  1
  H+  H106  1  -0.02781537  0.60686161  0.50184469  1
  H+  H107  1  0.27971122  0.62265521  0.34632983  1
  H+  H108  1  0.34862166  0.19092355  0.72143626  1
  H+  H109  1  0.37035911  0.97309410  0.33576164  1
  H+  H110  1  0.61511401  0.85907590  0.84352197  1
  H+  H111  1  0.35965252  0.71569031  0.00920574  1
  H+  H112  1  0.87603197  0.88042507  0.31915941  1
  H+  H113  1  0.10710858  0.62718357  0.49136756  1
  H+  H114  1  0.65992851  0.08144128  0.56890148  1
  H+  H115  1  0.85500446  0.21331496  0.16206242  1
  H+  H116  1  -0.01628528  0.79188908  0.01101983  1
  H+  H117  1  -0.04953070  0.10339409  0.68312157  1
  H+  H118  1  0.76363879  0.62880850  0.32704567  1
  H+  H119  1  0.36384602  0.63804759  0.51578539  1
  H+  H120  1  0.61355915  0.88634114  0.68147760  1
  H+  H121  1  0.38764863  0.10818514  0.32580541  1
  H+  H122  1  0.83761976  0.86595249  0.00823526  1
  H+  H123  1  0.22563479  0.11339035  0.32344680  1
  H+  H124  1  0.40844119  0.32830796  0.29937005  1
  H+  H125  1  0.86897694  0.15287353  0.31138050  1
  H+  H126  1  0.97145477  0.11596807  0.49872129  1
  H+  H127  1  0.75406396  0.87314271  1.00799616  1
  H+  H128  1  0.12404309  0.84732706  0.49333802  1
  H+  H129  1  0.85051956  0.71479728  0.47118974  1
  H+  H130  1  0.14719559  1.02897921  0.16945865  1
  H+  H131  1  0.62743622  0.77979750  0.51193209  1
  H+  H132  1  0.68770259  0.57217004  0.00018827  1
  H+  H133  1  0.02152999  0.88260515  0.32217264  1
  H+  H134  1  0.14698479  0.04929110  0.84161333  1
  H+  H135  1  0.11808794  0.73785183  0.83620754  1
  H+  H136  1  0.12135346  0.65089641  0.82146782  1
  H+  H137  1  0.64537502  0.53119837  0.16099167  1
  H+  H138  1  0.89975071  0.31849072  0.59623325  1
  H+  H139  1  0.37921365  0.24038977  0.81611877  1
  H+  H140  1  0.85878272  1.01180043  0.67682529  1
  H+  H141  1  0.70785423  0.49390140  0.08844530  1
  H+  H142  1  0.72964004  0.35720204  0.50526124  1
  H+  H143  1  0.28335422  0.88225098  0.66678663  1
  H+  H144  1  0.91206357  0.07842528  0.89885725  1
  H+  H145  1  0.11594636  0.23387671  0.33331483  1
  H+  H146  1  0.59630420  0.08699817  0.17743901  1
  H+  H147  1  0.46739565  0.59388243  0.84465580  1
  H+  H148  1  0.52622871  0.36178699  0.64390537  1
  H+  H149  1  0.75611841  0.12738092  0.67112933  1
  H+  H150  1  0.42827605  0.84410041  0.56332046  1
  H+  H151  1  0.51566411  0.13000685  0.01239580  1
  H+  H152  1  0.11679662  0.71784896  0.16468510  1
  H+  H153  1  0.43297090  0.28343165  0.63529757  1
  H+  H154  1  0.37863913  0.39303103  0.65376345  1
  H+  H155  1  0.14535839  0.87481161  0.85340261  1
  H+  H156  1  0.51946512  0.14248941  0.15720354  1
  H+  H157  1  0.11539852  0.23272680  0.15129459  1
  H+  H158  1  0.97085387  0.61428531  0.99693174  1
  H+  H159  1  0.28028895  0.38673278  0.50757553  1
  H+  H160  1  0.60725894  -0.01833769  0.83031648  1
  H+  H161  1  0.39297626  0.32314339  0.07147010  1
  H+  H162  1  0.11772409  0.48578227  0.85527092  1
  H+  H163  1  0.19140154  0.25896345  0.63033911  1
  H+  H164  1  0.28129559  0.88440661  0.33766935  1
  H+  H165  1  0.77732830  0.88120683  0.16729917  1
  H+  H166  1  0.44447085  0.44199938  0.51935854  1
  H+  H167  1  0.61360590  0.13483053  0.49317307  1
  H+  H168  1  0.23752075  0.39491787  0.67102188  1
  H+  H169  1  0.68832710  0.33799878  0.89981115  1
  H+  H170  1  0.04377767  0.73651478  0.70507052  1
  H+  H171  1  0.87789295  0.35102798  0.66009468  1
  H+  H172  1  0.53568587  0.15206312  0.67428468  1
  H+  H173  1  0.12727030  0.23732981  0.00611260  1
  H+  H174  1  0.70389803  0.85920623  0.84195144  1
  H+  H175  1  0.74593929  0.36339502  0.66270849  1
  H+  H176  1  0.21238269  0.59115412  0.65974585  1
  H+  H177  1  0.61912634  0.75960207  -0.00640486  1
  H+  H178  1  0.39841793  0.87787373  0.64920092  1
  H+  H179  1  0.60131398  0.12680779  0.00750167  1
  H+  H180  1  0.97076851  0.36039367  0.51101860  1
  H+  H181  1  0.47861013  0.11205191  0.32228634  1
  H+  H182  1  0.87279126  0.85723006  0.68937860  1
  H+  H183  1  0.64600204  0.01061492  0.34193175  1
  H+  H184  1  0.13928971  0.11911649  0.31971547  1
  H+  H185  1  0.15815282  0.57178004  0.76435425  1
  H+  H186  1  0.13060855  0.50943952  0.17570756  1
  H+  H187  1  0.09328262  0.17251188  0.06225772  1
  H+  H188  1  0.46669409  0.60696160  0.17729748  1
  H+  H189  1  0.10871679  0.14304485  0.48911024  1
  H+  H190  1  0.28087189  0.82082222  0.78905136  1
  H+  H191  1  0.83164892  0.41316151  0.43145081  1
  H+  H192  1  0.82153508  0.08022666  0.02723473  1
  H+  H193  1  0.05258563  0.08368159  0.70388222  1
  H+  H194  1  0.72976154  0.12291025  0.84280053  1
  H+  H195  1  0.63290119  0.11340752  0.66687153  1
  H+  H196  1  0.11130277  0.97484475  0.32127321  1
  H+  H197  1  0.62927162  0.60901287  0.32526431  1
  H+  H198  1  0.11135185  0.25299927  0.66140344  1
  H+  H199  1  0.82472977  0.72254889  -0.01524835  1
  H+  H200  1  0.03551305  0.39532908  0.84230476  1
  H+  H201  1  0.14170491  0.51306394  0.33307811  1
  H+  H202  1  0.10428617  0.71480545  0.48900440  1
  H+  H203  1  0.63313350  0.35848916  0.32404117  1
  H+  H204  1  0.36022642  0.38795497  0.35835697  1
  H+  H205  1  0.63311995  0.48145750  0.67712864  1
  H+  H206  1  0.51285237  0.89865475  0.83489715  1
  H+  H207  1  0.13540559  0.28535570  0.85517332  1
  H+  H208  1  0.83635095  0.76181505  0.96576318  1
  H+  H209  1  0.35598379  0.64127516  0.66003567  1
  H+  H210  1  0.91341889  0.26437543  1.02926490  1
  H+  H211  1  0.77321115  0.64185331  0.84764318  1
  H+  H212  1  0.72499996  0.11290218  0.51078967  1
  H+  H213  1  0.70182779  0.08672352  1.00028348  1
  H+  H214  1  0.50303726  0.62075027  0.00943743  1
  H+  H215  1  0.84023741  0.41012855  0.05813805  1
  H+  H216  1  0.91278800  0.38800440  0.98183297  1
  H+  H217  1  0.35746548  0.99338439  0.15672923  1
  H+  H218  1  0.14575363  0.86467048  0.17228691  1
  H+  H219  1  0.13637970  0.52214619  0.50936842  1
  H+  H220  1  0.88234119  0.60703003  0.50136948  1
  H+  H221  1  0.35607002  0.18700685  0.05171618  1
  H+  H222  1  0.27762884  0.14160335  0.14824878  1
  H+  H223  1  -0.02603186  0.60735582  0.17526805  1
  H+  H224  1  0.11458114  0.15087376  0.83597236  1
  H+  H225  1  0.88198780  0.24119645  0.81158278  1
  H+  H226  1  0.36278365  0.59625152  1.00291785  1
  H+  H227  1  0.61339299  0.72683293  0.34135518  1
  H+  H228  1  0.23216136  0.37592379  0.33579209  1
  H+  H229  1  0.65072167  0.57834847  0.89929813  1
  H+  H230  1  0.03625527  0.88951933  0.16122019  1
  H+  H231  1  0.52471321  0.63735488  0.34084229  1
  H+  H232  1  0.38559279  0.79316026  0.86307076  1
  H+  H233  1  0.14770303  0.86659915  0.31575850  1
  H+  H234  1  0.22001177  0.61505588  -0.00023309  1
  H+  H235  1  0.41825687  0.29752930  0.46299312  1
  H+  H236  1  0.37037055  0.87104775  0.84193140  1
  H+  H237  1  0.63378221  0.76856132  0.66585388  1
  H+  H238  1  0.61368198  0.22467355  0.33649741  1
  H+  H239  1  0.25477262  0.37889060  0.16886820  1
  H+  H240  1  0.30014894  0.19009304  0.65867636  1
  H+  H241  1  0.23317285  0.61349974  0.81159218  1
  H+  H242  1  0.36500034  0.61022921  0.83025901  1
  H+  H243  1  0.86070925  0.47318977  0.49129281  1
  H+  H244  1  0.40764188  0.14153450  0.65217529  1
  H+  H245  1  0.71121152  0.60719687  0.51132962  1
  H+  H246  1  0.24812472  0.10592082  0.50182011  1
  H+  H247  1  0.57751791  0.91639784  0.73816089  1
  H+  H248  1  0.39134896  0.77121587  0.50680519  1
  H+  H249  1  0.88235997  0.35378938  0.17054171  1
  H+  H250  1  0.13503539  0.02509421  0.69030656  1
  H+  H251  1  0.26239394  0.89051800  0.15685232  1
  H+  H252  1  0.82033922  0.38883546  0.82199262  1
  H+  H253  1  0.32460935  0.93726025  0.09190861  1
  H+  H254  1  0.35469012  0.62596457  0.16328219  1
  H+  H255  1  0.39111934  0.60935782  0.33483384  1
  H+  H256  1  0.85358188  0.13277538  0.49899119  1
  H+  H257  1  0.13768660  0.77984104  1.00301856  1
  H+  H258  1  0.88383905  0.11819746  0.84231734  1
  H+  H259  1  0.15677808  0.37978917  1.00534063  1
  H+  H260  1  0.91081706  0.24325824  0.05932816  1
  H+  H261  1  0.61145191  0.38893919  0.83673274  1
  H+  H262  1  0.35247508  0.71383052  0.16106207  1
  H+  H263  1  0.11065560  0.62582595  0.16530312  1
  H+  H264  1  0.88528600  1.02681081  0.50598218  1
  H+  H265  1  0.38541930  1.02652908  0.82421619  1
  H+  H266  1  0.90522334  0.82141680  0.63672854  1
  H+  H267  1  0.38883724  0.70378492  0.80526384  1
  H+  H268  1  0.82788726  0.58515049  0.02117300  1
  H+  H269  1  0.56500699  0.42933931  0.49201335  1
  H+  H270  1  0.48070248  0.10730216  0.50037481  1
  H+  H271  1  0.60591454  0.46925816  0.33775912  1
  H+  H272  1  0.10624980  0.36702678  0.16683784  1
  H+  H273  1  0.10640054  0.38497800  0.50329912  1
  H+  H274  1  0.10778568  0.63623227  1.00996715  1
  H+  H275  1  0.66024524  0.37266129  0.16029228  1
  H+  H276  1  0.38992487  0.76099790  0.32934583  1
  H+  H277  1  0.37511470  0.51750250  0.18174180  1
  H+  H278  1  0.27418957  0.63480408  0.50539785  1
  H+  H279  1  0.86869156  0.24266129  0.31302488  1
  H+  H280  1  0.49340025  0.63179632  0.63898057  1
  H+  H281  1  0.67103963  0.59233628  0.60954824  1
  H+  H282  1  0.62007444  0.41210917  0.07605685  1
  H+  H283  1  0.14155839  0.37621831  0.86749493  1
  H+  H284  1  0.61804502  0.98390215  0.49791350  1
  H+  H285  1  0.99248001  0.10381720  0.99307652  1
  H+  H286  1  0.86635437  0.13074824  0.16438909  1
  H+  H287  1  0.62721063  -0.01346328  0.15408683  1
  H+  H288  1  0.08847946  0.41452105  0.07588843  1
  H+  H289  1  0.66373532  0.83218715  0.60825607  1
  H+  H290  1  0.81389219  0.91511496  0.74234964  1
  H+  H291  1  0.17193574  0.15085220  0.65646480  1
  H+  H292  1  0.15661743  0.32047178  0.56542481  1
  H+  H293  1  0.57224128  0.65867226  0.72930255  1
  H+  H294  1  0.62530341  0.05500036  0.23526888  1
  H+  H295  1  0.87832675  0.60412122  0.32112943  1
  H+  H296  1  0.51911309  0.13784740  0.82667152  1
  H+  H297  1  1.03783667  0.93819836  0.98077741  1
  H+  H298  1  0.15777221  1.00643285  0.01276581  1
  H+  H299  1  0.59465723  0.41661876  0.40015548  1
  H+  H300  1  0.60470989  0.63303623  0.82608315  1
  H+  H301  1  0.07603215  0.66269070  0.06919689  1
  H+  H302  1  0.69704671  0.99387239  0.10573860  1
  H+  H303  1  0.56629399  0.67703410  0.43952692  1
  H+  H304  1  0.61182711  0.93671230  0.40759735  1
  H+  H305  1  0.41591939  0.57895623  0.27271332  1
  H+  H306  1  0.15926934  0.82389603  0.55285582  1
  H+  H307  1  0.01689826  0.89825924  0.82760604  1
  H+  H308  1  0.92185294  0.86059609  0.88633570  1
  H+  H309  1  0.92709046  0.83238582  0.23642282  1
  H+  H310  1  0.17945387  0.36904901  0.27604078  1
  H+  H311  1  0.65240959  0.57625070  0.26353855  1
  H+  H312  1  0.17655252  0.09368099  0.22530713  1
  H+  H313  1  0.66590531  0.08643582  0.90023116  1
  H+  H314  1  0.98271751  0.39799417  0.93157606  1
  H+  H315  1  0.82948614  0.90487512  0.10554504  1
  H+  H316  1  0.92047788  0.38348129  0.79952798  1
  H+  H317  1  0.66632329  0.83998752  0.26835477  1
  H+  H318  1  0.13471950  0.52695132  0.00502976  1
  H+  H319  1  0.80550829  0.62434833  0.07926632  1
  H+  H320  1  0.33686314  0.90842183  0.72812810  1
  H+  H321  1  0.34115322  0.18396173  0.49606036  1
  H+  H322  1  0.39780527  0.83339436  0.95139110  1
  H+  H323  1  0.58488950  0.16666114  0.39717882  1
  H+  H324  1  0.07382783  0.41294897  0.44426641  1
  H+  H325  1  0.95870873  0.40606581  0.28375799  1
  H+  H326  1  0.06075989  0.15295326  0.75299530  1
  H+  H327  1  0.86334289  0.63416764  0.16912642  1
  H+  H328  1  0.85484586  0.41831484  0.73692207  1
  H+  H329  1  0.64248259  0.90643383  0.34316741  1
  H+  H330  1  0.33364001  0.41883809  0.44741083  1
  H+  H331  1  0.67449769  0.33010621  0.56651962  1
  H+  H332  1  0.18743725  0.11157124  0.89830335  1
  H+  H333  1  0.14274308  0.76781864  0.65169895  1
  H+  H334  1  0.61147930  0.55235019  0.52749172  1
  H+  H335  1  0.29725523  0.44110126  0.00380000  1
  H+  H336  1  0.17488352  0.56649217  0.27072818  1
  H+  H337  1  0.85128289  0.91915016  0.37566358  1
  H+  H338  1  0.08246940  0.17051267  0.42591930  1
  H+  H339  1  0.85025962  0.21850542  0.66629446  1
  H+  H340  1  0.40337040  0.55829123  0.90209985  1
  H+  H341  1  0.59094529  0.32980003  0.96964399  1
  H+  H342  1  0.08055942  0.67155078  0.39485666  1
  H+  H343  1  0.66501758  0.33132159  0.26424492  1
  H+  H344  1  0.90391023  0.32001222  0.23148273  1
  H+  H345  1  0.39326059  0.29959459  0.22421921  1
  H+  H346  1  0.48673304  0.40618722  0.56635481  1
  H+  H347  1  0.31731514  0.13902663  0.40216683  1
  H+  H348  1  0.32230851  0.63474272  0.72686472  1
  H+  H349  1  0.98665787  0.11296274  0.16163978  1
  H+  H350  1  0.81737339  0.64297906  0.42387246  1
  H+  H351  1  0.43365430  0.09540194  0.60127755  1
  H+  H352  1  0.18301997  0.83726780  0.23046334  1
  H+  H353  1  0.06962609  0.67884304  0.74100220  1
  H+  H354  1  0.10103398  0.92688929  0.10312945  1
  H+  H355  1  0.35327859  0.91270758  0.42483947  1
  H+  H356  1  0.92930692  0.08984308  0.25617724  1
  H+  H357  1  0.85556822  0.71685290  0.32631072  1
  H+  H358  1  0.11673591  0.04235685  0.54809983  1
  H+  H359  1  0.08416362  0.91083422  0.40798327  1
  H+  H360  1  0.58680591  0.91883610  0.06100597  1
  H+  H361  1  0.16078044  0.57825683  0.56923437  1
  H+  H362  1  0.82870456  0.16483672  0.76766012  1
  H+  H363  1  0.26260255  0.36708761  0.81963257  1
  H+  H364  1  0.33708360  0.65693412  0.40766904  1
  H+  H365  1  0.58062254  0.16565249  0.09952361  1
  H+  H366  1  0.14276947  0.28534169  0.22170339  1
  H+  H367  1  0.18915128  0.35185035  0.94614686  1
  H+  H368  1  0.77859812  0.38088368  0.15946675  1
  H+  H369  1  0.40898786  0.08287365  0.22826226  1
  H+  H370  1  0.91278714  0.57464207  0.23387959  1
  H+  H371  1  0.95600800  0.82021692  0.56251542  1
  H+  H372  1  0.79152620  0.94211617  0.44101279  1
  H+  H373  1  0.37043212  0.32539523  0.22536416  1
  H+  H374  1  0.14259770  0.77590459  0.32235330  1
  H+  H375  1  0.88351949  0.51759637  0.32706064  1
  H+  H376  1  0.94697956  0.85713090  0.56163471  1
  H+  H377  1  0.17622398  0.84044258  0.94567839  1
  H+  H378  1  0.07717831  0.86716380  0.75269445  1
  H+  H379  1  0.57236755  0.66466082  0.10140870  1
  H+  H380  1  0.32897527  0.65472565  0.06911531  1
  H+  H381  1  0.40764888  0.81373667  0.23574496  1
  H+  H382  1  0.12176194  0.50342526  0.65769635  1
  H+  H383  1  0.91260342  0.58176055  0.93647843  1
  O2-  O384  1  0.08446485  0.16744950  0.13359405  1
  O2-  O385  1  0.07904736  0.17254108  0.47109889  1
  O2-  O386  1  0.07811057  0.17531249  0.82095061  1
  O2-  O387  1  0.07981581  0.40338443  0.15399245  1
  O2-  O388  1  0.07479633  0.41507115  0.49009714  1
  O2-  O389  1  0.08575026  0.42648468  0.87087251  1
  O2-  O390  1  0.08093916  0.65776785  0.15126095  1
  O2-  O391  1  0.07327085  0.65295083  0.47486900  1
  O2-  O392  1  0.08621550  0.67916469  0.81724615  1
  O2-  O393  1  0.09791811  0.92013261  0.14862985  1
  O2-  O394  1  0.07731675  0.90888008  0.45401684  1
  O2-  O395  1  0.07779452  0.93125060  0.84195683  1
  O2-  O396  1  0.33791936  0.16754203  0.13232498  1
  O2-  O397  1  0.30653708  0.12432228  0.48255564  1
  O2-  O398  1  0.34665651  0.17819617  0.79992341  1
  O2-  O399  1  0.31789092  0.42132196  0.16274057  1
  O2-  O400  1  0.33876164  0.40943337  0.49105937  1
  O2-  O401  1  0.30060916  0.36550353  0.78778685  1
  O2-  O402  1  0.32318074  0.65325621  0.14479450  1
  O2-  O403  1  0.33643577  0.66538867  0.49270939  1
  O2-  O404  1  0.34067237  0.64576915  0.80960202  1
  O2-  O405  1  0.32477080  0.93199911  0.13717798  1
  O2-  O406  1  0.35933027  0.91251524  0.47102537  1
  O2-  O407  1  0.30982329  0.87882078  0.80593101  1
  O2-  O408  1  0.58074495  0.16916830  0.14565834  1
  O2-  O409  1  0.58360778  0.16475811  0.47623312  1
  O2-  O410  1  0.58303101  0.17691334  0.81873003  1
  O2-  O411  1  0.65589010  0.44852126  0.10997846  1
  O2-  O412  1  0.61173941  0.42749572  0.46835534  1
  O2-  O413  1  0.59495411  0.42562825  0.81364421  1
  O2-  O414  1  0.57723549  0.66956717  0.14664891  1
  O2-  O415  1  0.55806865  0.70004436  0.47809530  1
  O2-  O416  1  0.56915956  0.65769321  0.81003602  1
  O2-  O417  1  0.64444112  0.95132939  0.12704796  1
  O2-  O418  1  0.59454673  0.92460512  0.47902901  1
  O2-  O419  1  0.57209114  0.92029376  0.81749477  1
  O2-  O420  1  0.82684167  0.15126807  0.15114358  1
  O2-  O421  1  0.81802160  0.15899254  0.48694868  1
  O2-  O422  1  0.84088523  0.17697759  0.81159221  1
  O2-  O423  1  0.83910395  0.41068002  0.14419936  1
  O2-  O424  1  0.83121184  0.41192126  0.47738959  1
  O2-  O425  1  0.87368743  0.42848461  0.80152120  1
  O2-  O426  1  0.83286275  0.66498357  0.15467141  1
  O2-  O427  1  0.82203488  0.65126946  0.46874499  1
  O2-  O428  1  0.83675225  0.67863870  0.84916337  1
  O2-  O429  1  0.83722092  0.90930356  0.15032084  1
  O2-  O430  1  0.81096202  0.91681745  0.47190855  1
  O2-  O431  1  0.81020509  0.91469170  0.81587475  1
  O2-  O432  1  0.17731548  0.09139741  0.17986732  1
  O2-  O433  1  0.15973284  0.09764964  0.53159669  1
  O2-  O434  1  0.17819396  0.11080024  0.85298536  1
  O2-  O435  1  0.15287046  0.31260875  0.18198825  1
  O2-  O436  1  0.16019444  0.33322862  0.52115672  1
  O2-  O437  1  0.17388326  0.34380899  0.87088637  1
  O2-  O438  1  0.15940982  0.57087361  0.18942426  1
  O2-  O439  1  0.16764992  0.58329069  0.52357662  1
  O2-  O440  1  0.16974328  0.58799108  0.80720400  1
  O2-  O441  1  0.18154770  0.83809032  0.18410845  1
  O2-  O442  1  0.15240052  0.81603756  0.50821397  1
  O2-  O443  1  0.17175572  0.84013944  0.86434230  1
  O2-  O444  1  0.40670306  0.08142130  0.18273108  1
  O2-  O445  1  0.42108941  0.06653493  0.51583967  1
  O2-  O446  1  0.41754133  0.08460584  0.84058037  1
  O2-  O447  1  0.40397906  0.33788331  0.11680765  1
  O2-  O448  1  0.50052270  0.45137188  0.53450194  1
  O2-  O449  1  0.41845473  0.33453403  0.83768586  1
  O2-  O450  1  0.40886508  0.57983414  0.19613825  1
  O2-  O451  1  0.42806453  0.59785922  0.56135508  1
  O2-  O452  1  0.40606050  0.56261210  0.85737198  1
  O2-  O453  1  0.39739771  0.81187803  0.19031607  1
  O2-  O454  1  0.42529886  0.83519246  0.51480648  1
  O2-  O455  1  0.41358972  0.85532542  0.86686987  1
  O2-  O456  1  0.59439194  0.03568749  0.19630853  1
  O2-  O457  1  0.66104465  0.08096677  0.52362751  1
  O2-  O458  1  0.66832866  0.08998132  0.85460583  1
  O2-  O459  1  0.67361686  0.33427562  0.18485728  1
  O2-  O460  1  0.66915671  0.32563353  0.52119083  1
  O2-  O461  1  0.62806324  0.31632649  0.89065557  1
  O2-  O462  1  0.66388031  0.58542539  0.18324245  1
  O2-  O463  1  0.66569437  0.60501988  0.53753379  1
  O2-  O464  1  0.65998144  0.58655274  0.85452574  1
  O2-  O465  1  0.67148799  0.83668448  0.18941041  1
  O2-  O466  1  0.66714201  0.83837404  0.53167179  1
  O2-  O467  1  0.64358825  0.82602534  0.85707824  1
  O2-  O468  1  0.92759548  0.08248278  0.18088334  1
  O2-  O469  1  0.91399876  0.08742488  0.51843049  1
  O2-  O470  1  0.90925252  0.08148347  0.85377782  1
  O2-  O471  1  0.90788034  0.31875367  0.18640262  1
  O2-  O472  1  0.90846052  0.32857859  0.52325284  1
  O2-  O473  1  0.95224930  0.34588918  0.79806489  1
  O2-  O474  1  0.91230236  0.57679501  0.18792067  1
  O2-  O475  1  0.91187057  0.57723243  0.51863322  1
  O2-  O476  1  0.91801169  0.57940956  0.85744597  1
  O2-  O477  1  0.92974530  0.83401053  0.19127524  1
  O2-  O478  1  0.90045898  0.82742121  0.44796287  1
  O2-  O479  1  0.90433425  0.84220714  0.84398729  1
  O2-  O480  1  0.16790006  0.08732787  0.30396245  1
  O2-  O481  1  0.21208218  0.18430608  0.62434793  1
  O2-  O482  1  0.19556761  0.10878502  0.97470200  1
  O2-  O483  1  0.17213313  0.34747781  0.31779570  1
  O2-  O484  1  0.16273412  0.29510606  0.63954505  1
  O2-  O485  1  0.19504397  0.35688197  0.99162784  1
  O2-  O486  1  0.18734056  0.56693620  0.31465661  1
  O2-  O487  1  0.15135939  0.56455943  0.64566953  1
  O2-  O488  1  0.15833664  0.58649685  0.98905823  1
  O2-  O489  1  0.17977361  0.83642601  0.30481444  1
  O2-  O490  1  0.17444912  0.82654433  0.63368705  1
  O2-  O491  1  0.17159601  0.84121213  0.99070087  1
  O2-  O492  1  0.41810563  0.08039637  0.30681400  1
  O2-  O493  1  0.44388317  0.11539844  0.64359495  1
  O2-  O494  1  0.38782395  0.04910427  1.00228014  1
  O2-  O495  1  0.41342324  0.32778745  0.34368215  1
  O2-  O496  1  0.48190325  0.32955420  0.61238160  1
  O2-  O497  1  0.37631817  0.28782539  1.00495414  1
  O2-  O498  1  0.42127138  0.57892602  0.31832511  1
  O2-  O499  1  0.43464467  0.61779298  0.62291987  1
  O2-  O500  1  0.39107748  0.56149593  0.98493268  1
  O2-  O501  1  0.41981012  0.81823478  0.30925336  1
  O2-  O502  1  0.43402105  0.85695897  0.62681862  1
  O2-  O503  1  0.39840027  0.81532151  0.99368817  1
  O2-  O504  1  0.66981588  0.08377590  0.31535036  1
  O2-  O505  1  0.66150454  0.08163217  0.64961883  1
  O2-  O506  1  0.64924755  0.07155481  0.97591450  1
  O2-  O507  1  0.66292367  0.32738357  0.30957891  1
  O2-  O508  1  0.68603442  0.33786023  0.64546879  1
  O2-  O509  1  0.56972299  0.34404725  1.00707305  1
  O2-  O510  1  0.65508406  0.57494983  0.30874118  1
  O2-  O511  1  0.66627597  0.58436044  0.65535237  1
  O2-  O512  1  0.63419714  0.56024998  0.97879166  1
  O2-  O513  1  0.67293113  0.84357065  0.31366384  1
  O2-  O514  1  0.66405160  0.83114162  0.65394656  1
  O2-  O515  1  0.65213524  0.82102847  0.98016532  1
  O2-  O516  1  0.92631935  0.09130138  0.30183845  1
  O2-  O517  1  0.89058752  0.07582512  0.66533664  1
  O2-  O518  1  0.93904006  0.06048546  0.97138529  1
  O2-  O519  1  0.92593304  0.35841739  0.31165181  1
  O2-  O520  1  0.89942248  0.31243942  0.64213944  1
  O2-  O521  1  0.95293110  0.36753109  0.96858274  1
  O2-  O522  1  0.91257791  0.57662980  0.30854064  1
  O2-  O523  1  0.91070999  0.57162511  0.64318251  1
  O2-  O524  1  0.91004548  0.58207295  0.98197465  1
  O2-  O525  1  0.91730104  0.83059953  0.31719988  1
  O2-  O526  1  0.90235644  0.82338177  0.68103415  1
  O2-  O527  1  0.99909473  0.93759466  0.94746715  1
  O2-  O528  1  0.09661509  0.17480449  0.01584913  1
  O2-  O529  1  0.08746462  0.17244958  0.34558290  1
  O2-  O530  1  0.04683022  0.13463808  0.70789206  1
  O2-  O531  1  0.09716671  0.42161778  0.03092563  1
  O2-  O532  1  0.07071860  0.41158484  0.36951001  1
  O2-  O533  1  0.05780108  0.39281214  0.68633210  1
  O2-  O534  1  0.07618279  0.66682687  0.02417632  1
  O2-  O535  1  0.08188085  0.68384579  0.35068319  1
  O2-  O536  1  0.05714487  0.68984857  0.69848844  1
  O2-  O537  1  0.11823388  0.94676261  0.02694401  1
  O2-  O538  1  0.08540539  0.91375449  0.33407217  1
  O2-  O539  1  0.05543143  0.84134465  0.71301726  1
  O2-  O540  1  0.36208878  0.20010764  0.00709821  1
  O2-  O541  1  0.32789076  0.15303634  0.35799152  1
  O2-  O542  1  0.35367988  0.19500637  0.67607213  1
  O2-  O543  1  0.35731965  0.48155841  0.01989302  1
  O2-  O544  1  0.32906289  0.41997881  0.36470632  1
  O2-  O545  1  0.27311691  0.45035919  0.69210811  1
  O2-  O546  1  0.33055380  0.65332513  0.02332315  1
  O2-  O547  1  0.34046463  0.65724002  0.36271957  1
  O2-  O548  1  0.31347441  0.64689343  0.68465236  1
  O2-  O549  1  0.35197876  0.97109683  0.01642543  1
  O2-  O550  1  0.34188088  0.91398802  0.35325168  1
  O2-  O551  1  0.34244823  0.91132214  0.68295405  1
  O2-  O552  1  0.57544562  0.15919770  0.02602112  1
  O2-  O553  1  0.58434222  0.16360796  0.35165008  1
  O2-  O554  1  0.59572732  0.17501639  0.69187456  1
  O2-  O555  1  0.52665789  0.38807633  -0.01832254  1
  O2-  O556  1  0.58022004  0.40972106  0.35430674  1
  O2-  O557  1  0.61102054  0.42182810  0.69323417  1
  O2-  O558  1  0.56454533  0.65405197  0.02151769  1
  O2-  O559  1  0.58535456  0.66707269  0.35669554  1
  O2-  O560  1  0.58114703  0.66385229  0.68428175  1
  O2-  O561  1  0.56843299  0.90661717  0.01743397  1
  O2-  O562  1  0.62062058  0.94401376  0.36165375  1
  O2-  O563  1  0.58543022  0.92011088  0.69305852  1
  O2-  O564  1  0.77380769  0.07949637  0.04865755  1
  O2-  O565  1  0.83210903  0.17919420  0.31206596  1
  O2-  O566  1  0.81939856  0.15773625  0.68500785  1
  O2-  O567  1  0.84092906  0.41278781  0.01324899  1
  O2-  O568  1  0.83327522  0.41543563  0.35614596  1
  O2-  O569  1  0.84479272  0.40949617  0.68892019  1
  O2-  O570  1  0.77950454  0.58377861  0.04467686  1
  O2-  O571  1  0.82459912  0.65571621  0.34090289  1
  O2-  O572  1  0.82081495  0.63927241  0.69803804  1
  O2-  O573  1  0.81498243  0.90153445  0.02383355  1
  O2-  O574  1  0.84475583  0.91758652  0.33159973  1
  O2-  O575  1  0.82134141  0.91564807  0.69662167  1
