# generated using pymatgen
data_H2O
_symmetry_space_group_name_H-M   'P 1'
_cell_length_a   17.99026940
_cell_length_b   17.98836164
_cell_length_c   22.01212160
_cell_angle_alpha   89.98375322
_cell_angle_beta   90.01049022
_cell_angle_gamma   119.99535873
_symmetry_Int_Tables_number   1
_chemical_formula_structural   H2O
_chemical_formula_sum   'H384 O192'
_cell_volume   6169.38827201
_cell_formula_units_Z   192
loop_
 _symmetry_equiv_pos_site_id
 _symmetry_equiv_pos_as_xyz
  1  'x, y, z'
loop_
 _atom_type_symbol
 _atom_type_oxidation_number
  H+  1.0
  O2-  -2.0
loop_
 _atom_site_type_symbol
 _atom_site_label
 _atom_site_symmetry_multiplicity
 _atom_site_fract_x
 _atom_site_fract_y
 _atom_site_fract_z
 _atom_site_occupancy
  H+  H0  1  0.14042734  0.77808024  -0.00926775  1
  H+  H1  1  0.53229764  0.38814591  -0.00798891  1
  H+  H2  1  0.91172601  0.02778836  0.96560408  1
  H+  H3  1  0.13988456  0.78229013  0.83520805  1
  H+  H4  1  0.62971591  0.48488070  0.66594365  1
  H+  H5  1  0.86007206  0.14117374  0.49189141  1
  H+  H6  1  0.95640860  0.35301167  0.16940287  1
  H+  H7  1  0.57534155  0.66841726  0.40137808  1
  H+  H8  1  0.61252798  0.13337921  0.50789093  1
  H+  H9  1  0.42427049  0.08432816  0.89456844  1
  H+  H10  1  0.26965006  0.37925530  0.35858192  1
  H+  H11  1  0.58499657  0.41941287  0.39632259  1
  H+  H12  1  0.30250765  0.62994446  0.15825744  1
  H+  H13  1  0.77906587  0.88212978  0.34227714  1
  H+  H14  1  0.36239805  0.63124636  1.00650941  1
  H+  H15  1  0.02788982  0.39930495  0.50881026  1
  H+  H16  1  0.39405302  0.75654236  0.17745994  1
  H+  H17  1  0.14628297  0.37111347  0.66242701  1
  H+  H18  1  0.86721800  0.72951005  0.49568374  1
  H+  H19  1  -0.00336820  0.14245222  0.51835161  1
  H+  H20  1  0.33459843  0.82963023  0.15628488  1
  H+  H21  1  0.61690024  0.39475377  0.14973733  1
  H+  H22  1  0.77918518  0.13976788  0.82359613  1
  H+  H23  1  0.23238399  0.62902646  0.51837464  1
  H+  H24  1  0.22876160  0.61407639  -0.00199176  1
  H+  H25  1  0.72719852  0.12605200  0.18059086  1
  H+  H26  1  0.72033481  0.62126438  0.32945987  1
  H+  H27  1  0.02609250  0.64846814  0.50004146  1
  H+  H28  1  0.85685352  0.38424144  0.15425645  1
  H+  H29  1  0.11595329  0.88625860  1.00600543  1
  H+  H30  1  0.37304819  0.39045013  0.15799174  1
  H+  H31  1  0.39821957  1.02179503  -0.00790898  1
  H+  H32  1  0.83648018  0.91026467  0.08282892  1
  H+  H33  1  0.77332476  0.64325706  0.81795140  1
  H+  H34  1  0.13521436  0.54887164  0.17024354  1
  H+  H35  1  0.64079549  0.61733126  0.50510688  1
  H+  H36  1  0.89629979  0.02482303  0.32718327  1
  H+  H37  1  0.52509832  0.13726888  0.50341507  1
  H+  H38  1  0.36591834  0.75726841  0.68102047  1
  H+  H39  1  0.11455671  0.64156861  0.01474621  1
  H+  H40  1  0.14126546  0.11603902  0.65753658  1
  H+  H41  1  0.89251938  0.61694744  0.66678724  1
  H+  H42  1  0.51770084  0.62724732  0.81596549  1
  H+  H43  1  0.62132455  -0.02371341  0.68070004  1
  H+  H44  1  0.21860000  0.61508044  0.84341558  1
  H+  H45  1  0.09678361  0.62997517  0.34397160  1
  H+  H46  1  0.96091023  0.19272982  0.55439062  1
  H+  H47  1  0.39431718  0.11675386  0.83526202  1
  H+  H48  1  0.63377963  0.77128370  0.33493023  1
  H+  H49  1  0.17709101  0.49907250  0.10273617  1
  H+  H50  1  0.81607997  0.96138105  0.03509362  1
  H+  H51  1  0.63864902  0.03685537  0.18724190  1
  H+  H52  1  0.87266471  0.86385871  0.83189585  1
  H+  H53  1  0.61604331  0.72979555  0.49693493  1
  H+  H54  1  0.72762998  0.84268873  0.00023574  1
  H+  H55  1  0.02522960  0.88521413  0.49595486  1
  H+  H56  1  0.86555137  0.49445376  0.82730476  1
  H+  H57  1  0.12038467  0.23787008  0.66678857  1
  H+  H58  1  0.65036702  0.51112543  0.98079042  1
  H+  H59  1  0.47214210  0.86330287  0.83959979  1
  H+  H60  1  0.13676062  0.40810753  0.13038916  1
  H+  H61  1  0.74680301  0.36354404  -0.01772300  1
  H+  H62  1  0.38541405  0.50014497  0.65421157  1
  H+  H63  1  0.13346394  0.02098282  0.50627080  1
  H+  H64  1  0.61974698  0.47727148  0.82356595  1
  H+  H65  1  0.79333694  0.64709339  0.16220928  1
  H+  H66  1  0.64849602  0.02863852  0.83241538  1
  H+  H67  1  0.52601963  0.13375036  0.81945342  1
  H+  H68  1  0.39861049  0.11097080  0.98987208  1
  H+  H69  1  0.39741174  0.61640545  0.16341678  1
  H+  H70  1  0.11857738  0.89199887  0.49120035  1
  H+  H71  1  0.38947006  0.76632022  0.99322509  1
  H+  H72  1  0.40600483  0.38790639  0.52381693  1
  H+  H73  1  0.10938722  0.63763145  0.82613686  1
  H+  H74  1  0.63130835  0.26732064  0.34428014  1
  H+  H75  1  0.89251415  0.53064853  0.98958752  1
  H+  H76  1  0.88959269  0.11390174  0.66927553  1
  H+  H77  1  0.36214962  0.65579332  0.34480134  1
  H+  H78  1  0.15282466  0.32606649  0.30778365  1
  H+  H79  1  0.35963865  0.47669570  0.82114334  1
  H+  H80  1  0.13444877  0.36440305  0.83394856  1
  H+  H81  1  0.77697298  0.64098019  0.49409516  1
  H+  H82  1  1.02768170  0.39665527  0.67509579  1
  H+  H83  1  0.90321182  0.11240332  0.97075005  1
  H+  H84  1  0.16620714  0.08022647  0.56648251  1
  H+  H85  1  0.64840054  0.77176155  0.18345562  1
  H+  H86  1  0.20997825  0.83445212  0.17275538  1
  H+  H87  1  0.62847656  0.60984335  0.82400918  1
  H+  H88  1  0.36453594  0.98325648  0.82765679  1
  H+  H89  1  0.72741171  0.12206460  0.32662658  1
  H+  H90  1  0.36343462  0.10861680  0.34187149  1
  H+  H91  1  0.24026589  0.08423055  0.31792820  1
  H+  H92  1  0.48706062  0.12371149  0.65730686  1
  H+  H93  1  0.28231112  0.39251693  0.50038957  1
  H+  H94  1  1.02790647  0.14569577  0.66960196  1
  H+  H95  1  0.14991685  0.78912999  0.49598909  1
  H+  H96  1  0.86222170  0.22922344  0.67380631  1
  H+  H97  1  0.87670742  0.86306837  0.66092184  1
  H+  H98  1  0.88014134  0.51254208  0.17847103  1
  H+  H99  1  0.89607099  0.11839223  0.82248661  1
  H+  H100  1  0.27486750  0.13307238  0.66934410  1
  H+  H101  1  0.37751674  0.61329832  0.83403992  1
  H+  H102  1  0.27634204  0.65955920  0.34465766  1
  H+  H103  1  0.14302108  0.54113679  0.52623590  1
  H+  H104  1  0.54628612  0.39615883  0.65280182  1
  H+  H105  1  0.78497938  0.63806467  0.66901691  1
  H+  H106  1  0.96044266  0.59479825  0.33265049  1
  H+  H107  1  0.48125911  0.08012529  0.35626144  1
  H+  H108  1  0.30744933  0.86149243  0.09732495  1
  H+  H109  1  0.73259732  0.11340603  -0.01684374  1
  H+  H110  1  0.87678168  0.65148941  1.00415006  1
  H+  H111  1  0.46431867  0.60136525  0.32589721  1
  H+  H112  1  -0.01510694  0.85843966  0.33251209  1
  H+  H113  1  0.96753713  0.36352538  0.97799692  1
  H+  H114  1  0.89415360  0.78493496  0.98849210  1
  H+  H115  1  0.61533417  0.15334177  0.15178493  1
  H+  H116  1  0.84590572  0.22015270  0.48954351  1
  H+  H117  1  0.36617946  0.33473958  0.32588835  1
  H+  H118  1  0.23027855  0.36516755  0.13373258  1
  H+  H119  1  0.40963028  0.58000422  0.88947811  1
  H+  H120  1  0.12328398  0.16716394  0.32486008  1
  H+  H121  1  0.89114628  0.52443520  0.66837199  1
  H+  H122  1  0.18408574  0.83088898  0.28123109  1
  H+  H123  1  0.10922559  0.89303467  0.82327855  1
  H+  H124  1  0.02292437  0.14165971  0.80995155  1
  H+  H125  1  0.14533867  1.02033628  -0.00874804  1
  H+  H126  1  0.89180743  0.63094967  0.83753550  1
  H+  H127  1  0.92333140  0.60075834  0.89689904  1
  H+  H128  1  0.22535554  0.63412103  0.67227120  1
  H+  H129  1  0.38814619  0.51506997  -0.01700154  1
  H+  H130  1  0.11576726  0.48669105  0.67665578  1
  H+  H131  1  0.86515599  -0.02404436  0.49066051  1
  H+  H132  1  0.12588442  0.86957183  0.64848058  1
  H+  H133  1  0.13831278  0.16222614  0.35598006  1
  H+  H134  1  0.36025784  0.89210711  0.82867634  1
  H+  H135  1  0.86528199  0.48417981  0.49589372  1
  H+  H136  1  1.04217417  0.13950428  0.99221891  1
  H+  H137  1  0.10764807  0.47845755  0.83025099  1
  H+  H138  1  0.53093898  0.88822095  0.67939704  1
  H+  H139  1  0.47711081  0.60239310  0.97980650  1
  H+  H140  1  -0.01715316  0.61765520  -0.00531374  1
  H+  H141  1  0.98246398  0.36118918  0.83152709  1
  H+  H142  1  0.10999719  0.40061047  0.34636570  1
  H+  H143  1  0.36603780  0.88242010  1.00296877  1
  H+  H144  1  0.48893407  0.37148132  0.16321930  1
  H+  H145  1  0.65075543  0.61642098  0.65752033  1
  H+  H146  1  0.86128492  0.22673948  0.33255470  1
  H+  H147  1  0.65006073  0.61235038  0.16839365  1
  H+  H148  1  0.42353952  0.84295009  0.61009660  1
  H+  H149  1  0.15954367  0.58648652  0.90225420  1
  H+  H150  1  0.48321779  0.36845897  0.83573088  1
  H+  H151  1  0.85442011  -0.04326939  0.67398991  1
  H+  H152  1  0.53424645  0.40193070  0.50275827  1
  H+  H153  1  0.02673255  0.14013812  0.15167038  1
  H+  H154  1  0.38350326  0.99056074  0.67476334  1
  H+  H155  1  0.53517499  0.14072864  -0.00785116  1
  H+  H156  1  0.64697671  0.36755583  0.87560358  1
  H+  H157  1  0.62131350  -0.03008229  0.96801760  1
  H+  H158  1  0.14818934  0.54502530  0.31962449  1
  H+  H159  1  0.89166196  0.77103813  0.32650379  1
  H+  H160  1  0.60182730  0.89861402  -0.08155472  1
  H+  H161  1  0.64715121  0.85118592  0.97890518  1
  H+  H162  1  0.08978603  0.18065249  0.74725991  1
  H+  H163  1  0.93863588  0.84856274  0.24722681  1
  H+  H164  1  0.38361654  0.77900149  0.51524493  1
  H+  H165  1  0.53604370  0.62863968  0.66202737  1
  H+  H166  1  0.22731932  0.87204441  0.83666030  1
  H+  H167  1  0.86729943  0.50746822  0.33004144  1
  H+  H168  1  0.58995980  0.91402935  0.76369254  1
  H+  H169  1  0.11502949  0.23874964  0.81532719  1
  H+  H170  1  0.37026104  0.37014085  0.66948675  1
  H+  H171  1  0.89493539  0.87315001  0.99251755  1
  H+  H172  1  0.37006945  0.47981207  0.15569917  1
  H+  H173  1  0.90679405  0.88580452  0.18583697  1
  H+  H174  1  0.91438415  0.08655738  0.10251272  1
  H+  H175  1  0.60959861  0.12855110  0.35187101  1
  H+  H176  1  0.35821553  0.22622164  0.67277533  1
  H+  H177  1  0.37341889  0.22640366  0.82210053  1
  H+  H178  1  1.02840507  0.88957796  1.00395230  1
  H+  H179  1  0.13009740  0.78403754  0.64986309  1
  H+  H180  1  0.88733176  0.61822913  0.50992984  1
  H+  H181  1  0.19928185  0.64965016  0.16610070  1
  H+  H182  1  0.35896614  0.46166017  0.34164782  1
  H+  H183  1  0.10100634  0.38109183  0.99144993  1
  H+  H184  1  0.92490762  0.33331173  0.45028188  1
  H+  H185  1  0.53077771  0.89958645  0.32748795  1
  H+  H186  1  0.13889933  0.27921613  0.13078712  1
  H+  H187  1  0.40288660  0.88336749  0.66974816  1
  H+  H188  1  0.63643051  0.35834741  0.33589071  1
  H+  H189  1  0.52584307  0.64192976  0.49470520  1
  H+  H190  1  0.35552507  0.72965630  0.83670131  1
  H+  H191  1  0.47803593  0.59896993  0.16383867  1
  H+  H192  1  0.00698859  0.62665750  0.67562033  1
  H+  H193  1  0.21584005  0.36399348  0.98605180  1
  H+  H194  1  0.87529455  0.22756974  -0.01646826  1
  H+  H195  1  0.71944937  0.37333238  0.16451095  1
  H+  H196  1  0.44473198  0.35559898  0.69949005  1
  H+  H197  1  0.11003400  0.63561119  0.67646233  1
  H+  H198  1  0.38913029  0.53109514  0.50066944  1
  H+  H199  1  0.62241116  0.72317627  0.66670200  1
  H+  H200  1  0.36051566  0.66760513  0.69187963  1
  H+  H201  1  0.13451576  0.02359845  0.65965314  1
  H+  H202  1  0.27971259  0.88714387  1.00182574  1
  H+  H203  1  0.39048037  0.87102659  0.51138937  1
  H+  H204  1  0.14488661  0.36260750  0.52022802  1
  H+  H205  1  0.36382754  0.64300907  0.49963943  1
  H+  H206  1  0.87306383  0.12292984  0.14862169  1
  H+  H207  1  0.42534533  0.33596414  0.92321475  1
  H+  H208  1  0.15288947  0.84812996  0.34172603  1
  H+  H209  1  0.39813834  0.35935522  -0.01284705  1
  H+  H210  1  0.38633250  0.11065718  0.50683161  1
  H+  H211  1  0.28718332  0.13451496  -0.00434518  1
  H+  H212  1  0.36608262  0.23673224  0.14550494  1
  H+  H213  1  0.37653688  0.22421310  0.99343978  1
  H+  H214  1  0.62125788  0.98882158  0.32418920  1
  H+  H215  1  0.37616961  0.99462045  0.49415941  1
  H+  H216  1  0.10183239  0.28282595  0.36903358  1
  H+  H217  1  0.61652071  0.13782321  0.81811316  1
  H+  H218  1  0.86434913  -0.01883384  0.16414152  1
  H+  H219  1  0.61800464  0.39368832  0.49593832  1
  H+  H220  1  0.52522362  0.88786597  0.50844726  1
  H+  H221  1  0.37818200  0.14013761  0.19442893  1
  H+  H222  1  0.02274422  0.64445407  0.82537293  1
  H+  H223  1  0.88760095  0.37194641  0.66919071  1
  H+  H224  1  0.01854184  0.89443669  0.66954222  1
  H+  H225  1  0.35829733  0.19406382  0.33698744  1
  H+  H226  1  0.12134501  0.98434158  0.15472245  1
  H+  H227  1  -0.03003794  0.36652460  0.31251490  1
  H+  H228  1  0.13332112  0.27217466  -0.01372104  1
  H+  H229  1  0.78419026  0.88534246  0.17657662  1
  H+  H230  1  1.00310191  0.88615482  0.17847253  1
  H+  H231  1  0.63149437  0.28512236  0.15879668  1
  H+  H232  1  0.02130294  0.89409111  0.82093380  1
  H+  H233  1  0.78105699  0.39270486  0.67655222  1
  H+  H234  1  0.28368822  0.31515403  0.03126057  1
  H+  H235  1  0.63982450  0.27405613  0.51182145  1
  H+  H236  1  0.47359902  0.85231004  0.18918997  1
  H+  H237  1  0.64817402  0.85585225  0.66359737  1
  H+  H238  1  0.64057777  0.11218992  0.66695889  1
  H+  H239  1  0.85118178  0.96937828  0.81089630  1
  H+  H240  1  0.27428817  0.38495642  0.82150540  1
  H+  H241  1  0.62197357  0.38830401  -0.00978813  1
  H+  H242  1  0.39298104  0.36871211  0.83303178  1
  H+  H243  1  0.77315818  0.13746195  0.67439040  1
  H+  H244  1  0.72821375  0.36412378  0.50851423  1
  H+  H245  1  -0.04010290  0.61491903  0.18163712  1
  H+  H246  1  0.11505118  0.13669665  0.15547074  1
  H+  H247  1  0.11844173  -0.04397547  0.33620617  1
  H+  H248  1  0.86610969  0.25848764  0.16670010  1
  H+  H249  1  0.91854397  0.83582399  0.56866543  1
  H+  H250  1  0.86054286  0.73556428  0.82196699  1
  H+  H251  1  0.39584840  0.12183408  0.65781564  1
  H+  H252  1  0.23179323  0.12051890  0.15985951  1
  H+  H253  1  0.59572216  0.40554295  0.77412596  1
  H+  H254  1  0.73187905  0.55460561  0.93922298  1
  H+  H255  1  0.76008845  0.37576196  0.34867966  1
  H+  H256  1  0.67666238  0.82523741  0.24591956  1
  H+  H257  1  0.60445434  0.64004438  0.34114848  1
  H+  H258  1  0.61297467  0.47513142  0.33698208  1
  H+  H259  1  0.42153218  0.09648936  0.22937683  1
  H+  H260  1  0.89151903  0.86339013  0.50689626  1
  H+  H261  1  0.71791629  0.10533879  0.51294715  1
  H+  H262  1  0.85390608  0.63269952  0.34026582  1
  H+  H263  1  0.78765854  0.64836231  0.00379716  1
  H+  H264  1  0.12473844  0.03353024  0.86906628  1
  H+  H265  1  0.13693927  0.52702454  -0.00897731  1
  H+  H266  1  0.64408925  0.86553621  0.32572219  1
  H+  H267  1  0.74229044  0.85771464  0.66348323  1
  H+  H268  1  0.39253254  0.91884949  0.33995175  1
  H+  H269  1  0.08106246  0.64352258  0.16469419  1
  H+  H270  1  0.15244294  0.11154480  -0.01569125  1
  H+  H271  1  0.40386233  0.59832463  0.65139978  1
  H+  H272  1  0.61758622  0.71829728  -0.01125846  1
  H+  H273  1  0.86949487  0.34925640  0.97886042  1
  H+  H274  1  0.62092510  0.23192562  0.98252087  1
  H+  H275  1  0.62139967  0.89334103  0.18710743  1
  H+  H276  1  0.61574989  0.62938884  -0.02171337  1
  H+  H277  1  0.99180432  0.15806409  0.36330432  1
  H+  H278  1  0.14142355  0.86725401  0.17867076  1
  H+  H279  1  0.62417655  0.22821096  0.67186217  1
  H+  H280  1  0.68053381  0.89277157  0.82565194  1
  H+  H281  1  0.38530545  0.79574470  0.33675579  1
  H+  H282  1  0.12633062  0.22821324  0.50685841  1
  H+  H283  1  0.88729260  0.26102538  0.82889848  1
  H+  H284  1  0.27338228  0.12469685  0.49511118  1
  H+  H285  1  0.86915995  0.88321628  0.34141832  1
  H+  H286  1  0.59103499  0.92259584  0.24400749  1
  H+  H287  1  0.65137653  0.36772917  0.66109527  1
  H+  H288  1  0.64284932  0.52856682  0.50401971  1
  H+  H289  1  0.59550818  0.18162744  0.08831281  1
  H+  H290  1  0.89272204  0.78009700  0.65694116  1
  H+  H291  1  0.10914356  0.43477978  0.46670905  1
  H+  H292  1  0.54401349  0.89873226  0.08145244  1
  H+  H293  1  0.84673552  0.68193931  0.10286991  1
  H+  H294  1  0.33943664  0.17152421  0.08878928  1
  H+  H295  1  0.66465055  0.10122731  0.26924595  1
  H+  H296  1  0.83404371  0.66976139  0.40004950  1
  H+  H297  1  0.17682588  0.84810219  0.55446361  1
  H+  H298  1  0.66501846  0.58370809  0.88255859  1
  H+  H299  1  0.33233522  0.67716284  0.44335297  1
  H+  H300  1  0.64945880  0.52635989  0.17380393  1
  H+  H301  1  0.58076351  0.65771881  0.75859012  1
  H+  H302  1  0.72700571  0.86229333  0.51009338  1
  H+  H303  1  0.28478226  0.90371941  0.48187090  1
  H+  H304  1  0.11591094  0.13276607  0.50202065  1
  H+  H305  1  0.33124032  0.42385667  0.72312362  1
  H+  H306  1  0.59000080  0.42723342  0.09000834  1
  H+  H307  1  0.34971686  0.93074754  0.73461591  1
  H+  H308  1  0.04562369  0.18176188  0.42613579  1
  H+  H309  1  0.58676218  0.16604015  0.73041763  1
  H+  H310  1  0.90011896  0.32896513  0.25989189  1
  H+  H311  1  0.85394152  0.38340277  0.34193474  1
  H+  H312  1  0.78395425  0.40315923  0.83880014  1
  H+  H313  1  0.83756592  0.91652160  0.43196947  1
  H+  H314  1  0.54598886  0.55046196  0.10944278  1
  H+  H315  1  0.10832413  0.31740423  0.23032014  1
  H+  H316  1  0.91362797  0.32813335  0.89157211  1
  H+  H317  1  0.06245961  0.65052062  0.40512873  1
  H+  H318  1  0.32933159  0.14384357  0.43511750  1
  H+  H319  1  0.17962318  0.33599233  0.57654461  1
  H+  H320  1  0.34438589  0.66403627  0.07088355  1
  H+  H321  1  0.90473356  0.56656715  0.25306489  1
  H+  H322  1  0.81542319  0.90088170  0.75757845  1
  H+  H323  1  0.58050559  0.15376995  0.41572636  1
  H+  H324  1  0.16095317  0.32830847  0.89129351  1
  H+  H325  1  0.31699546  0.26160975  0.27934086  1
  H+  H326  1  0.08406848  0.42412519  0.76759016  1
  H+  H327  1  0.17922076  0.07934541  0.22160752  1
  H+  H328  1  0.08340033  0.91092579  0.40146346  1
  H+  H329  1  0.88354941  0.10418129  0.31561603  1
  H+  H330  1  0.83115955  0.16489180  0.39078843  1
  H+  H331  1  0.15461147  0.35333987  0.23199053  1
  H+  H332  1  0.07621799  0.66428157  0.73993094  1
  H+  H333  1  0.92067158  0.08757146  0.61075911  1
  H+  H334  1  0.86262440  0.17363598  0.04326902  1
  H+  H335  1  0.34298743  0.16496614  0.76457682  1
  H+  H336  1  0.83372243  0.42218796  0.09572608  1
  H+  H337  1  0.47943362  0.85291111  0.97943198  1
  H+  H338  1  0.83185171  0.42334873  0.43549976  1
  H+  H339  1  0.15426113  0.08710255  0.31607446  1
  H+  H340  1  0.33295497  0.39975380  0.06854980  1
  H+  H341  1  0.32004335  0.67895057  0.77582568  1
  H+  H342  1  0.64548792  0.11879721  0.98270712  1
  H+  H343  1  0.42732268  0.33049761  0.22206908  1
  H+  H344  1  0.67977667  0.58838650  0.59696538  1
  H+  H345  1  0.08302736  0.91528148  0.10007907  1
  H+  H346  1  0.91142508  0.84226560  0.89072804  1
  H+  H347  1  0.66490800  0.59101727  0.26906370  1
  H+  H348  1  0.83598437  0.42491500  0.73916036  1
  H+  H349  1  0.43244161  0.35852822  0.58444509  1
  H+  H350  1  0.67332567  0.83077099  0.57245627  1
  H+  H351  1  0.93415849  0.08700966  0.87574507  1
  H+  H352  1  0.06261265  0.44716195  0.37767907  1
  H+  H353  1  0.07526732  0.67374197  0.06868426  1
  H+  H354  1  0.57908883  0.63542546  0.07349249  1
  H+  H355  1  0.41967395  0.08368771  0.56791341  1
  H+  H356  1  0.24101380  0.37444334  0.66244088  1
  H+  H357  1  0.34150168  0.41625882  0.44085762  1
  H+  H358  1  0.55969508  0.86710762  0.08238907  1
  H+  H359  1  0.41023604  0.56862202  0.26520468  1
  H+  H360  1  0.08042815  0.92267156  0.72854913  1
  H+  H361  1  0.41342886  0.83278299  0.89966626  1
  H+  H362  1  0.16872416  0.83727364  0.93084589  1
  H+  H363  1  0.66850057  0.07842153  0.60901095  1
  H+  H364  1  0.07400746  0.41616196  0.04879662  1
  H+  H365  1  0.91722628  0.58709863  0.56922188  1
  H+  H366  1  0.61413527  0.88798172  0.50782709  1
  H+  H367  1  0.17416119  0.61429107  0.26808793  1
  H+  H368  1  0.42228351  0.58249117  0.56171878  1
  H+  H369  1  0.17066606  0.60305290  0.61026002  1
  H+  H370  1  0.88668650  0.37583925  0.49283352  1
  H+  H371  1  0.77491196  0.31847008  0.03718943  1
  H+  H372  1  0.40848248  0.83842962  0.27116851  1
  H+  H373  1  0.79424625  0.17278778  0.10954464  1
  H+  H374  1  0.36302245  0.95094902  0.41350719  1
  H+  H375  1  0.67708044  0.08984509  0.89088325  1
  H+  H376  1  0.67960551  0.33666947  0.60236307  1
  H+  H377  1  0.63005640  0.01533645  0.51849129  1
  H+  H378  1  0.09119980  0.16716454  0.05645552  1
  H+  H379  1  0.84152511  0.67103005  0.73004884  1
  H+  H380  1  0.08709046  0.73380338  0.16636615  1
  H+  H381  1  0.83669856  0.17124139  0.76200551  1
  H+  H382  1  0.91346162  0.34229745  0.60864876  1
  H+  H383  1  0.11546046  0.65007955  0.50066673  1
  O2-  O384  1  0.08621086  0.16627711  0.13630998  1
  O2-  O385  1  0.08706773  0.16795669  0.49304805  1
  O2-  O386  1  0.08574772  0.17941410  0.79530938  1
  O2-  O387  1  0.12504272  0.45783637  0.12415913  1
  O2-  O388  1  0.09234896  0.43042300  0.50924197  1
  O2-  O389  1  0.07947164  0.41854177  0.81319882  1
  O2-  O390  1  0.05154902  0.67339174  0.14849208  1
  O2-  O391  1  0.08514237  0.67808332  0.48241454  1
  O2-  O392  1  0.08229916  0.66927360  0.80728999  1
  O2-  O393  1  0.08627084  0.92104796  0.14577394  1
  O2-  O394  1  0.08425309  0.91928727  0.47817600  1
  O2-  O395  1  0.08151161  0.92429647  0.80625598  1
  O2-  O396  1  0.33105990  0.17530539  0.13345684  1
  O2-  O397  1  0.33300674  0.14864814  0.48002734  1
  O2-  O398  1  0.34718915  0.16572784  0.80959029  1
  O2-  O399  1  0.34209540  0.41853723  0.13979429  1
  O2-  O400  1  0.34253886  0.42616760  0.48548076  1
  O2-  O401  1  0.33467165  0.41567606  0.80738541  1
  O2-  O402  1  0.35880437  0.66667929  0.14057267  1
  O2-  O403  1  0.33175254  0.67378443  0.48860531  1
  O2-  O404  1  0.32159321  0.66940100  0.82028757  1
  O2-  O405  1  0.28431104  0.82437112  0.13365995  1
  O2-  O406  1  0.34800893  0.93589569  0.47090124  1
  O2-  O407  1  0.33045876  0.92186317  0.81259580  1
  O2-  O408  1  0.58997013  0.18527325  0.13263020  1
  O2-  O409  1  0.58703206  0.16723362  0.49043077  1
  O2-  O410  1  0.58475594  0.16474643  0.80139872  1
  O2-  O411  1  0.58769769  0.42905960  0.13498464  1
  O2-  O412  1  0.59121019  0.42683605  0.48098750  1
  O2-  O413  1  0.59232118  0.41325963  0.81804101  1
  O2-  O414  1  0.56941024  0.61187418  0.11603663  1
  O2-  O415  1  0.58635255  0.67010977  0.47953642  1
  O2-  O416  1  0.57866599  0.65407353  0.80381858  1
  O2-  O417  1  0.58934510  0.92256748  0.19828203  1
  O2-  O418  1  0.58579859  0.92090792  0.49494519  1
  O2-  O419  1  0.58851215  0.92176104  0.81132701  1
  O2-  O420  1  0.82532116  0.17405417  0.14612114  1
  O2-  O421  1  0.82141705  0.16064688  0.47481666  1
  O2-  O422  1  0.84088417  0.17225151  0.80807099  1
  O2-  O423  1  0.83602658  0.42421659  0.14060458  1
  O2-  O424  1  0.83598877  0.42307959  0.48135274  1
  O2-  O425  1  0.83509488  0.43408707  0.81286677  1
  O2-  O426  1  0.85209805  0.68450540  0.14728462  1
  O2-  O427  1  0.83810559  0.66920740  0.47948343  1
  O2-  O428  1  0.83576958  0.67440953  0.80735370  1
  O2-  O429  1  0.84406394  0.91845612  0.15948616  1
  O2-  O430  1  0.83601812  0.91617770  0.47795753  1
  O2-  O431  1  0.81078113  0.90803086  0.80373482  1
  O2-  O432  1  0.17193837  0.08689434  0.17742226  1
  O2-  O433  1  0.16461743  0.08200009  0.52084252  1
  O2-  O434  1  0.09987142  0.06609693  0.88806532  1
  O2-  O435  1  0.16992425  0.34104260  0.11991524  1
  O2-  O436  1  0.17752362  0.33372654  0.53016307  1
  O2-  O437  1  0.16199624  0.33016315  0.84573649  1
  O2-  O438  1  0.14990393  0.60519478  0.18836811  1
  O2-  O439  1  0.17283810  0.60331195  0.53615385  1
  O2-  O440  1  0.15672943  0.58295965  0.85687881  1
  O2-  O441  1  0.15674144  0.82517945  0.19455847  1
  O2-  O442  1  0.18358704  0.85055503  0.50883941  1
  O2-  O443  1  0.16672297  0.84072655  0.85256577  1
  O2-  O444  1  0.39964854  0.13575026  0.23462689  1
  O2-  O445  1  0.42013493  0.08192671  0.52200290  1
  O2-  O446  1  0.42293045  0.08302788  0.84933475  1
  O2-  O447  1  0.42740917  0.33949964  0.17779361  1
  O2-  O448  1  0.44511468  0.36941055  0.54076195  1
  O2-  O449  1  0.42216743  0.33803655  0.84953031  1
  O2-  O450  1  0.42045041  0.57692902  0.18163560  1
  O2-  O451  1  0.41846247  0.59147599  0.51700711  1
  O2-  O452  1  0.40731059  0.58074437  0.84433590  1
  O2-  O453  1  0.41135304  0.81463876  0.19728907  1
  O2-  O454  1  0.41497561  0.83892134  0.53145120  1
  O2-  O455  1  0.41192112  0.83419984  0.85389846  1
  O2-  O456  1  0.66550006  0.09980814  0.19397470  1
  O2-  O457  1  0.66106479  0.07806982  0.53307593  1
  O2-  O458  1  0.68091624  0.09007222  0.84540614  1
  O2-  O459  1  0.65791431  0.34587682  0.17393199  1
  O2-  O460  1  0.66949809  0.33515326  0.52614560  1
  O2-  O461  1  0.68927326  0.35195979  0.89079952  1
  O2-  O462  1  0.67750365  0.58549956  0.19149639  1
  O2-  O463  1  0.67388204  0.58963646  0.51966217  1
  O2-  O464  1  0.66481456  0.58274716  0.83775372  1
  O2-  O465  1  0.68157259  0.82980975  0.19960014  1
  O2-  O466  1  0.66784927  0.83149747  0.52645931  1
  O2-  O467  1  0.62107568  0.87010105  0.84104648  1
  O2-  O468  1  0.90654988  0.08948006  0.14604230  1
  O2-  O469  1  0.94083026  0.13660813  0.53580360  1
  O2-  O470  1  0.92982746  0.08908932  0.83075148  1
  O2-  O471  1  0.89693829  0.32522279  0.18312216  1
  O2-  O472  1  0.91929389  0.34192640  0.49351257  1
  O2-  O473  1  0.91948381  0.32503422  0.84498316  1
  O2-  O474  1  0.90610737  0.56815380  0.20239363  1
  O2-  O475  1  0.91788255  0.58719876  0.52418603  1
  O2-  O476  1  0.92451021  0.60219579  0.85169115  1
  O2-  O477  1  0.94369801  0.86143745  0.20043678  1
  O2-  O478  1  0.92092483  0.83294858  0.52244255  1
  O2-  O479  1  0.90753498  0.83742016  0.84575625  1
  O2-  O480  1  0.18084029  0.05605852  0.29838138  1
  O2-  O481  1  0.16941541  0.08405897  0.64300469  1
  O2-  O482  1  0.18217010  0.07928588  0.97444669  1
  O2-  O483  1  0.15217034  0.33967920  0.35078467  1
  O2-  O484  1  0.17474258  0.33934539  0.64822782  1
  O2-  O485  1  0.15720330  0.33224613  0.96911752  1
  O2-  O486  1  0.17764684  0.60797764  0.31254811  1
  O2-  O487  1  0.16534099  0.59871878  0.65615586  1
  O2-  O488  1  0.16828681  0.58970302  0.98260954  1
  O2-  O489  1  0.19300150  0.83117764  0.32532628  1
  O2-  O490  1  0.15099634  0.83774807  0.62771104  1
  O2-  O491  1  0.17150824  0.83850564  0.97642316  1
  O2-  O492  1  0.41751690  0.04480358  0.33787338  1
  O2-  O493  1  0.42642685  0.09199534  0.64212489  1
  O2-  O494  1  0.42951574  0.08116654  0.97490171  1
  O2-  O495  1  0.37187337  0.29189122  0.30043638  1
  O2-  O496  1  0.40656841  0.33667410  0.66439365  1
  O2-  O497  1  0.43057392  0.33371914  0.96904547  1
  O2-  O498  1  0.40448891  0.56699308  0.31031622  1
  O2-  O499  1  0.42834440  0.56472820  0.63614289  1
  O2-  O500  1  0.41449532  0.57458205  0.96943954  1
  O2-  O501  1  0.41549286  0.85272407  0.31602845  1
  O2-  O502  1  0.42751931  0.84442266  0.65542511  1
  O2-  O503  1  0.41610795  0.82520333  0.97498071  1
  O2-  O504  1  0.66515484  0.09350708  0.31473480  1
  O2-  O505  1  0.67174114  0.08073501  0.65474928  1
  O2-  O506  1  0.67322183  0.08520217  0.96771868  1
  O2-  O507  1  0.66829896  0.32629151  0.32959508  1
  O2-  O508  1  0.68247513  0.33741496  0.64806464  1
  O2-  O509  1  0.67635581  0.34482092  0.95773507  1
  O2-  O510  1  0.66031760  0.59278212  0.31424777  1
  O2-  O511  1  0.68212183  0.58645919  0.64253566  1
  O2-  O512  1  0.69320045  0.56874863  0.96096524  1
  O2-  O513  1  0.67273502  0.83092115  0.31826910  1
  O2-  O514  1  0.67587608  0.82535752  0.64610978  1
  O2-  O515  1  0.67419822  0.81467435  0.97648995  1
  O2-  O516  1  0.92602328  0.08488321  0.31226283  1
  O2-  O517  1  0.92292514  0.08621693  0.65566163  1
  O2-  O518  1  0.93936381  0.08863686  0.95520932  1
  O2-  O519  1  0.90733704  0.33232391  0.30543502  1
  O2-  O520  1  0.91802950  0.34107424  0.65272679  1
  O2-  O521  1  0.90834317  0.32790129  0.96053159  1
  O2-  O522  1  0.90007034  0.56819863  0.31299250  1
  O2-  O523  1  0.92461609  0.58583000  0.65294930  1
  O2-  O524  1  0.92292606  0.59082216  0.97704922  1
  O2-  O525  1  0.92521595  0.83295105  0.31337213  1
  O2-  O526  1  0.91668527  0.83966583  0.64214220  1
  O2-  O527  1  0.92408111  0.84563788  0.97309036  1
  O2-  O528  1  0.09936257  0.17402217  0.01150255  1
  O2-  O529  1  0.02483173  0.20532560  0.39372331  1
  O2-  O530  1  0.09027683  0.17649725  0.68221071  1
  O2-  O531  1  0.07010817  0.41238745  0.00386346  1
  O2-  O532  1  0.08056636  0.43582883  0.33875728  1
  O2-  O533  1  0.08774881  0.42604786  0.69074940  1
  O2-  O534  1  0.08131421  0.67106153  0.02375714  1
  O2-  O535  1  0.04543768  0.62559904  0.36374868  1
  O2-  O536  1  0.07330849  0.66154808  0.69225827  1
  O2-  O537  1  0.08653759  0.91654067  0.02298893  1
  O2-  O538  1  0.08038105  0.90021289  0.35653286  1
  O2-  O539  1  0.08032793  0.92390150  0.68286642  1
  O2-  O540  1  0.34742385  0.16572175  0.01167376  1
  O2-  O541  1  0.32961524  0.13559949  0.35486947  1
  O2-  O542  1  0.33575990  0.16472271  0.68355378  1
  O2-  O543  1  0.31925348  0.37704645  0.02495093  1
  O2-  O544  1  0.33260176  0.40373143  0.36157381  1
  O2-  O545  1  0.32940236  0.41874546  0.67833676  1
  O2-  O546  1  0.33440995  0.66177861  0.02391666  1
  O2-  O547  1  0.33578428  0.68752867  0.36242241  1
  O2-  O548  1  0.32678396  0.69544869  0.69849871  1
  O2-  O549  1  0.33846890  0.91410876  0.01979510  1
  O2-  O550  1  0.37242416  0.95749876  0.36156860  1
  O2-  O551  1  0.35953676  0.93079459  0.69007062  1
  O2-  O552  1  0.59803188  0.17491642  0.00249096  1
  O2-  O553  1  0.56989922  0.14655129  0.37058352  1
  O2-  O554  1  0.59036162  0.16666826  0.68384525  1
  O2-  O555  1  0.59320539  0.41958165  0.00740454  1
  O2-  O556  1  0.58752864  0.41540543  0.35167193  1
  O2-  O557  1  0.59726591  0.42243556  0.67879828  1
  O2-  O558  1  0.58350309  0.65333926  -0.00223021  1
  O2-  O559  1  0.57226041  0.66889074  0.35584645  1
  O2-  O560  1  0.59426238  0.66110101  0.68043207  1
  O2-  O561  1  0.59354924  0.90677839  -0.03815674  1
  O2-  O562  1  0.59324887  0.92437802  0.32054636  1
  O2-  O563  1  0.59106830  0.91545323  0.69588074  1
  O2-  O564  1  0.85311045  0.16715307  -0.00075080  1
  O2-  O565  1  0.82996313  0.16545421  0.34578526  1
  O2-  O566  1  0.83511458  0.16911607  0.68876256  1
  O2-  O567  1  0.80568168  0.37146511  0.01356983  1
  O2-  O568  1  0.82503080  0.41274909  0.36036957  1
  O2-  O569  1  0.84152621  0.42449334  0.69321322  1
  O2-  O570  1  0.84809933  0.68417734  0.01671358  1
  O2-  O571  1  0.83141948  0.67007508  0.35453810  1
  O2-  O572  1  0.84553176  0.66722158  0.68474540  1
  O2-  O573  1  0.83280969  0.91760526  0.03764834  1
  O2-  O574  1  0.83987817  0.91423718  0.35672402  1
  O2-  O575  1  0.82535023  0.89608126  0.68580636  1
