# generated using pymatgen
data_H2O
_symmetry_space_group_name_H-M   'P 1'
_cell_length_a   17.95772312
_cell_length_b   17.96605761
_cell_length_c   21.98756958
_cell_angle_alpha   89.95374349
_cell_angle_beta   90.02536487
_cell_angle_gamma   120.02030349
_symmetry_Int_Tables_number   1
_chemical_formula_structural   H2O
_chemical_formula_sum   'H384 O192'
_cell_volume   6142.18490532
_cell_formula_units_Z   192
loop_
 _symmetry_equiv_pos_site_id
 _symmetry_equiv_pos_as_xyz
  1  'x, y, z'
loop_
 _atom_type_symbol
 _atom_type_oxidation_number
  H+  1.0
  O2-  -2.0
loop_
 _atom_site_type_symbol
 _atom_site_label
 _atom_site_symmetry_multiplicity
 _atom_site_fract_x
 _atom_site_fract_y
 _atom_site_fract_z
 _atom_site_occupancy
  H+  H0  1  0.74489508  0.35435146  0.83810213  1
  H+  H1  1  0.60584387  0.97696012  0.13145656  1
  H+  H2  1  0.87678736  0.85301708  0.16664288  1
  H+  H3  1  0.89834726  0.28511306  0.50363595  1
  H+  H4  1  0.83370737  0.15935765  0.74214872  1
  H+  H5  1  0.45954749  0.86455889  0.51056389  1
  H+  H6  1  0.76832165  0.38813319  0.15775249  1
  H+  H7  1  0.86549530  0.72563474  0.48465460  1
  H+  H8  1  0.12854020  0.89488170  0.46768283  1
  H+  H9  1  0.79254555  0.89010758  0.49502397  1
  H+  H10  1  0.22519974  0.11148491  0.18257613  1
  H+  H11  1  0.14859356  0.62406273  0.50285589  1
  H+  H12  1  0.85682380  0.72020087  0.33075942  1
  H+  H13  1  0.87329586  0.64113490  0.66141465  1
  H+  H14  1  0.42205818  0.82321492  0.24680027  1
  H+  H15  1  0.38412739  0.36117034  0.19503007  1
  H+  H16  1  0.99070959  0.12242750  0.98780598  1
  H+  H17  1  0.89440390  0.02910591  0.65440946  1
  H+  H18  1  0.86186405  0.13425341  0.67901970  1
  H+  H19  1  0.64411235  0.37481745  0.50708720  1
  H+  H20  1  0.14194147  0.31757079  0.28335554  1
  H+  H21  1  0.47433849  0.85229080  0.31091127  1
  H+  H22  1  0.68068684  0.60579494  0.96045383  1
  H+  H23  1  0.24973022  0.37225726  0.81047971  1
  H+  H24  1  0.64422346  0.87432335  0.83749779  1
  H+  H25  1  0.52944784  0.14656678  0.82590650  1
  H+  H26  1  0.14487045  0.52000832  0.85794358  1
  H+  H27  1  0.54303184  0.39073138  0.81672260  1
  H+  H28  1  0.24273515  0.12555504  0.83808968  1
  H+  H29  1  0.86974105  0.47749755  0.00240408  1
  H+  H30  1  0.78790179  0.64704526  0.66550871  1
  H+  H31  1  0.59634664  0.88284514  0.13770263  1
  H+  H32  1  0.35314600  0.74684271  0.14812454  1
  H+  H33  1  0.87356646  0.13888722  0.99136046  1
  H+  H34  1  0.88298484  0.89591683  0.67469360  1
  H+  H35  1  0.88136644  0.38029970  0.81872696  1
  H+  H36  1  0.17451931  0.34104557  0.76286117  1
  H+  H37  1  0.84610212  0.25304898  0.13713556  1
  H+  H38  1  0.51834942  1.00009018  0.46277519  1
  H+  H39  1  0.36008729  0.98246802  0.16588466  1
  H+  H40  1  0.58838982  0.41764710  0.72230401  1
  H+  H41  1  0.11642017  0.13647506  0.66213720  1
  H+  H42  1  0.07499437  0.66998222  0.70863825  1
  H+  H43  1  0.39533898  0.61320306  0.82995209  1
  H+  H44  1  0.09523708  0.22478478  0.37247163  1
  H+  H45  1  0.19442449  0.85071410  0.52802023  1
  H+  H46  1  0.71688992  0.09057281  0.13692833  1
  H+  H47  1  0.60902958  0.12121743  0.49858079  1
  H+  H48  1  0.73141484  0.11610407  0.34393742  1
  H+  H49  1  0.39144257  0.12618068  0.16951591  1
  H+  H50  1  0.63557463  0.26215761  0.32528444  1
  H+  H51  1  0.46237434  0.08509367  0.34216792  1
  H+  H52  1  0.39968833  0.37041009  -0.01821802  1
  H+  H53  1  0.58343453  1.01516627  0.70005822  1
  H+  H54  1  0.12360321  0.59914091  0.17574234  1
  H+  H55  1  0.10908300  0.47741049  0.34410791  1
  H+  H56  1  0.36494884  0.72185319  0.82258343  1
  H+  H57  1  0.11276469  0.78785654  0.75443242  1
  H+  H58  1  0.68086106  0.72751131  0.43858052  1
  H+  H59  1  0.13342492  0.99366050  0.00837280  1
  H+  H60  1  0.35845160  0.13245443  0.67038070  1
  H+  H61  1  0.89950600  0.61998473  0.49493740  1
  H+  H62  1  0.74238400  0.63239862  0.14978100  1
  H+  H63  1  0.01698454  0.88126160  0.66047175  1
  H+  H64  1  0.48332959  0.61606671  0.66075328  1
  H+  H65  1  0.12323751  0.22595398  0.81047989  1
  H+  H66  1  0.61909143  0.48262081  0.01350842  1
  H+  H67  1  0.65725263  0.76705829  0.66513175  1
  H+  H68  1  -0.03001145  0.35728436  0.65620134  1
  H+  H69  1  0.60700176  0.23391441  0.66635639  1
  H+  H70  1  0.72310270  0.60763211  0.31664788  1
  H+  H71  1  0.62974774  0.23373761  0.98297100  1
  H+  H72  1  0.47192420  0.11222750  0.66200203  1
  H+  H73  1  0.15737468  0.73533245  0.84107821  1
  H+  H74  1  0.71018560  0.71605959  0.55164624  1
  H+  H75  1  0.62334040  0.73395113  0.82180207  1
  H+  H76  1  0.62643356  0.51930243  0.16411896  1
  H+  H77  1  0.24565068  0.88507754  0.46616404  1
  H+  H78  1  0.39404903  0.78133225  0.99197491  1
  H+  H79  1  0.98792997  0.35469575  0.85675860  1
  H+  H80  1  0.41704834  0.32589491  0.40937995  1
  H+  H81  1  0.88389578  0.36513758  0.99626503  1
  H+  H82  1  0.12323753  0.39404685  0.67746388  1
  H+  H83  1  0.58270343  0.17439508  0.76494096  1
  H+  H84  1  0.87284403  0.98450660  0.82411854  1
  H+  H85  1  0.86167253  0.23221775  0.34270626  1
  H+  H86  1  0.15156395  0.12301649  0.83919087  1
  H+  H87  1  0.85898861  0.38035052  0.66812018  1
  H+  H88  1  0.44039466  0.10623372  0.22156927  1
  H+  H89  1  0.61961940  0.39305354  1.00420679  1
  H+  H90  1  0.47488309  0.87065025  0.14753375  1
  H+  H91  1  0.13460672  0.12566741  0.34549730  1
  H+  H92  1  0.64613309  0.86938330  -0.01843823  1
  H+  H93  1  0.53375902  0.78870580  0.20895506  1
  H+  H94  1  0.64777986  0.89626927  0.52749809  1
  H+  H95  1  0.64210781  0.52364725  0.65577922  1
  H+  H96  1  0.89474491  0.87205332  0.84559899  1
  H+  H97  1  0.51647883  0.11808991  0.49819495  1
  H+  H98  1  0.63423931  0.02297056  0.87433939  1
  H+  H99  1  0.11993165  0.47041471  0.16195434  1
  H+  H100  1  0.52872702  0.38438621  0.66105306  1
  H+  H101  1  0.28344749  0.64168389  -0.00129686  1
  H+  H102  1  0.24203874  0.36658135  0.95187984  1
  H+  H103  1  0.87967873  0.90401379  0.00781148  1
  H+  H104  1  0.49167290  0.81324856  0.55051178  1
  H+  H105  1  0.65023550  0.26967330  0.83761090  1
  H+  H106  1  0.86045365  0.14126454  0.34567828  1
  H+  H107  1  0.11131605  0.40087702  0.91274962  1
  H+  H108  1  0.89323420  0.27345137  0.13015219  1
  H+  H109  1  0.46946926  0.59594993  0.50227620  1
  H+  H110  1  0.73519548  0.37168912  0.65568832  1
  H+  H111  1  0.36111179  0.71753760  0.32957513  1
  H+  H112  1  0.33335610  0.83149714  0.31986286  1
  H+  H113  1  0.90166745  0.87373652  0.49741738  1
  H+  H114  1  0.88384450  0.26958947  0.67131130  1
  H+  H115  1  0.84150196  0.72848336  0.15431182  1
  H+  H116  1  0.14023444  0.02066616  0.20038666  1
  H+  H117  1  0.08355184  0.42189155  0.40667665  1
  H+  H118  1  0.63345879  0.27539972  0.16195465  1
  H+  H119  1  0.87588698  0.61520035  0.14650782  1
  H+  H120  1  0.74130139  0.12376678  0.51478555  1
  H+  H121  1  0.97337697  0.60236463  0.64820342  1
  H+  H122  1  0.12842920  0.83482162  0.22502222  1
  H+  H123  1  0.85142071  0.48340884  0.15176226  1
  H+  H124  1  0.63745968  0.12005176  -0.02941983  1
  H+  H125  1  0.52234460  0.89774744  -0.01464359  1
  H+  H126  1  0.14762978  0.60911059  0.83799271  1
  H+  H127  1  0.10219562  0.71533631  0.30860306  1
  H+  H128  1  0.50133420  0.62083638  0.15532623  1
  H+  H129  1  0.74972153  0.85835567  0.66512301  1
  H+  H130  1  0.36053077  0.59873428  0.16334003  1
  H+  H131  1  0.22669231  0.10855167  0.65014533  1
  H+  H132  1  0.14135743  0.27814459  0.48734690  1
  H+  H133  1  0.37189169  0.60686314  0.32390860  1
  H+  H134  1  0.86321409  0.38975202  0.34331965  1
  H+  H135  1  0.72666085  0.12202558  0.67332876  1
  H+  H136  1  0.02431833  0.39673362  0.00559945  1
  H+  H137  1  0.60483059  0.12753427  0.34318744  1
  H+  H138  1  0.36153149  0.38607573  0.46555231  1
  H+  H139  1  0.98561894  0.60932831  0.99324063  1
  H+  H140  1  0.83336536  0.80236674  0.53565323  1
  H+  H141  1  0.64235285  0.52006906  0.49852480  1
  H+  H142  1  0.36313403  0.62880542  0.48881718  1
  H+  H143  1  0.65985404  1.03082426  0.52346264  1
  H+  H144  1  0.88337902  0.61267923  0.32805304  1
  H+  H145  1  0.62531761  0.01008794  0.97442584  1
  H+  H146  1  0.35990706  0.22842308  0.16864918  1
  H+  H147  1  0.88086979  0.51586410  0.33242400  1
  H+  H148  1  0.37676397  0.16784237  0.52169833  1
  H+  H149  1  0.37931407  0.51138020  0.50024905  1
  H+  H150  1  0.66122907  0.63675958  0.86262802  1
  H+  H151  1  0.24262019  0.38150640  0.33971630  1
  H+  H152  1  0.48807007  0.36987255  0.99145039  1
  H+  H153  1  0.89828493  0.11793645  0.83972049  1
  H+  H154  1  0.38371217  0.26453111  0.65616333  1
  H+  H155  1  0.64270485  0.35419544  0.32222234  1
  H+  H156  1  0.90064410  1.03174879  -0.00694777  1
  H+  H157  1  0.24913076  0.36719378  0.18627877  1
  H+  H158  1  0.49437566  0.92779666  0.70414879  1
  H+  H159  1  0.36853885  0.14045079  0.82243422  1
  H+  H160  1  0.47410813  0.36440790  0.18157091  1
  H+  H161  1  0.96536650  0.09994724  0.18954922  1
  H+  H162  1  0.02051943  0.14121680  0.47166750  1
  H+  H163  1  0.61238587  0.14852234  0.67155854  1
  H+  H164  1  0.60631082  0.38582045  0.16146396  1
  H+  H165  1  0.75251520  0.87907992  0.33799788  1
  H+  H166  1  0.38283684  0.48173017  0.81878359  1
  H+  H167  1  0.27769138  0.63133671  0.82588627  1
  H+  H168  1  0.23757598  0.62186740  0.50227096  1
  H+  H169  1  0.64344349  0.37559594  0.65385303  1
  H+  H170  1  0.64654386  0.44263634  0.81432944  1
  H+  H171  1  0.78012334  0.63358846  0.48599463  1
  H+  H172  1  0.84379375  -0.03185788  0.33957707  1
  H+  H173  1  0.81870097  0.11974566  0.07955505  1
  H+  H174  1  0.73893968  0.37952731  0.50847202  1
  H+  H175  1  0.86878863  0.48391199  0.49025307  1
  H+  H176  1  0.50592824  0.61903612  0.32398679  1
  H+  H177  1  0.38438403  0.93775108  0.44964838  1
  H+  H178  1  0.25061822  0.61644780  0.65785489  1
  H+  H179  1  0.38480136  0.04684377  0.50203901  1
  H+  H180  1  0.09467029  0.99215931  0.33290544  1
  H+  H181  1  0.12031780  0.36079872  0.34012946  1
  H+  H182  1  0.16820977  0.08183580  0.58880350  1
  H+  H183  1  0.28846288  0.16797029  0.51517434  1
  H+  H184  1  0.89403684  0.03491130  0.49929309  1
  H+  H185  1  0.66050725  0.32217984  0.22767898  1
  H+  H186  1  0.61693672  0.72397664  0.48507132  1
  H+  H187  1  0.14248300  0.88657671  0.77573726  1
  H+  H188  1  0.61561853  0.64318225  0.01220282  1
  H+  H189  1  0.07454231  0.90906734  0.25899275  1
  H+  H190  1  0.02468701  0.87607146  0.19703189  1
  H+  H191  1  0.37429248  0.98605639  0.00960461  1
  H+  H192  1  0.11113687  0.70315430  0.17121741  1
  H+  H193  1  0.10915110  0.62804308  0.66017152  1
  H+  H194  1  0.29034789  0.89811600  0.84021571  1
  H+  H195  1  0.33284995  0.19031954  0.33043928  1
  H+  H196  1  0.64565777  0.78095949  0.98926140  1
  H+  H197  1  0.64330312  0.60870104  0.49187950  1
  H+  H198  1  0.78028214  0.13597053  0.84475407  1
  H+  H199  1  0.77262395  0.88279928  0.14985345  1
  H+  H200  1  0.98057383  0.61260560  0.32544629  1
  H+  H201  1  0.14770734  1.03425826  0.48878555  1
  H+  H202  1  0.36674211  0.63325864  0.67199912  1
  H+  H203  1  0.23500166  0.36600192  0.67726876  1
  H+  H204  1  0.53154964  0.38987751  0.47270227  1
  H+  H205  1  0.23400900  0.86548063  1.00061196  1
  H+  H206  1  0.86833658  0.22434536  0.83694577  1
  H+  H207  1  0.61270853  0.14399621  0.12912283  1
  H+  H208  1  0.89738438  0.40571758  0.18237470  1
  H+  H209  1  -0.06735381  0.08774765  0.89586483  1
  H+  H210  1  0.40692490  0.36668880  0.83447921  1
  H+  H211  1  0.02724373  0.39393880  0.16332277  1
  H+  H212  1  0.86997318  0.14570021  0.49580909  1
  H+  H213  1  0.92636628  0.85655097  0.93988038  1
  H+  H214  1  0.42216095  0.31931705  0.27931960  1
  H+  H215  1  0.95349245  0.86237606  0.31851322  1
  H+  H216  1  0.13022306  0.73563097  0.47297966  1
  H+  H217  1  0.37452728  0.77605420  0.67305408  1
  H+  H218  1  0.85962115  0.85005774  0.32277688  1
  H+  H219  1  0.39015465  0.85852538  0.83929978  1
  H+  H220  1  0.98723545  0.88796391  0.99901144  1
  H+  H221  1  0.03955168  0.89048406  0.47923226  1
  H+  H222  1  0.14506180  0.53164970  -0.00192474  1
  H+  H223  1  0.87878208  0.01100969  0.18426108  1
  H+  H224  1  0.39068940  0.87753744  0.16402025  1
  H+  H225  1  0.37597002  0.49198464  0.97894511  1
  H+  H226  1  0.14663618  0.86613012  0.99949263  1
  H+  H227  1  0.34011802  0.47718539  0.33114823  1
  H+  H228  1  0.14460402  0.36733389  0.49758941  1
  H+  H229  1  0.37096905  0.38356513  0.65959811  1
  H+  H230  1  0.10828452  0.12247127  0.17878086  1
  H+  H231  1  0.12859786  -0.00321298  0.83009735  1
  H+  H232  1  0.40809752  0.83639516  0.61614188  1
  H+  H233  1  0.83824507  0.09482043  0.14673805  1
  H+  H234  1  0.11164681  0.88729054  0.69912983  1
  H+  H235  1  0.48862693  0.62294181  0.98576434  1
  H+  H236  1  0.86130074  0.47217421  0.66529802  1
  H+  H237  1  0.61494187  0.63131894  0.67278223  1
  H+  H238  1  0.15617771  0.12678993  0.99014322  1
  H+  H239  1  0.12138839  0.73272112  0.01642557  1
  H+  H240  1  0.59515447  0.89758268  0.68078855  1
  H+  H241  1  0.52612436  0.89241128  0.84472103  1
  H+  H242  1  -0.01137741  0.61952813  0.49626264  1
  H+  H243  1  0.96172532  0.61192026  0.16019439  1
  H+  H244  1  0.48623741  0.12190177  0.98507989  1
  H+  H245  1  0.12042721  0.34932869  0.18394107  1
  H+  H246  1  0.39865464  0.62256943  0.98357603  1
  H+  H247  1  0.35387036  0.98620549  0.40753706  1
  H+  H248  1  -0.02755962  0.61918913  0.82141855  1
  H+  H249  1  0.66973623  0.58214423  0.59687165  1
  H+  H250  1  0.14259022  0.27667921  0.67697046  1
  H+  H251  1  0.35808524  0.50928440  0.17329732  1
  H+  H252  1  0.73021202  0.36559736  -0.01106846  1
  H+  H253  1  0.97411375  0.36723327  0.33769126  1
  H+  H254  1  0.37431370  0.23197732  0.82055628  1
  H+  H255  1  0.33575459  0.88208665  0.68582963  1
  H+  H256  1  0.28063615  0.88121878  0.17235023  1
  H+  H257  1  0.61294022  0.87677211  0.66022971  1
  H+  H258  1  0.39207306  0.87116295  -0.00477165  1
  H+  H259  1  0.62030180  0.47019269  0.32880179  1
  H+  H260  1  0.61885092  0.90844686  0.51053870  1
  H+  H261  1  0.12461855  0.64532099  1.01478476  1
  H+  H262  1  -0.01628132  0.87521628  0.85007108  1
  H+  H263  1  0.25543550  0.89288681  0.70960903  1
  H+  H264  1  0.83200203  0.41863462  0.06307256  1
  H+  H265  1  0.77129635  0.38372414  0.33652370  1
  H+  H266  1  0.67262384  0.09417613  0.61167379  1
  H+  H267  1  0.21770430  0.61150713  0.17759436  1
  H+  H268  1  0.98046682  0.11910615  0.65334713  1
  H+  H269  1  0.58684513  0.75304323  0.17603254  1
  H+  H270  1  0.13299460  0.24032030  0.97514932  1
  H+  H271  1  0.59458695  0.87764954  0.34962655  1
  H+  H272  1  0.02919761  0.39270893  0.49360645  1
  H+  H273  1  0.89862774  0.77077329  0.65591526  1
  H+  H274  1  0.21974075  0.61192466  0.32830690  1
  H+  H275  1  0.38069341  0.02297207  0.66770366  1
  H+  H276  1  0.53704205  0.64256705  0.82416743  1
  H+  H277  1  0.39560691  0.03280995  0.84255690  1
  H+  H278  1  0.11814745  0.25799391  0.18837864  1
  H+  H279  1  0.52575875  0.14676428  0.13468135  1
  H+  H280  1  0.78701984  0.90133543  0.00534806  1
  H+  H281  1  0.37738716  0.23722833  0.01023067  1
  H+  H282  1  0.89730698  0.37292725  0.50047494  1
  H+  H283  1  0.33972375  0.92394232  0.77706963  1
  H+  H284  1  0.11850829  0.97857692  0.65795884  1
  H+  H285  1  0.37463331  0.47547401  0.66503069  1
  H+  H286  1  0.14041085  1.11838275  0.48837185  1
  H+  H287  1  0.71938629  0.62255443  1.03009681  1
  H+  H288  1  0.59736332  0.17120067  0.04054903  1
  H+  H289  1  0.57641985  0.41267957  0.10090551  1
  H+  H290  1  0.71709115  0.79831335  0.58807665  1
  H+  H291  1  0.09193918  0.66724978  0.42080653  1
  H+  H292  1  0.34284862  0.92682602  0.06979453  1
  H+  H293  1  0.10254262  0.93616689  0.06803592  1
  H+  H294  1  0.08321807  0.43677587  0.71949999  1
  H+  H295  1  0.14264855  0.80321935  0.60699915  1
  H+  H296  1  0.28896804  0.14797866  0.00954571  1
  H+  H297  1  0.30680193  0.37990561  0.12939945  1
  H+  H298  1  0.98132874  0.46926040  0.21733985  1
  H+  H299  1  0.78150815  0.89655537  0.82154118  1
  H+  H300  1  0.18663321  0.31767189  0.89395767  1
  H+  H301  1  0.83890987  0.92300578  0.09471524  1
  H+  H302  1  0.18552928  0.59162030  0.58862723  1
  H+  H303  1  0.34409410  0.67506479  0.05574170  1
  H+  H304  1  0.92662657  0.83702792  0.59768989  1
  H+  H305  1  0.67596695  0.07951938  0.28525985  1
  H+  H306  1  0.33451415  0.66831498  0.39473530  1
  H+  H307  1  0.08618766  0.15783518  0.72488953  1
  H+  H308  1  0.63898145  0.82749264  0.27027204  1
  H+  H309  1  0.43430785  0.33447164  0.89366909  1
  H+  H310  1  0.57637031  0.95236026  0.79082720  1
  H+  H311  1  0.41182264  0.82498554  0.89926633  1
  H+  H312  1  0.65669544  0.08811272  0.19214610  1
  H+  H313  1  0.32170015  0.42526078  0.02974845  1
  H+  H314  1  0.39319186  0.28440524  0.47649997  1
  H+  H315  1  0.41254012  0.08448976  0.57064718  1
  H+  H316  1  0.61798377  0.76100864  0.32290173  1
  H+  H317  1  0.71858663  0.59298298  0.87342438  1
  H+  H318  1  0.33397471  0.17464366  0.10601091  1
  H+  H319  1  0.67741830  0.35007632  0.57908950  1
  H+  H320  1  0.57636640  0.67605145  0.06294919  1
  H+  H321  1  0.51297181  0.92419706  0.42079271  1
  H+  H322  1  0.37309591  0.07885801  0.32924486  1
  H+  H323  1  0.84573998  0.40957194  0.76044179  1
  H+  H324  1  0.42207786  0.58468454  0.60119639  1
  H+  H325  1  0.60600196  0.97135062  0.34596885  1
  H+  H326  1  0.92767520  0.09406523  0.55875095  1
  H+  H327  1  0.92152658  0.35421483  0.27660889  1
  H+  H328  1  0.57151199  0.15141990  0.40106880  1
  H+  H329  1  0.32843016  0.16430610  0.72846303  1
  H+  H330  1  0.26775062  0.38184205  0.48136262  1
  H+  H331  1  0.82885873  0.92016107  0.42796004  1
  H+  H332  1  0.88753270  0.81336378  0.22931835  1
  H+  H333  1  0.26660326  0.70068014  0.11235645  1
  H+  H334  1  0.59542426  0.63083733  0.15816485  1
  H+  H335  1  0.53714233  0.37604006  0.33763022  1
  H+  H336  1  0.31717427  -0.09299532  0.32409884  1
  H+  H337  1  0.93499273  0.57764025  0.93030017  1
  H+  H338  1  0.67769078  0.33484977  0.92534031  1
  H+  H339  1  0.41920398  0.09442348  0.89974479  1
  H+  H340  1  0.37400828  0.72142382  0.49604237  1
  H+  H341  1  0.08798533  0.41815456  0.06087600  1
  H+  H342  1  0.66123563  0.57978378  0.22325229  1
  H+  H343  1  0.15041986  0.52162408  0.64948247  1
  H+  H344  1  0.83152394  0.66218314  0.39096620  1
  H+  H345  1  0.40279765  0.30078553  0.59096558  1
  H+  H346  1  0.10672784  0.63198751  0.32641303  1
  H+  H347  1  0.96065639  0.10380620  0.34361035  1
  H+  H348  1  0.13270026  0.38766479  0.84583050  1
  H+  H349  1  0.60588806  0.42168728  0.42586887  1
  H+  H350  1  0.07250691  0.91354206  0.37488743  1
  H+  H351  1  0.39939420  0.12495883  0.99797712  1
  H+  H352  1  0.32808944  0.65619714  0.73242974  1
  H+  H353  1  0.35983868  0.42201617  0.75898666  1
  H+  H354  1  0.12087959  0.48182535  0.49550550  1
  H+  H355  1  0.06158291  0.13490788  0.12182050  1
  H+  H356  1  0.03297308  0.13820253  0.82180899  1
  H+  H357  1  0.90881871  0.51764659  0.82967782  1
  H+  H358  1  0.91579666  0.33120816  0.90505709  1
  H+  H359  1  0.74213515  0.48020654  0.89284038  1
  H+  H360  1  0.67740884  0.84026753  0.89186426  1
  H+  H361  1  0.91235867  0.57549955  0.59119096  1
  H+  H362  1  0.90856111  0.07834092  0.27957480  1
  H+  H363  1  0.18846965  0.83885008  0.61172999  1
  H+  H364  1  0.88824909  0.27699358  0.99510017  1
  H+  H365  1  0.17603020  0.59356041  0.93985993  1
  H+  H366  1  0.39355454  0.57419239  0.26140097  1
  H+  H367  1  0.16804452  0.10495471  0.28371082  1
  H+  H368  1  0.18663048  0.09427398  0.93340973  1
  H+  H369  1  0.08135844  0.65869023  0.10585910  1
  H+  H370  1  0.85076930  0.92668892  0.73312832  1
  H+  H371  1  0.83369735  0.17388462  0.43929178  1
  H+  H372  1  0.42791175  0.58823771  0.88992120  1
  H+  H373  1  0.78288288  0.13538794  -0.01377826  1
  H+  H374  1  0.58973526  0.66401654  0.73366270  1
  H+  H375  1  0.07134654  0.94921114  0.77305279  1
  H+  H376  1  0.16088154  0.57703346  0.26856491  1
  H+  H377  1  0.81383765  0.54510318  0.84960755  1
  H+  H378  1  0.82854680  0.41943454  0.43387424  1
  H+  H379  1  0.31725367  0.41990993  0.39831853  1
  H+  H380  1  0.63042686  0.60221063  0.31427043  1
  H+  H381  1  0.58828470  0.93063977  0.04178996  1
  H+  H382  1  0.11718815  0.21453994  0.04369764  1
  H+  H383  1  0.57132445  0.65285513  0.38005770  1
  O2-  O384  1  0.07291290  0.14955302  0.16476970  1
  O2-  O385  1  0.08031512  0.16945690  0.45292577  1
  O2-  O386  1  0.09236148  0.16279690  0.80378687  1
  O2-  O387  1  0.08541522  0.40909192  0.14849150  1
  O2-  O388  1  0.09241337  0.42241880  0.47955459  1
  O2-  O389  1  0.10210843  0.41117842  0.87021959  1
  O2-  O390  1  0.07240191  0.64668411  0.15106387  1
  O2-  O391  1  0.09728468  0.67224167  0.46567272  1
  O2-  O392  1  0.14678194  0.70020415  0.80464410  1
  O2-  O393  1  0.08332347  0.90719269  0.21424901  1
  O2-  O394  1  0.09447970  0.92410411  0.45831648  1
  O2-  O395  1  0.09219781  0.93824335  0.81113784  1
  O2-  O396  1  0.32949922  0.16900578  0.15156910  1
  O2-  O397  1  0.35090936  0.20607753  0.52224732  1
  O2-  O398  1  0.33864658  0.17100941  0.80588362  1
  O2-  O399  1  0.31127187  0.39877805  0.17146880  1
  O2-  O400  1  0.32910037  0.41843911  0.46285965  1
  O2-  O401  1  0.35455784  0.42043537  0.80431467  1
  O2-  O402  1  0.30890460  0.68839717  0.13083242  1
  O2-  O403  1  0.33836032  0.66492775  0.47535697  1
  O2-  O404  1  0.33557625  0.66169884  0.80583772  1
  O2-  O405  1  0.33522026  0.92338393  0.14953748  1
  O2-  O406  1  0.34465124  0.96115176  0.44925395  1
  O2-  O407  1  0.34790252  0.92399005  0.82281705  1
  O2-  O408  1  0.58494137  0.17803382  0.11730377  1
  O2-  O409  1  0.55944345  0.11175337  0.47302880  1
  O2-  O410  1  0.58866863  0.17383624  0.80961823  1
  O2-  O411  1  0.57448039  0.41498058  0.14658030  1
  O2-  O412  1  0.59593623  0.42017634  0.47103390  1
  O2-  O413  1  0.59387951  0.42660883  0.79101638  1
  O2-  O414  1  0.56276976  0.65963635  0.14493446  1
  O2-  O415  1  0.62184242  0.68935611  0.45248737  1
  O2-  O416  1  0.59757302  0.67252000  0.80936473  1
  O2-  O417  1  0.57588015  0.91680984  0.11466893  1
  O2-  O418  1  0.48597874  0.93643413  0.45610015  1
  O2-  O419  1  0.58641189  0.93508615  0.83265897  1
  O2-  O420  1  0.79277122  0.08564564  0.11738149  1
  O2-  O421  1  0.83584106  0.17400522  0.48464339  1
  O2-  O422  1  0.83597500  0.16254267  0.82329032  1
  O2-  O423  1  0.82881668  0.42006242  0.14284226  1
  O2-  O424  1  0.83131660  0.42160737  0.47921690  1
  O2-  O425  1  0.85256215  0.41264232  0.80552507  1
  O2-  O426  1  0.80658682  0.66680631  0.13404080  1
  O2-  O427  1  0.83909501  0.66600602  0.46812307  1
  O2-  O428  1  0.75114039  0.51797081  0.85849794  1
  O2-  O429  1  0.83418472  0.91474708  0.14142845  1
  O2-  O430  1  0.84431577  0.93008759  0.47236106  1
  O2-  O431  1  0.84264196  0.92477602  0.80748209  1
  O2-  O432  1  0.16691677  0.08460564  0.20183298  1
  O2-  O433  1  0.17038749  0.09142401  0.50837803  1
  O2-  O434  1  0.18331433  0.09553566  0.85688826  1
  O2-  O435  1  0.14729900  0.31787895  0.20446442  1
  O2-  O436  1  0.17653130  0.33583138  0.50521372  1
  O2-  O437  1  0.18441441  0.34124024  0.80814245  1
  O2-  O438  1  0.15842354  0.57264555  0.19216070  1
  O2-  O439  1  0.17857719  0.59484565  0.52118166  1
  O2-  O440  1  0.17810333  0.58410793  0.86029065  1
  O2-  O441  1  0.14007794  0.79021857  0.24171106  1
  O2-  O442  1  0.18620341  0.84658767  0.48385649  1
  O2-  O443  1  0.07188457  0.70160163  0.77726972  1
  O2-  O444  1  0.42735756  0.09843091  0.17814315  1
  O2-  O445  1  0.41873287  0.10038371  0.52638498  1
  O2-  O446  1  0.41981179  0.09406197  0.85431476  1
  O2-  O447  1  0.41737524  0.33185498  0.20323861  1
  O2-  O448  1  0.42223157  0.34093497  0.45282523  1
  O2-  O449  1  0.43446640  0.33333913  0.84831183  1
  O2-  O450  1  0.39150920  0.57253563  0.18188066  1
  O2-  O451  1  0.41119042  0.57121409  0.51819631  1
  O2-  O452  1  0.42729325  0.58440715  0.84449431  1
  O2-  O453  1  0.41969611  0.84188061  0.17069027  1
  O2-  O454  1  0.43957822  0.81469128  0.53992730  1
  O2-  O455  1  0.41504582  0.82291768  0.85401231  1
  O2-  O456  1  0.65597390  0.08115841  0.14832799  1
  O2-  O457  1  0.68074332  0.09141652  0.53231585  1
  O2-  O458  1  0.67364734  0.08467007  0.89055184  1
  O2-  O459  1  0.65993263  0.33204973  0.18296582  1
  O2-  O460  1  0.67799836  0.34998360  0.52652025  1
  O2-  O461  1  0.68658717  0.32874851  0.85596228  1
  O2-  O462  1  0.65572849  0.58149972  0.17780273  1
  O2-  O463  1  0.67258450  0.58180348  0.51277682  1
  O2-  O464  1  0.70126710  0.63280812  0.89127722  1
  O2-  O465  1  0.59200971  0.80697796  0.19473948  1
  O2-  O466  1  0.73250574  0.77750473  0.54560586  1
  O2-  O467  1  0.67507175  0.84248182  0.84653740  1
  O2-  O468  1  0.90394566  0.06985252  0.20212847  1
  O2-  O469  1  0.92745618  0.09593156  0.51309891  1
  O2-  O470  1  0.93275664  0.08979072  0.85032710  1
  O2-  O471  1  0.94652334  0.40834523  0.20737851  1
  O2-  O472  1  0.93347098  0.34779398  0.51110810  1
  O2-  O473  1  0.92444841  0.32678474  0.86009931  1
  O2-  O474  1  0.89892520  0.58363108  0.16852909  1
  O2-  O475  1  0.92773561  0.58800932  0.51026617  1
  O2-  O476  1  0.92518085  0.57540190  0.84677896  1
  O2-  O477  1  0.89582339  0.81367603  0.18412929  1
  O2-  O478  1  0.89470844  0.82380356  0.52155829  1
  O2-  O479  1  0.92493690  0.84605596  0.86666134  1
  O2-  O480  1  0.16561283  0.09797858  0.32848691  1
  O2-  O481  1  0.16592233  0.07635187  0.63411389  1
  O2-  O482  1  0.18641798  0.09509250  0.97921495  1
  O2-  O483  1  0.14843509  0.32556759  0.32849002  1
  O2-  O484  1  0.17211445  0.33969597  0.68690923  1
  O2-  O485  1  0.18226184  0.32721284  0.93729099  1
  O2-  O486  1  0.15859839  0.57992099  0.31416730  1
  O2-  O487  1  0.18671284  0.58492513  0.63604023  1
  O2-  O488  1  0.18006949  0.59383592  0.98509245  1
  O2-  O489  1  0.20489951  0.79098377  0.20114666  1
  O2-  O490  1  0.14859502  0.85508217  0.74031816  1
  O2-  O491  1  0.17316564  0.83157212  0.98768611  1
  O2-  O492  1  0.39954380  0.04378213  0.33646944  1
  O2-  O493  1  0.41038457  0.08029958  0.64764308  1
  O2-  O494  1  0.42292811  0.09053978  0.97876265  1
  O2-  O495  1  0.42735266  0.30746793  0.32378199  1
  O2-  O496  1  0.41405576  0.32071005  0.63340288  1
  O2-  O497  1  0.42824212  0.33630245  0.97407331  1
  O2-  O498  1  0.39728283  0.57174188  0.30658877  1
  O2-  O499  1  0.42154378  0.58621716  0.64628323  1
  O2-  O500  1  0.42868507  0.59224798  0.96765180  1
  O2-  O501  1  0.42151538  0.80742120  0.29031730  1
  O2-  O502  1  0.39427928  0.83558598  0.65978528  1
  O2-  O503  1  0.42237561  0.84204259  0.97670194  1
  O2-  O504  1  0.66945713  0.07983103  0.32911832  1
  O2-  O505  1  0.66739296  0.09835900  0.65634886  1
  O2-  O506  1  0.66572878  0.08082802  0.95756071  1
  O2-  O507  1  0.67041939  0.32109457  0.30749143  1
  O2-  O508  1  0.67442984  0.34516625  0.63670688  1
  O2-  O509  1  0.67038293  0.33505772  0.97184931  1
  O2-  O510  1  0.66346482  0.57439521  0.30002995  1
  O2-  O511  1  0.67151702  0.58514248  0.64176694  1
  O2-  O512  1  0.66428593  0.58946476  1.00504352  1
  O2-  O513  1  0.64681902  0.82417442  0.31475238  1
  O2-  O514  1  0.69533182  0.82097673  0.64211262  1
  O2-  O515  1  0.67907803  0.84056165  0.97202569  1
  O2-  O516  1  0.90270807  0.07740358  0.32513416  1
  O2-  O517  1  0.91986568  0.08908546  0.63838768  1
  O2-  O518  1  0.93026061  0.09074203  0.97353702  1
  O2-  O519  1  0.91397208  0.33835782  0.32076389  1
  O2-  O520  1  0.90722678  0.32809501  0.65375909  1
  O2-  O521  1  0.91761247  0.33765038  0.98082076  1
  O2-  O522  1  0.91381783  0.57885808  0.31739400  1
  O2-  O523  1  0.91031617  0.57336422  0.63628949  1
  O2-  O524  1  0.92809515  0.57286549  0.97500724  1
  O2-  O525  1  0.89200407  0.82223754  0.30673563  1
  O2-  O526  1  0.93144032  0.83608278  0.64279643  1
  O2-  O527  1  0.92718799  0.86381953  0.98559488  1
  O2-  O528  1  0.10462837  0.18829200  0.00350382  1
  O2-  O529  1  0.06609773  0.16331767  0.38639464  1
  O2-  O530  1  0.08767976  0.16664700  0.67978192  1
  O2-  O531  1  0.08664046  0.42715859  0.01665973  1
  O2-  O532  1  0.07806427  0.41732887  0.36054970  1
  O2-  O533  1  0.09430249  0.43033417  0.67692790  1
  O2-  O534  1  0.09144255  0.67129523  0.03157616  1
  O2-  O535  1  0.07523757  0.66429430  0.33587361  1
  O2-  O536  1  0.07382743  0.65493732  0.66413459  1
  O2-  O537  1  0.10009890  0.93297531  0.02384349  1
  O2-  O538  1  0.05924655  0.92743454  0.33417806  1
  O2-  O539  1  0.08174527  0.91926410  0.67695441  1
  O2-  O540  1  0.34763223  0.17800930  0.02832842  1
  O2-  O541  1  0.39467123  0.21358962  0.32299733  1
  O2-  O542  1  0.32605019  0.16223802  0.68281706  1
  O2-  O543  1  0.34026025  0.42750911  -0.01210237  1
  O2-  O544  1  0.30827091  0.41695063  0.35019909  1
  O2-  O545  1  0.34474905  0.41487998  0.67983315  1
  O2-  O546  1  0.34659979  0.67383659  0.01072685  1
  O2-  O547  1  0.32753506  0.65974959  0.34985329  1
  O2-  O548  1  0.32907592  0.65711165  0.68592769  1
  O2-  O549  1  0.34713575  0.92548947  0.02460188  1
  O2-  O550  1  0.29705688  0.84977262  0.34095641  1
  O2-  O551  1  0.31907003  0.92184270  0.70526131  1
  O2-  O552  1  0.60086891  0.16977755  -0.00501449  1
  O2-  O553  1  0.57288962  0.15691522  0.35564778  1
  O2-  O554  1  0.57573705  0.17446701  0.68209866  1
  O2-  O555  1  0.58723068  0.41896592  0.02289279  1
  O2-  O556  1  0.59902189  0.41304763  0.34878489  1
  O2-  O557  1  0.58919581  0.41729313  0.67523245  1
  O2-  O558  1  0.58428307  0.67709264  0.01825334  1
  O2-  O559  1  0.56841416  0.64988632  0.33519394  1
  O2-  O560  1  0.58543891  0.66253386  0.68772207  1
  O2-  O561  1  0.58688212  0.93316905  -0.00429286  1
  O2-  O562  1  0.56445310  0.91060498  0.35698775  1
  O2-  O563  1  0.53836418  0.97514230  0.72859296  1
  O2-  O564  1  0.83836628  0.16379840  0.00782178  1
  O2-  O565  1  0.83093907  0.17270789  0.36032049  1
  O2-  O566  1  0.83173181  0.16278171  0.69702374  1
  O2-  O567  1  0.83322836  0.41595297  0.01777454  1
  O2-  O568  1  0.83065813  0.42033484  0.35423462  1
  O2-  O569  1  0.82786151  0.41184856  0.68154471  1
  O2-  O570  1  0.80611051  0.68314694  0.06810856  1
  O2-  O571  1  0.83053466  0.65895077  0.34532112  1
  O2-  O572  1  0.85027000  0.67921804  0.67422290  1
  O2-  O573  1  0.84522248  0.93386318  0.02389917  1
  O2-  O574  1  0.81343005  0.90642130  0.35258820  1
  O2-  O575  1  0.85203587  0.92626743  0.68704413  1
