# generated using pymatgen
data_H2O
_symmetry_space_group_name_H-M   'P 1'
_cell_length_a   17.98982206
_cell_length_b   17.99686559
_cell_length_c   22.00696387
_cell_angle_alpha   90.03216985
_cell_angle_beta   89.97646863
_cell_angle_gamma   120.02888739
_symmetry_Int_Tables_number   1
_chemical_formula_structural   H2O
_chemical_formula_sum   'H384 O192'
_cell_volume   6168.61886960
_cell_formula_units_Z   192
loop_
 _symmetry_equiv_pos_site_id
 _symmetry_equiv_pos_as_xyz
  1  'x, y, z'
loop_
 _atom_type_symbol
 _atom_type_oxidation_number
  H+  1.0
  O2-  -2.0
loop_
 _atom_site_type_symbol
 _atom_site_label
 _atom_site_symmetry_multiplicity
 _atom_site_fract_x
 _atom_site_fract_y
 _atom_site_fract_z
 _atom_site_occupancy
  H+  H0  1  0.61869606  0.51791011  0.17849054  1
  H+  H1  1  0.38719696  0.23613700  0.47946182  1
  H+  H2  1  -0.02990266  0.35883564  0.33137351  1
  H+  H3  1  0.22379950  0.35978975  0.67816496  1
  H+  H4  1  0.35778211  0.25940873  0.84888499  1
  H+  H5  1  0.88154678  0.34079017  0.84671930  1
  H+  H6  1  0.98325471  0.37894480  0.17592792  1
  H+  H7  1  0.64480506  0.36900617  0.17738256  1
  H+  H8  1  0.59582204  0.59293417  0.18023170  1
  H+  H9  1  0.38614394  0.11063604  -0.01106731  1
  H+  H10  1  0.88644150  0.37783355  0.18099404  1
  H+  H11  1  0.14390194  0.77227910  0.83143595  1
  H+  H12  1  0.77318865  0.13576212  0.33347972  1
  H+  H13  1  0.15991312  0.85244103  0.64896521  1
  H+  H14  1  0.29488581  0.15804893  0.48907725  1
  H+  H15  1  0.38698380  1.02303405  -0.01049000  1
  H+  H16  1  0.02114337  0.88333140  0.15957808  1
  H+  H17  1  0.35829934  0.89652879  0.15738527  1
  H+  H18  1  0.84078207  0.92277735  0.53060706  1
  H+  H19  1  0.16528741  0.06783474  0.65559351  1
  H+  H20  1  0.14145130  0.83635201  0.50026366  1
  H+  H21  1  0.72929634  0.35912003  0.66600776  1
  H+  H22  1  0.12913509  0.10878924  0.31102942  1
  H+  H23  1  0.88586211  0.54521662  0.49067525  1
  H+  H24  1  0.04579461  0.63966286  0.65828336  1
  H+  H25  1  0.38298552  0.02921323  0.16464020  1
  H+  H26  1  0.12593733  0.36083491  0.67670217  1
  H+  H27  1  0.64256910  0.26482116  0.84150320  1
  H+  H28  1  0.61174398  0.85391080  0.49578000  1
  H+  H29  1  0.62425442  0.37340893  0.83077839  1
  H+  H30  1  0.88704147  0.63452526  0.48871489  1
  H+  H31  1  0.43563352  0.59500204  0.17585473  1
  H+  H32  1  1.01420119  0.64119630  0.47777013  1
  H+  H33  1  0.77729887  0.64288820  0.32796780  1
  H+  H34  1  0.62053804  0.22831941  0.34075447  1
  H+  H35  1  0.54264773  0.13359625  0.82665219  1
  H+  H36  1  0.75577664  0.35087299  0.01911834  1
  H+  H37  1  0.58960424  0.41551762  0.10308257  1
  H+  H38  1  0.14418606  0.77664257  0.32677351  1
  H+  H39  1  0.87119618  0.64675207  0.16336839  1
  H+  H40  1  0.61806760  0.75976532  0.84464578  1
  H+  H41  1  0.41199039  0.79343078  0.56352726  1
  H+  H42  1  0.29386283  0.28132123  0.87991412  1
  H+  H43  1  0.63319582  0.57080978  0.27028731  1
  H+  H44  1  0.39727494  0.11574264  0.51043139  1
  H+  H45  1  0.15693997  0.07464516  0.51361545  1
  H+  H46  1  0.49613396  0.10949134  0.32451723  1
  H+  H47  1  0.08844426  0.16268084  0.25191250  1
  H+  H48  1  0.02399176  0.88771104  0.00573057  1
  H+  H49  1  0.77455904  0.39032794  0.17342670  1
  H+  H50  1  0.70710201  0.82504673  0.28059459  1
  H+  H51  1  0.54502055  0.63686325  0.10476214  1
  H+  H52  1  0.35556464  0.39191525  0.68284906  1
  H+  H53  1  0.02018944  0.12611559  0.17382368  1
  H+  H54  1  0.86094028  0.89088940  0.35421114  1
  H+  H55  1  0.64298378  0.10740377  0.51355147  1
  H+  H56  1  0.84313295  0.87978463  0.62634479  1
  H+  H57  1  0.39993167  0.64337309  0.84329215  1
  H+  H58  1  0.88268052  0.25300322  0.51213570  1
  H+  H59  1  0.28640274  0.88155981  0.49190428  1
  H+  H60  1  0.84778861  0.97112161  0.62656015  1
  H+  H61  1  0.63228517  0.04056023  0.99060349  1
  H+  H62  1  0.97770416  0.87257044  0.33213327  1
  H+  H63  1  0.41618617  0.07679662  0.70668767  1
  H+  H64  1  0.72996916  0.35569563  0.84716842  1
  H+  H65  1  0.13302208  1.01183148  0.33298680  1
  H+  H66  1  0.88881647  0.11695005  0.33182202  1
  H+  H67  1  0.53896215  0.39729551  0.67834797  1
  H+  H68  1  0.53382620  0.13537318  0.49705747  1
  H+  H69  1  0.85512264  0.63481789  0.01505373  1
  H+  H70  1  0.41907286  0.84268040  0.90020046  1
  H+  H71  1  0.60107150  0.71639123  0.48350738  1
  H+  H72  1  0.13545200  0.01424597  0.99787308  1
  H+  H73  1  0.90356910  0.07988111  0.23864017  1
  H+  H74  1  0.26624810  0.64556765  0.00818026  1
  H+  H75  1  0.87365151  0.42516912  0.48514489  1
  H+  H76  1  0.85720736  0.24045709  0.66719123  1
  H+  H77  1  0.64455724  0.27962640  0.17451836  1
  H+  H78  1  0.64019128  1.02579248  0.31861378  1
  H+  H79  1  0.56142873  0.69968513  0.15982251  1
  H+  H80  1  0.89105328  0.75332882  0.84821227  1
  H+  H81  1  0.89420403  0.61831494  0.32910333  1
  H+  H82  1  0.48405708  0.87179163  0.33708504  1
  H+  H83  1  0.13559963  0.86089858  -0.01243924  1
  H+  H84  1  0.37116093  0.52770952  0.33127001  1
  H+  H85  1  0.52858509  0.89924890  0.82866011  1
  H+  H86  1  0.02298616  0.87455490  0.84473105  1
  H+  H87  1  0.62748440  0.60449603  0.49322456  1
  H+  H88  1  0.64804281  0.51672473  0.84626401  1
  H+  H89  1  0.37690647  0.53896749  0.99362980  1
  H+  H90  1  0.22646380  0.60808635  0.83908043  1
  H+  H91  1  0.21557437  0.58364016  0.30243217  1
  H+  H92  1  0.62962825  0.26875724  0.99715834  1
  H+  H93  1  0.36733784  0.40831935  0.83582323  1
  H+  H94  1  0.72219008  0.12392457  -0.00226323  1
  H+  H95  1  0.38464229  0.16558430  0.67190262  1
  H+  H96  1  0.13004529  0.35961809  0.33195550  1
  H+  H97  1  0.62539428  0.76197936  0.32081568  1
  H+  H98  1  0.22948070  0.37978544  0.84446191  1
  H+  H99  1  0.63115529  0.35838773  0.51343301  1
  H+  H100  1  0.39647794  0.84809772  0.65205134  1
  H+  H101  1  0.37718550  0.72362709  0.67110718  1
  H+  H102  1  0.27805916  0.89093047  0.82009938  1
  H+  H103  1  0.14528642  0.29832135  0.51249331  1
  H+  H104  1  0.56753726  0.65599686  0.42511099  1
  H+  H105  1  0.96332931  0.61557298  0.89111332  1
  H+  H106  1  0.42631352  1.08635671  0.89525555  1
  H+  H107  1  0.36908620  -0.02392313  0.49539626  1
  H+  H108  1  0.27115548  0.88866644  1.00267050  1
  H+  H109  1  0.51243619  0.87989565  0.48905847  1
  H+  H110  1  0.49387169  0.62012687  0.66407499  1
  H+  H111  1  0.15272317  0.53819717  0.51126020  1
  H+  H112  1  0.77231713  0.89022421  0.36129801  1
  H+  H113  1  0.40500652  0.63362999  0.51994870  1
  H+  H114  1  0.62472489  0.62456323  0.82403698  1
  H+  H115  1  0.12986702  0.62962099  0.66803218  1
  H+  H116  1  0.67987543  0.08058270  0.57156575  1
  H+  H117  1  0.16392143  0.57777226  0.93494846  1
  H+  H118  1  0.61151697  0.88684791  0.33632840  1
  H+  H119  1  0.85463927  0.35509047  0.68519353  1
  H+  H120  1  0.35628354  0.21807168  0.00698493  1
  H+  H121  1  0.92041971  0.34285558  0.24176381  1
  H+  H122  1  0.37109607  0.97389462  0.34245880  1
  H+  H123  1  0.89365738  0.60837162  0.84258012  1
  H+  H124  1  0.01532292  0.37387247  0.83229729  1
  H+  H125  1  0.64279122  0.11470945  0.31712946  1
  H+  H126  1  0.49421324  0.68989860  0.86933363  1
  H+  H127  1  0.82702357  0.16487172  0.39635458  1
  H+  H128  1  0.88724659  0.02729413  0.33706217  1
  H+  H129  1  0.11109818  0.63997106  0.16348702  1
  H+  H130  1  0.12275770  0.26374637  0.67291041  1
  H+  H131  1  0.39143442  0.87226944  0.83960408  1
  H+  H132  1  0.60240006  0.97056829  0.49643655  1
  H+  H133  1  0.57438884  0.40118178  0.40433529  1
  H+  H134  1  0.79780940  0.88945827  0.83252899  1
  H+  H135  1  0.89040382  0.52670965  0.33113975  1
  H+  H136  1  0.86034929  0.38759762  0.34102228  1
  H+  H137  1  0.63973741  0.52322291  0.99583758  1
  H+  H138  1  0.52347538  0.14011782  0.00614164  1
  H+  H139  1  0.52532019  0.38151280  0.15938763  1
  H+  H140  1  0.13810881  0.27736437  0.31261793  1
  H+  H141  1  1.01603397  0.62998690  1.00379814  1
  H+  H142  1  0.64262829  0.13689358  0.67319692  1
  H+  H143  1  0.02942564  0.99828865  0.70988805  1
  H+  H144  1  0.38080639  0.27743189  0.32227488  1
  H+  H145  1  0.97569965  0.35189366  0.99492800  1
  H+  H146  1  0.01553670  0.14385645  0.67456654  1
  H+  H147  1  0.88246913  0.34060020  -0.00641039  1
  H+  H148  1  0.24321693  0.62483647  0.51949200  1
  H+  H149  1  0.61290885  0.51801246  0.33281107  1
  H+  H150  1  0.72739627  0.89547615  -0.02100557  1
  H+  H151  1  -0.00648225  0.14355453  0.50441840  1
  H+  H152  1  0.62813067  -0.02531964  0.82592193  1
  H+  H153  1  0.48835510  0.85863037  0.65393399  1
  H+  H154  1  0.27782189  0.40601969  0.50056755  1
  H+  H155  1  0.10464996  0.71891644  0.99754784  1
  H+  H156  1  0.60375023  0.46765363  0.49662365  1
  H+  H157  1  0.61254547  0.91145276  0.00783379  1
  H+  H158  1  0.51896259  0.37553535  0.34308725  1
  H+  H159  1  0.76999924  0.12695131  0.49406858  1
  H+  H160  1  0.86337527  0.09985405  0.65429876  1
  H+  H161  1  0.15337850  0.95879200  0.66452152  1
  H+  H162  1  0.26275219  0.38656208  0.99364843  1
  H+  H163  1  0.10679452  0.47519521  0.00736190  1
  H+  H164  1  0.87037852  0.46485054  0.83810977  1
  H+  H165  1  0.58976008  0.62729572  0.33491340  1
  H+  H166  1  0.28761386  0.63177562  0.67481657  1
  H+  H167  1  0.07406598  0.40428966  0.74228533  1
  H+  H168  1  0.10337986  0.46862151  0.83089946  1
  H+  H169  1  0.12077644  0.88921687  0.33737289  1
  H+  H170  1  0.41066279  0.30338313  0.66737227  1
  H+  H171  1  0.47429038  0.87540393  0.99640929  1
  H+  H172  1  0.36645693  0.64451429  0.35314395  1
  H+  H173  1  1.02217143  0.39087064  0.49948072  1
  H+  H174  1  0.35687449  0.37923776  0.15221579  1
  H+  H175  1  0.61914235  0.98834704  0.67155706  1
  H+  H176  1  0.14527654  0.14442442  0.66436743  1
  H+  H177  1  0.67878990  0.12363137  0.83009858  1
  H+  H178  1  0.11221917  0.91930739  0.67496054  1
  H+  H179  1  0.14214596  0.01265307  0.85343961  1
  H+  H180  1  0.87311430  0.62947265  0.66951134  1
  H+  H181  1  0.38450240  0.27294730  0.16801165  1
  H+  H182  1  0.62701232  0.38096921  0.67502165  1
  H+  H183  1  1.03000891  0.63615701  0.33535922  1
  H+  H184  1  0.36923342  0.49135181  0.49858044  1
  H+  H185  1  0.60107623  0.62380178  1.01472577  1
  H+  H186  1  0.63048519  0.22171584  0.67382066  1
  H+  H187  1  0.86924403  0.32869700  0.53115771  1
  H+  H188  1  0.61193637  0.72073379  0.66773141  1
  H+  H189  1  0.15724592  0.76219989  0.65289666  1
  H+  H190  1  0.61393096  0.91794772  0.16024896  1
  H+  H191  1  0.88237126  0.04402019  1.00699896  1
  H+  H192  1  0.34215467  0.64121383  0.16337261  1
  H+  H193  1  0.38394127  0.79035950  0.17047072  1
  H+  H194  1  0.61588002  0.14536692  1.00571689  1
  H+  H195  1  0.38655908  0.35560302  1.00457039  1
  H+  H196  1  0.17989772  0.57630513  0.60640191  1
  H+  H197  1  0.38279995  0.50414116  0.83261419  1
  H+  H198  1  0.11358777  0.23470563  0.82135601  1
  H+  H199  1  0.82776795  0.43008642  0.42583446  1
  H+  H200  1  0.84661929  0.92775794  0.92501804  1
  H+  H201  1  0.38482124  0.78455969  -0.00378928  1
  H+  H202  1  0.38301090  0.96663367  0.66304118  1
  H+  H203  1  0.29839216  0.17163934  0.67246242  1
  H+  H204  1  0.13617619  0.17620738  0.48864099  1
  H+  H205  1  0.37609779  0.14062012  0.82936636  1
  H+  H206  1  0.91824591  0.53790734  0.62182912  1
  H+  H207  1  0.88465489  0.86797369  0.17905775  1
  H+  H208  1  0.53205913  0.15332958  0.15812332  1
  H+  H209  1  0.23417556  0.10149995  0.85066638  1
  H+  H210  1  0.13644744  0.27694330  0.00127992  1
  H+  H211  1  0.11933358  0.71874108  0.48662136  1
  H+  H212  1  0.82479538  0.19349752  0.82421023  1
  H+  H213  1  0.68028564  0.84302057  0.16614021  1
  H+  H214  1  0.87942692  0.10856997  0.85080069  1
  H+  H215  1  0.51494987  0.38006057  0.50357850  1
  H+  H216  1  0.01356196  0.36512417  0.68321139  1
  H+  H217  1  0.78444437  0.63042284  0.67079201  1
  H+  H218  1  0.19305049  0.13638511  0.56915269  1
  H+  H219  1  0.12414868  0.52935722  0.16142845  1
  H+  H220  1  0.34670350  0.42481038  -0.04619397  1
  H+  H221  1  0.81232064  0.90770988  0.11466168  1
  H+  H222  1  0.03155152  0.63298684  0.81357009  1
  H+  H223  1  0.76284809  0.63593575  0.48205575  1
  H+  H224  1  0.37839080  0.37645021  0.51257750  1
  H+  H225  1  0.14989261  0.57259878  0.25277570  1
  H+  H226  1  1.02100379  0.85597095  0.49324948  1
  H+  H227  1  0.63743429  0.35908510  0.33019523  1
  H+  H228  1  0.29237722  0.87981027  0.66172488  1
  H+  H229  1  0.11388577  0.39977612  0.49914773  1
  H+  H230  1  0.46990457  0.88157139  0.17167145  1
  H+  H231  1  0.91111425  0.86742685  0.50827761  1
  H+  H232  1  0.28929643  0.65749646  0.37873569  1
  H+  H233  1  0.39145134  0.77860379  0.34739558  1
  H+  H234  1  0.53734556  0.62721950  0.82056421  1
  H+  H235  1  0.22649897  0.10914735  0.32830192  1
  H+  H236  1  0.10112468  0.18362908  0.08232204  1
  H+  H237  1  0.93942873  0.85887590  0.67135446  1
  H+  H238  1  0.51716811  0.63322929  1.01194234  1
  H+  H239  1  0.74973292  0.14670887  0.11461230  1
  H+  H240  1  0.87347152  0.50368748  0.01595041  1
  H+  H241  1  0.65464061  0.63457855  0.65000080  1
  H+  H242  1  0.61807180  0.38672441  0.00752522  1
  H+  H243  1  0.13927075  0.85883086  0.83524068  1
  H+  H244  1  0.84169864  -0.03175895  0.17137030  1
  H+  H245  1  0.38604430  0.87161073  0.34337689  1
  H+  H246  1  0.87113325  0.86838296  0.85156116  1
  H+  H247  1  0.36328502  0.73681901  0.82798438  1
  H+  H248  1  0.14415384  0.51539088  0.66618682  1
  H+  H249  1  0.13891813  0.60831297  0.83546417  1
  H+  H250  1  0.70633920  0.84863786  0.63525026  1
  H+  H251  1  0.77868883  0.62301634  0.83099721  1
  H+  H252  1  0.88526144  0.77217357  1.00393667  1
  H+  H253  1  0.36275297  0.13940127  0.15396807  1
  H+  H254  1  0.10081589  0.46605645  0.33850635  1
  H+  H255  1  0.87121083  0.73502903  0.16337841  1
  H+  H256  1  0.11491867  0.41018370  0.16385051  1
  H+  H257  1  0.50539900  0.63904740  0.33510855  1
  H+  H258  1  0.91780662  0.04668355  0.50640787  1
  H+  H259  1  0.48334124  0.61653285  0.50790364  1
  H+  H260  1  0.43110326  0.59410930  0.60073206  1
  H+  H261  1  0.27212521  0.39120357  0.34274037  1
  H+  H262  1  0.27078281  0.13329128  0.15400069  1
  H+  H263  1  0.53769227  0.37885027  0.82936048  1
  H+  H264  1  0.38720807  0.36895257  0.32559886  1
  H+  H265  1  0.46312677  0.03633767  0.27679396  1
  H+  H266  1  0.10735511  0.12075898  0.17209443  1
  H+  H267  1  0.13493607  1.00791840  0.16487595  1
  H+  H268  1  0.39615979  0.02904887  0.83478627  1
  H+  H269  1  0.11392699  0.93550796  0.49848581  1
  H+  H270  1  0.88914052  0.78356464  0.32875653  1
  H+  H271  1  0.23163604  0.10819674  -0.00133100  1
  H+  H272  1  0.89250758  0.52798093  0.17847542  1
  H+  H273  1  0.11586152  0.14416053  0.02259951  1
  H+  H274  1  0.86213715  0.21885909  1.02247505  1
  H+  H275  1  0.35735664  0.65123350  0.01117916  1
  H+  H276  1  0.23016546  0.39241624  0.17146280  1
  H+  H277  1  0.10826256  0.87744020  0.15913755  1
  H+  H278  1  0.23286519  0.86561958  0.33032819  1
  H+  H279  1  0.69843409  0.85233572  0.50089355  1
  H+  H280  1  0.86316424  0.13448550  0.48936758  1
  H+  H281  1  0.64241657  0.83625366  0.94162535  1
  H+  H282  1  0.22765564  0.86621661  0.17053740  1
  H+  H283  1  0.11865781  0.63384642  0.33238740  1
  H+  H284  1  0.83884899  0.65146508  0.77090946  1
  H+  H285  1  0.59143229  0.18228492  0.10067549  1
  H+  H286  1  0.87985018  0.27043858  0.32612399  1
  H+  H287  1  0.35906178  0.13424558  0.32864474  1
  H+  H288  1  0.13506202  0.36613569  0.84341939  1
  H+  H289  1  0.11538368  0.73747377  0.16962627  1
  H+  H290  1  0.92207800  0.81956253  0.56572439  1
  H+  H291  1  0.79166324  0.30266927  0.05968781  1
  H+  H292  1  0.84787515  0.92537847  0.45464239  1
  H+  H293  1  0.15714921  0.32993354  0.93737367  1
  H+  H294  1  0.34101080  0.91718313  0.76222112  1
  H+  H295  1  0.72467527  0.61560620  0.99874656  1
  H+  H296  1  0.33735732  0.16215276  0.39198517  1
  H+  H297  1  0.61764371  0.81977306  0.22120025  1
  H+  H298  1  0.88199771  0.11051330  0.17658914  1
  H+  H299  1  0.87979597  0.75835832  0.66151581  1
  H+  H300  1  0.72456072  0.36984726  0.50859282  1
  H+  H301  1  0.08520703  0.66252379  0.41948971  1
  H+  H302  1  0.58553437  0.94802847  0.06534798  1
  H+  H303  1  0.59164935  0.65807926  0.72818265  1
  H+  H304  1  0.66837961  0.32954050  0.93853798  1
  H+  H305  1  0.60269138  0.16448382  0.76770156  1
  H+  H306  1  0.38760886  0.58455626  0.27088682  1
  H+  H307  1  0.10898970  0.38731332  0.01035156  1
  H+  H308  1  0.02044473  0.15258089  0.82651508  1
  H+  H309  1  0.59377827  0.83436271  0.84532696  1
  H+  H310  1  0.92266818  0.08545953  0.90456631  1
  H+  H311  1  0.09534618  0.66477548  0.75673727  1
  H+  H312  1  0.33358501  0.42462102  0.40113511  1
  H+  H313  1  0.58550950  0.91936418  0.39703529  1
  H+  H314  1  0.43866559  0.36905670  0.61203926  1
  H+  H315  1  0.87651154  0.53759572  0.95058495  1
  H+  H316  1  0.33137211  0.41317601  0.09363390  1
  H+  H317  1  0.36180879  0.89212620  0.00554954  1
  H+  H318  1  0.91899947  0.81112340  0.91040289  1
  H+  H319  1  0.10196173  0.20531611  0.43171277  1
  H+  H320  1  0.67224089  0.33685956  0.60387112  1
  H+  H321  1  0.66465435  0.05573490  0.21049282  1
  H+  H322  1  0.83050572  0.40924892  0.11326421  1
  H+  H323  1  0.18313057  0.37936020  0.23550927  1
  H+  H324  1  0.58123376  0.92455955  0.72839081  1
  H+  H325  1  0.83349608  0.67182335  0.07430451  1
  H+  H326  1  0.40463505  0.32233778  0.94408891  1
  H+  H327  1  0.17345315  0.07493863  0.93088847  1
  H+  H328  1  0.32153839  0.67695179  0.10214504  1
  H+  H329  1  0.34330538  0.17382531  0.77299960  1
  H+  H330  1  0.90719748  0.30506184  0.61369484  1
  H+  H331  1  0.50321446  0.11982650  0.67114662  1
  H+  H332  1  0.42291911  0.08517275  0.57076790  1
  H+  H333  1  0.67004666  0.33370753  0.26924608  1
  H+  H334  1  0.33918067  0.91967014  0.40644724  1
  H+  H335  1  0.07097588  0.41759461  0.10045191  1
  H+  H336  1  0.83385831  0.39966807  0.78173311  1
  H+  H337  1  0.62109645  0.22423652  0.49740827  1
  H+  H338  1  0.12893018  0.60794858  -0.00892569  1
  H+  H339  1  0.66811580  0.58935818  0.55318099  1
  H+  H340  1  0.91844596  0.10064051  0.59728812  1
  H+  H341  1  0.07260287  0.17418721  0.73985281  1
  H+  H342  1  0.36770422  0.70078369  0.45724052  1
  H+  H343  1  0.17322884  0.83792516  0.23358853  1
  H+  H344  1  0.93815022  0.61300937  0.57914468  1
  H+  H345  1  0.17024387  0.35007109  0.57509256  1
  H+  H346  1  0.85287448  0.72718650  0.48646108  1
  H+  H347  1  0.41643926  0.09097182  0.22263241  1
  H+  H348  1  0.77035182  0.12386101  0.72000801  1
  H+  H349  1  0.34156588  0.51445446  0.18145481  1
  H+  H350  1  0.81440617  0.98658733  0.74788074  1
  H+  H351  1  0.79434514  0.93989180  0.73958084  1
  H+  H352  1  0.62801388  0.80432083  0.59265554  1
  H+  H353  1  0.34676158  0.29014369  0.54865239  1
  H+  H354  1  0.52881398  0.38572864  1.00957172  1
  H+  H355  1  0.07608084  0.41615065  0.40271263  1
  H+  H356  1  -0.04546282  0.94860514  0.75545110  1
  H+  H357  1  0.41470818  0.33510247  0.22623439  1
  H+  H358  1  0.21657899  0.62107554  0.16508260  1
  H+  H359  1  0.77108147  0.38832976  0.33781371  1
  H+  H360  1  0.39778277  0.62304810  0.66515266  1
  H+  H361  1  0.32478159  0.42184646  0.74152799  1
  H+  H362  1  0.67421089  0.57989125  0.90429105  1
  H+  H363  1  0.32566852  0.92292553  0.09719614  1
  H+  H364  1  0.82908305  0.67098144  0.38970946  1
  H+  H365  1  0.06590168  0.92043797  0.78428326  1
  H+  H366  1  0.73877686  0.69346708  0.61461003  1
  H+  H367  1  0.02602782  0.12929362  0.31040305  1
  H+  H368  1  1.01704897  0.64130460  0.17174999  1
  H+  H369  1  0.32680650  0.15789080  0.06534756  1
  H+  H370  1  0.08475272  0.91441141  0.06409349  1
  H+  H371  1  0.17744608  0.80968832  0.55843492  1
  H+  H372  1  0.41734415  0.60700785  0.93924224  1
  H+  H373  1  0.89087955  0.86385006  0.98841706  1
  H+  H374  1  0.59284430  0.16651622  0.39966160  1
  H+  H375  1  0.34055694  0.67453435  0.76979243  1
  H+  H376  1  0.86827841  0.44864152  0.69372626  1
  H+  H377  1  0.92133223  0.84590674  0.23762746  1
  H+  H378  1  0.08940288  0.91144162  0.39925418  1
  H+  H379  1  0.16760048  0.83127832  0.92902866  1
  H+  H380  1  0.92221665  0.58629927  0.23906629  1
  H+  H381  1  0.59728261  0.41001237  0.74184980  1
  H+  H382  1  0.17121860  0.06388891  0.22507838  1
  H+  H383  1  0.91112953  0.30264544  0.89978063  1
  O2-  O384  1  0.08367597  0.16003221  0.17736900  1
  O2-  O385  1  0.10020323  0.20147859  0.47597950  1
  O2-  O386  1  0.07660620  0.17682642  0.80369558  1
  O2-  O387  1  0.07097080  0.42463475  0.14606522  1
  O2-  O388  1  0.08008949  0.42460764  0.48137693  1
  O2-  O389  1  0.07550265  0.40785317  0.81585632  1
  O2-  O390  1  0.07972372  0.67431968  0.15539015  1
  O2-  O391  1  0.07674703  0.66029166  0.46614160  1
  O2-  O392  1  0.09291882  0.66539235  0.80215758  1
  O2-  O393  1  0.08045218  0.90893197  0.14189647  1
  O2-  O394  1  0.08162869  0.88230386  0.47559484  1
  O2-  O395  1  0.08125631  0.91183289  0.82557464  1
  O2-  O396  1  0.33066668  0.16832827  0.13854940  1
  O2-  O397  1  0.35115336  0.17475216  0.46969170  1
  O2-  O398  1  0.33986807  0.16709567  0.81767054  1
  O2-  O399  1  0.32231797  0.40514824  0.13737806  1
  O2-  O400  1  0.33728021  0.43048761  0.48395058  1
  O2-  O401  1  0.34533500  0.44460761  0.81891945  1
  O2-  O402  1  0.31672447  0.67590132  0.14784442  1
  O2-  O403  1  0.36334933  0.69845507  0.50253642  1
  O2-  O404  1  0.33541045  0.67499360  0.81480179  1
  O2-  O405  1  0.32477822  0.92478397  0.14291358  1
  O2-  O406  1  0.34373762  0.91989116  0.47442573  1
  O2-  O407  1  0.33956062  0.92404481  0.80692364  1
  O2-  O408  1  0.59289259  0.18557156  0.14595898  1
  O2-  O409  1  0.59354588  0.16474202  0.48114869  1
  O2-  O410  1  0.60361373  0.16606848  0.81320756  1
  O2-  O411  1  0.58738195  0.41259407  0.14835117  1
  O2-  O412  1  0.57342086  0.40447383  0.48732401  1
  O2-  O413  1  0.59608710  0.40708866  0.81328848  1
  O2-  O414  1  0.53373399  0.63798751  0.15027450  1
  O2-  O415  1  0.57310990  0.65488283  0.47068708  1
  O2-  O416  1  0.59567339  0.65283884  0.80340196  1
  O2-  O417  1  0.60031644  0.96419161  0.15036214  1
  O2-  O418  1  0.57240113  0.91414080  0.47423327  1
  O2-  O419  1  0.58660221  0.91570318  0.81226737  1
  O2-  O420  1  0.79447776  0.20039716  0.09516021  1
  O2-  O421  1  0.82932819  0.16187563  0.47605875  1
  O2-  O422  1  0.79064836  0.13561563  0.80489651  1
  O2-  O423  1  0.83705205  0.42084306  0.15801606  1
  O2-  O424  1  0.83061492  0.43950651  0.47194481  1
  O2-  O425  1  0.83502119  0.40360209  0.82689163  1
  O2-  O426  1  0.84334985  0.67683416  0.14552735  1
  O2-  O427  1  0.82380770  0.66933143  0.46689940  1
  O2-  O428  1  0.83992205  0.65157421  0.81622283  1
  O2-  O429  1  0.81013801  0.90637985  0.15900689  1
  O2-  O430  1  0.87894694  0.93839673  0.49415126  1
  O2-  O431  1  0.85428949  0.91387408  0.85121961  1
  O2-  O432  1  0.16631886  0.06895949  0.18108184  1
  O2-  O433  1  0.19509635  0.13517155  0.52326312  1
  O2-  O434  1  0.17645555  0.07251440  0.87006376  1
  O2-  O435  1  0.19140541  0.40616850  0.19502303  1
  O2-  O436  1  0.17454012  0.35710184  0.53053630  1
  O2-  O437  1  0.17002366  0.34005507  0.85780208  1
  O2-  O438  1  0.15387600  0.58917115  0.17937210  1
  O2-  O439  1  0.18371185  0.59227092  0.53451505  1
  O2-  O440  1  0.16532029  0.57561527  0.85259158  1
  O2-  O441  1  0.16736504  0.83263069  0.18844333  1
  O2-  O442  1  0.17362872  0.80691765  0.51269090  1
  O2-  O443  1  0.17351734  0.83181947  0.84804946  1
  O2-  O444  1  0.41424957  0.09124321  0.17794470  1
  O2-  O445  1  0.42467045  0.08368064  0.52620232  1
  O2-  O446  1  0.42894866  0.08972689  0.84958920  1
  O2-  O447  1  0.41540080  0.33432843  0.18109473  1
  O2-  O448  1  0.39901752  0.33793714  0.53160867  1
  O2-  O449  1  0.35512805  0.30749492  0.87073684  1
  O2-  O450  1  0.37697437  0.57460257  0.19471484  1
  O2-  O451  1  0.42633088  0.59330206  0.52997007  1
  O2-  O452  1  0.44334382  0.63066172  0.86290385  1
  O2-  O453  1  0.40975883  0.85069227  0.18459975  1
  O2-  O454  1  0.40871168  0.79113687  0.51747649  1
  O2-  O455  1  0.42065525  0.84116390  0.85461693  1
  O2-  O456  1  0.67968194  0.04349589  0.16966809  1
  O2-  O457  1  0.67023005  0.07325932  0.52588494  1
  O2-  O458  1  0.71012824  0.09263185  0.84060920  1
  O2-  O459  1  0.67634587  0.33995548  0.19313557  1
  O2-  O460  1  0.66758679  0.33398332  0.52772533  1
  O2-  O461  1  0.66732235  0.32545930  0.85751754  1
  O2-  O462  1  0.63225412  0.57230755  0.19898275  1
  O2-  O463  1  0.66014113  0.57652560  0.50882026  1
  O2-  O464  1  0.67752512  0.57792566  0.85820918  1
  O2-  O465  1  0.61963905  0.82269103  0.17647113  1
  O2-  O466  1  0.63728820  0.81770227  0.50940260  1
  O2-  O467  1  0.59122521  0.78554076  0.86945786  1
  O2-  O468  1  0.90549213  0.07619562  0.19318027  1
  O2-  O469  1  0.93399889  0.10621548  0.51908808  1
  O2-  O470  1  0.93475418  0.12351674  0.86919492  1
  O2-  O471  1  0.92185250  0.34958687  0.19518885  1
  O2-  O472  1  0.91218863  0.31093926  0.53381388  1
  O2-  O473  1  0.90920127  0.30573387  0.85446958  1
  O2-  O474  1  0.92528226  0.58864769  0.19354018  1
  O2-  O475  1  0.92197498  0.60731533  0.50244334  1
  O2-  O476  1  0.92795976  0.58078556  0.85722295  1
  O2-  O477  1  0.92228900  0.84531903  0.19239883  1
  O2-  O478  1  0.92680593  0.82297709  0.52028024  1
  O2-  O479  1  0.92122936  0.81314620  0.86456676  1
  O2-  O480  1  0.16405602  0.07393440  0.31385268  1
  O2-  O481  1  0.18712896  0.12859068  0.64580455  1
  O2-  O482  1  0.16919419  0.07669147  0.98146716  1
  O2-  O483  1  0.16866387  0.34063192  0.31354940  1
  O2-  O484  1  0.15941613  0.33021110  0.66063436  1
  O2-  O485  1  0.16259634  0.33592488  0.98255023  1
  O2-  O486  1  0.15569906  0.56887141  0.29849040  1
  O2-  O487  1  0.17932912  0.57563970  0.65278105  1
  O2-  O488  1  0.16227055  0.57819258  0.98013404  1
  O2-  O489  1  0.17279740  0.83800652  0.31406321  1
  O2-  O490  1  0.18855927  0.82185907  0.63391737  1
  O2-  O491  1  0.16558326  0.82995596  0.97433113  1
  O2-  O492  1  0.44177109  0.06654422  0.30196104  1
  O2-  O493  1  0.43851282  0.09499313  0.66552515  1
  O2-  O494  1  0.41848064  0.08333439  0.97323296  1
  O2-  O495  1  0.41574552  0.33771293  0.30933331  1
  O2-  O496  1  0.44231343  0.36626412  0.65689137  1
  O2-  O497  1  0.41498619  0.32465812  0.98865145  1
  O2-  O498  1  0.39490237  0.58827316  0.31655051  1
  O2-  O499  1  0.43104548  0.59357797  0.64751565  1
  O2-  O500  1  0.41003764  0.60092465  0.98434261  1
  O2-  O501  1  0.41864301  0.83903385  0.32980079  1
  O2-  O502  1  0.42711746  0.81755156  0.63904061  1
  O2-  O503  1  0.41475427  0.84383072  0.97884008  1
  O2-  O504  1  0.67152931  0.08394634  0.30055772  1
  O2-  O505  1  0.69220136  0.09510977  0.64845637  1
  O2-  O506  1  0.66532875  0.10227787  0.97875476  1
  O2-  O507  1  0.67106810  0.33209199  0.31513309  1
  O2-  O508  1  0.66984231  0.33625020  0.64984248  1
  O2-  O509  1  0.66670067  0.33140806  0.98367232  1
  O2-  O510  1  0.63919176  0.57711967  0.31672049  1
  O2-  O511  1  0.70256162  0.63343035  0.62656479  1
  O2-  O512  1  0.66687000  0.58291726  0.97919921  1
  O2-  O513  1  0.66107605  0.82347153  0.30521002  1
  O2-  O514  1  0.64413516  0.80672106  0.63577586  1
  O2-  O515  1  0.66440936  0.86542526  0.98107496  1
  O2-  O516  1  0.91708203  0.08421734  0.31665033  1
  O2-  O517  1  0.90780669  0.08565541  0.64138681  1
  O2-  O518  1  0.91100736  0.02483082  0.97817329  1
  O2-  O519  1  0.91117218  0.33247255  0.31282775  1
  O2-  O520  1  0.90030902  0.30244496  0.65876070  1
  O2-  O521  1  0.91567286  0.31350526  0.97963638  1
  O2-  O522  1  0.92557374  0.58776973  0.31706526  1
  O2-  O523  1  0.94121652  0.59982526  0.62318095  1
  O2-  O524  1  0.89337893  0.55662383  0.99244792  1
  O2-  O525  1  0.91700922  0.84634821  0.31912254  1
  O2-  O526  1  0.89873188  0.81544862  0.64226383  1
  O2-  O527  1  0.92082068  0.83021897  0.98415323  1
  O2-  O528  1  0.09779998  0.18381343  0.03779719  1
  O2-  O529  1  0.08847951  0.15711316  0.29835386  1
  O2-  O530  1  0.07576917  0.17445150  0.69048564  1
  O2-  O531  1  0.07595215  0.41519299  0.02438479  1
  O2-  O532  1  0.07248840  0.40822241  0.35740152  1
  O2-  O533  1  0.07472107  0.39972571  0.69610065  1
  O2-  O534  1  0.07808898  0.65833918  0.01117851  1
  O2-  O535  1  0.09174743  0.66623696  0.34963154  1
  O2-  O536  1  0.10269499  0.66568305  0.67847237  1
  O2-  O537  1  0.08605761  0.91974301  0.01868467  1
  O2-  O538  1  0.09230321  0.92116823  0.35433185  1
  O2-  O539  1  -0.00613293  0.94182249  0.72814487  1
  O2-  O540  1  0.32410700  0.15613907  0.01919009  1
  O2-  O541  1  0.32642489  0.15877462  0.34697468  1
  O2-  O542  1  0.35810708  0.19837931  0.68808775  1
  O2-  O543  1  0.32867784  0.41938587  -0.00380241  1
  O2-  O544  1  0.33356271  0.42366365  0.35595862  1
  O2-  O545  1  0.31091218  0.40362803  0.69831460  1
  O2-  O546  1  0.32544887  0.68028740  0.02549196  1
  O2-  O547  1  0.35172923  0.68513192  0.37680742  1
  O2-  O548  1  0.34863351  0.66340949  0.68914510  1
  O2-  O549  1  0.33039791  0.92223141  0.01980392  1
  O2-  O550  1  0.33728679  0.91451315  0.35917295  1
  O2-  O551  1  0.35085696  0.90843056  0.68034330  1
  O2-  O552  1  0.58312260  0.17438863  0.02191764  1
  O2-  O553  1  0.59086341  0.16666208  0.35431264  1
  O2-  O554  1  0.60421881  0.16218581  0.68874143  1
  O2-  O555  1  0.58947513  0.41881749  0.02288392  1
  O2-  O556  1  0.57852594  0.40308849  0.35936249  1
  O2-  O557  1  0.59871945  0.41444367  0.69511311  1
  O2-  O558  1  0.56986473  0.64890692  0.03531166  1
  O2-  O559  1  0.56617744  0.66584648  0.34909070  1
  O2-  O560  1  0.58549114  0.65797520  0.68264825  1
  O2-  O561  1  0.57694287  0.93778093  0.02113892  1
  O2-  O562  1  0.58242463  0.91758220  0.35135217  1
  O2-  O563  1  0.57476374  0.92934615  0.68423044  1
  O2-  O564  1  0.82141452  0.16461717  0.04469662  1
  O2-  O565  1  0.83279572  0.16745944  0.35104432  1
  O2-  O566  1  0.78129878  0.13237524  0.67550212  1
  O2-  O567  1  0.80850295  0.35963392  0.04211518  1
  O2-  O568  1  0.83213604  0.42074163  0.35421876  1
  O2-  O569  1  0.82706004  0.38853426  0.70195673  1
  O2-  O570  1  0.82996100  0.67003093  0.02774029  1
  O2-  O571  1  0.83641519  0.67302354  0.34442040  1
  O2-  O572  1  0.84167640  0.65412459  0.69060994  1
  O2-  O573  1  0.84617179  0.93261869  -0.02877224  1
  O2-  O574  1  0.83290576  0.92104406  0.37390370  1
  O2-  O575  1  0.81713474  0.91204239  0.60880655  1
