# generated using pymatgen
data_H2O
_symmetry_space_group_name_H-M   'P 1'
_cell_length_a   17.99644448
_cell_length_b   17.98947261
_cell_length_c   21.99907715
_cell_angle_alpha   89.99542195
_cell_angle_beta   89.99867296
_cell_angle_gamma   119.99221219
_symmetry_Int_Tables_number   1
_chemical_formula_structural   H2O
_chemical_formula_sum   'H384 O192'
_cell_volume   6168.42530513
_cell_formula_units_Z   192
loop_
 _symmetry_equiv_pos_site_id
 _symmetry_equiv_pos_as_xyz
  1  'x, y, z'
loop_
 _atom_type_symbol
 _atom_type_oxidation_number
  H+  1.0
  O2-  -2.0
loop_
 _atom_site_type_symbol
 _atom_site_label
 _atom_site_symmetry_multiplicity
 _atom_site_fract_x
 _atom_site_fract_y
 _atom_site_fract_z
 _atom_site_occupancy
  H+  H0  1  0.01545496  0.37872306  0.68112441  1
  H+  H1  1  0.63616000  0.50891229  0.00171048  1
  H+  H2  1  0.13788002  0.87118539  0.17254476  1
  H+  H3  1  -0.01746846  0.61625731  0.16483334  1
  H+  H4  1  0.52618898  0.63876386  0.15734546  1
  H+  H5  1  0.00833716  -0.12664354  1.00823952  1
  H+  H6  1  0.28946435  0.65408297  0.33976880  1
  H+  H7  1  0.98553661  0.10976460  0.29337541  1
  H+  H8  1  0.78776094  0.44431150  0.47779716  1
  H+  H9  1  0.13129925  0.51627641  0.69513949  1
  H+  H10  1  0.45476908  0.84797464  0.67268952  1
  H+  H11  1  0.88494928  0.61766168  0.65828146  1
  H+  H12  1  0.14026487  0.62460377  0.33038959  1
  H+  H13  1  0.46464693  0.10647814  0.66036805  1
  H+  H14  1  0.56402127  0.10855533  0.84131797  1
  H+  H15  1  0.63312240  0.27663173  0.16978609  1
  H+  H16  1  0.48943149  0.69741083  0.27197016  1
  H+  H17  1  0.61507759  0.64091357  0.00216845  1
  H+  H18  1  0.87929901  0.76134167  0.00451082  1
  H+  H19  1  0.38729894  0.17985116  -0.01265200  1
  H+  H20  1  0.91129765  0.09538668  0.65101532  1
  H+  H21  1  0.67427821  0.37359352  0.61571826  1
  H+  H22  1  0.88562770  0.01621998  0.50002730  1
  H+  H23  1  0.63989174  0.55552767  0.66856267  1
  H+  H24  1  0.73954240  0.86747013  0.66544370  1
  H+  H25  1  0.14484272  0.79529801  0.32368277  1
  H+  H26  1  0.85270431  0.22288158  0.49183686  1
  H+  H27  1  0.13688997  0.49023443  0.16450783  1
  H+  H28  1  0.46680506  0.37319853  0.67392404  1
  H+  H29  1  0.86667034  0.39785904  0.68525284  1
  H+  H30  1  0.88854922  0.21934143  0.33555420  1
  H+  H31  1  0.79224061  0.62201619  1.02095173  1
  H+  H32  1  0.46370692  0.07755713  0.32140686  1
  H+  H33  1  0.86034322  0.91363480  0.83080504  1
  H+  H34  1  0.61689083  0.88750672  0.49905439  1
  H+  H35  1  0.67316884  0.60920867  0.91076354  1
  H+  H36  1  0.35017461  0.87974374  0.66970730  1
  H+  H37  1  0.89923762  0.30986805  0.26747007  1
  H+  H38  1  0.97597705  0.87312222  0.32606299  1
  H+  H39  1  0.23629387  0.86610495  0.84271895  1
  H+  H40  1  0.39658297  0.79574720  0.33151851  1
  H+  H41  1  0.87980883  0.40797574  0.84185352  1
  H+  H42  1  0.28547227  0.65050975  0.15551409  1
  H+  H43  1  0.13375050  0.88521499  0.32292945  1
  H+  H44  1  0.12895714  0.86286598  -0.00852829  1
  H+  H45  1  0.10647264  0.14039942  0.16805019  1
  H+  H46  1  0.60640451  0.96703252  0.74285879  1
  H+  H47  1  0.82445455  0.14108418  0.67689919  1
  H+  H48  1  0.26628368  0.14479303  0.52449330  1
  H+  H49  1  0.88150502  0.10376277  0.50757806  1
  H+  H50  1  0.27439228  0.39149710  0.99774222  1
  H+  H51  1  0.36794730  0.87715192  0.50705802  1
  H+  H52  1  0.54048121  0.65016649  0.34258130  1
  H+  H53  1  0.14429392  0.28513482  -0.01419016  1
  H+  H54  1  0.15256534  0.53038758  0.46674452  1
  H+  H55  1  0.98816260  0.37428559  0.85401451  1
  H+  H56  1  0.47125495  0.09030971  0.49896590  1
  H+  H57  1  0.63027814  0.01865604  1.03350102  1
  H+  H58  1  0.61182072  0.74169288  0.68137032  1
  H+  H59  1  0.11887991  0.47803353  0.83206920  1
  H+  H60  1  0.62077272  0.65472058  0.83728127  1
  H+  H61  1  0.88298162  0.77568006  0.50472479  1
  H+  H62  1  0.89124563  0.10126299  0.29714453  1
  H+  H63  1  -0.06473316  0.61240087  -0.05663801  1
  H+  H64  1  0.86356260  0.47760645  0.16172321  1
  H+  H65  1  0.36974387  0.27529012  0.45593190  1
  H+  H66  1  -0.08619392  0.83329274  0.56431833  1
  H+  H67  1  0.14565880  0.61732024  0.83719895  1
  H+  H68  1  0.69464594  0.11025987  0.66894771  1
  H+  H69  1  0.16173912  0.36729359  0.50205749  1
  H+  H70  1  0.47995708  0.87300199  0.11936707  1
  H+  H71  1  0.29189927  0.39700738  0.49366667  1
  H+  H72  1  0.59572353  0.21457304  0.69086181  1
  H+  H73  1  0.52247433  0.63663504  0.00680887  1
  H+  H74  1  0.37452803  0.36252590  0.67132853  1
  H+  H75  1  0.05481088  0.38534994  0.47963025  1
  H+  H76  1  0.84773745  0.43492089  0.78213984  1
  H+  H77  1  0.52845281  0.88862711  0.49802072  1
  H+  H78  1  0.81595481  0.16543744  0.07180681  1
  H+  H79  1  0.73688597  0.62453017  0.16830607  1
  H+  H80  1  0.59945104  0.11149881  0.48388935  1
  H+  H81  1  0.85448088  0.88536912  0.34007937  1
  H+  H82  1  0.39884145  0.36517888  0.83643887  1
  H+  H83  1  0.68151720  0.59826749  0.26069410  1
  H+  H84  1  0.42109785  0.59014292  0.60178036  1
  H+  H85  1  0.62709403  0.77251796  1.00209597  1
  H+  H86  1  0.13227509  0.86843134  0.66056213  1
  H+  H87  1  0.01870571  0.13919457  0.18302577  1
  H+  H88  1  0.58902614  0.12245441  0.68615848  1
  H+  H89  1  0.28599720  0.39213189  0.82425633  1
  H+  H90  1  0.74592190  0.38430088  0.85628246  1
  H+  H91  1  0.66865289  0.83148506  0.25651015  1
  H+  H92  1  0.73093096  0.86527506  0.18899849  1
  H+  H93  1  0.85837926  0.97691001  0.18333100  1
  H+  H94  1  0.03712616  0.64960441  0.49099155  1
  H+  H95  1  0.13337659  0.52966633  0.32762447  1
  H+  H96  1  0.61636145  0.24918124  0.31278659  1
  H+  H97  1  0.51094280  0.42892288  0.54104824  1
  H+  H98  1  0.76686425  0.89933391  0.82522286  1
  H+  H99  1  0.11193331  0.38780729  0.32441827  1
  H+  H100  1  0.35913360  0.48229968  0.33800445  1
  H+  H101  1  0.22986318  0.62077379  0.99300117  1
  H+  H102  1  0.50162662  0.39792396  -0.01567662  1
  H+  H103  1  0.87667904  0.84992108  0.00985991  1
  H+  H104  1  0.40152658  0.27180029  0.47619947  1
  H+  H105  1  0.91634116  0.53197987  0.50859084  1
  H+  H106  1  0.72711530  0.65391830  0.98469922  1
  H+  H107  1  0.11305885  0.09738593  0.51848527  1
  H+  H108  1  0.02511467  0.88586811  0.67345877  1
  H+  H109  1  0.60856064  0.38469697  0.31862954  1
  H+  H110  1  0.59695128  0.42895137  0.65382062  1
  H+  H111  1  0.12121206  0.64984023  0.00789283  1
  H+  H112  1  0.43960778  0.88320822  0.94824214  1
  H+  H113  1  1.02124427  0.88578934  0.16152598  1
  H+  H114  1  0.63810600  0.77067622  0.18627565  1
  H+  H115  1  0.90656846  0.63620694  1.00659769  1
  H+  H116  1  0.41311442  0.16178871  0.97345480  1
  H+  H117  1  0.14473135  0.11354573  0.66986826  1
  H+  H118  1  0.35161129  0.08098752  0.45187682  1
  H+  H119  1  0.53119789  0.39785798  0.15323480  1
  H+  H120  1  0.11709816  0.73334140  0.16039705  1
  H+  H121  1  0.11627299  0.48591687  0.00967495  1
  H+  H122  1  0.40349784  0.79056627  0.14739045  1
  H+  H123  1  0.64827404  0.64654487  0.66785854  1
  H+  H124  1  0.77936613  0.39869734  0.68959000  1
  H+  H125  1  0.22961414  0.87225456  0.17496453  1
  H+  H126  1  0.62451753  0.85992718  0.01218087  1
  H+  H127  1  0.24667555  0.10676856  0.84271034  1
  H+  H128  1  0.85675506  0.36979566  1.01913497  1
  H+  H129  1  0.58373077  0.19005654  0.47149174  1
  H+  H130  1  0.10968253  0.97573899  0.15718218  1
  H+  H131  1  0.77769734  0.14782371  0.00586867  1
  H+  H132  1  0.77463136  0.88880797  0.49653976  1
  H+  H133  1  1.02864835  0.14716812  1.00972228  1
  H+  H134  1  0.40179250  0.00083347  0.98482210  1
  H+  H135  1  0.38434193  0.51884681  0.16299729  1
  H+  H136  1  0.85576060  0.96981768  0.02520632  1
  H+  H137  1  0.12967609  0.73781376  0.82969925  1
  H+  H138  1  0.36582945  0.38911022  0.15171262  1
  H+  H139  1  0.88679364  0.52863878  0.66223736  1
  H+  H140  1  0.38535712  0.23129326  0.83106657  1
  H+  H141  1  0.42125262  0.34498825  0.22151580  1
  H+  H142  1  0.61936514  0.63624861  0.50080884  1
  H+  H143  1  0.53669429  0.14154610  0.77550499  1
  H+  H144  1  0.16958041  0.33165896  0.77240251  1
  H+  H145  1  0.91589165  0.56401527  0.32483698  1
  H+  H146  1  0.39029070  0.42385331  0.49833119  1
  H+  H147  1  0.39336686  0.53772215  0.50488129  1
  H+  H148  1  0.51944647  0.36931720  0.82013042  1
  H+  H149  1  0.83258082  0.91496923  0.73632166  1
  H+  H150  1  0.87319100  0.96273711  0.67224948  1
  H+  H151  1  0.76580861  0.88327360  1.02487139  1
  H+  H152  1  0.89720257  0.77092358  0.66051781  1
  H+  H153  1  0.73265431  0.86934732  0.33375095  1
  H+  H154  1  0.41208785  0.65603459  0.31661356  1
  H+  H155  1  0.35792937  0.23425801  0.31726820  1
  H+  H156  1  0.62135972  0.47983638  0.31836646  1
  H+  H157  1  0.67286264  0.10419089  0.84469070  1
  H+  H158  1  0.86281415  0.88544887  0.49547213  1
  H+  H159  1  0.27308123  0.39453719  0.67876875  1
  H+  H160  1  0.35842986  0.62829917  0.67272225  1
  H+  H161  1  0.38499762  0.61346651  -0.01064703  1
  H+  H162  1  0.15200550  0.91537677  0.48296656  1
  H+  H163  1  0.86536074  0.64548307  0.16061784  1
  H+  H164  1  0.09736939  0.69591470  0.39366148  1
  H+  H165  1  0.13127749  0.77768004  0.65374375  1
  H+  H166  1  0.36452896  0.13864439  0.67250430  1
  H+  H167  1  0.59317390  0.66760023  0.44043146  1
  H+  H168  1  0.23133720  0.11059455  0.66489449  1
  H+  H169  1  0.78208609  0.64711273  0.67280964  1
  H+  H170  1  0.12859346  0.05850526  0.57769174  1
  H+  H171  1  0.10871362  0.13846533  -0.00677181  1
  H+  H172  1  0.17956189  0.59399511  0.41200495  1
  H+  H173  1  0.63931891  0.37010072  0.17035891  1
  H+  H174  1  0.78375012  0.65399687  0.82366811  1
  H+  H175  1  0.48490679  0.62262127  0.50922056  1
  H+  H176  1  0.27484793  0.38626734  0.15601955  1
  H+  H177  1  0.22102565  0.11198424  0.17001679  1
  H+  H178  1  0.89588904  0.29152846  0.85500028  1
  H+  H179  1  0.26563338  0.62389068  0.69040848  1
  H+  H180  1  1.03768563  0.13021429  0.67256149  1
  H+  H181  1  0.84112994  0.66764000  0.73247220  1
  H+  H182  1  0.62107460  0.48640150  0.15887446  1
  H+  H183  1  0.04443111  0.23454748  0.44878114  1
  H+  H184  1  -0.01074353  0.63354269  0.84347897  1
  H+  H185  1  0.91677238  0.09371109  0.84665902  1
  H+  H186  1  0.59639790  -0.07382409  0.40187766  1
  H+  H187  1  0.13334440  0.60564571  0.68818333  1
  H+  H188  1  0.94048114  0.37976400  0.51447259  1
  H+  H189  1  0.62660542  0.77933262  0.85344112  1
  H+  H190  1  0.60680410  0.12241364  0.31450249  1
  H+  H191  1  0.41177936  0.12859486  0.82923978  1
  H+  H192  1  0.52471542  0.65003339  0.67943481  1
  H+  H193  1  0.33841680  0.42772634  0.73648174  1
  H+  H194  1  0.11615280  0.38664444  0.82969771  1
  H+  H195  1  0.11888958  0.00855513  0.99069466  1
  H+  H196  1  0.87006179  0.27896530  0.66996241  1
  H+  H197  1  0.28893804  0.64775271  0.47675617  1
  H+  H198  1  0.26408709  0.88579962  0.67010671  1
  H+  H199  1  0.39028086  0.52849264  0.66084028  1
  H+  H200  1  0.15341034  0.02027760  0.83692705  1
  H+  H201  1  0.14940887  0.62992980  0.17387461  1
  H+  H202  1  0.51916523  0.14762289  0.16608150  1
  H+  H203  1  0.65132188  0.03176658  0.30821559  1
  H+  H204  1  0.84461974  0.35386162  0.50965507  1
  H+  H205  1  0.22526504  0.12038891  0.31108665  1
  H+  H206  1  0.90156433  0.54584024  0.84886348  1
  H+  H207  1  0.62801771  0.73452964  0.34874556  1
  H+  H208  1  0.39375769  0.77667216  0.50755678  1
  H+  H209  1  0.26120771  0.88211467  0.00595953  1
  H+  H210  1  0.64809472  0.55362156  0.84582110  1
  H+  H211  1  0.53043685  0.13411548  0.00424931  1
  H+  H212  1  0.65996945  0.88269683  0.66629131  1
  H+  H213  1  0.35672103  0.13969419  0.15981442  1
  H+  H214  1  0.73618933  0.34147552  0.33387183  1
  H+  H215  1  0.09494886  0.15576058  0.77604552  1
  H+  H216  1  0.34187913  0.65806762  0.76189778  1
  H+  H217  1  0.38081733  0.63990646  0.82868519  1
  H+  H218  1  0.36884964  -0.02571606  0.50474475  1
  H+  H219  1  0.86784856  0.34685295  0.18561711  1
  H+  H220  1  0.65417006  0.37566680  0.85334002  1
  H+  H221  1  0.12375279  0.64790778  0.47457478  1
  H+  H222  1  0.72270256  0.04526740  0.79227041  1
  H+  H223  1  1.00690143  0.14280649  0.47713191  1
  H+  H224  1  0.23241254  0.61462305  0.83925647  1
  H+  H225  1  0.83096772  0.42210265  0.33695160  1
  H+  H226  1  0.87002830  0.64883002  0.82491843  1
  H+  H227  1  0.61833025  0.88208640  0.84786479  1
  H+  H228  1  -0.02627949  0.88806986  0.85087264  1
  H+  H229  1  0.80048402  0.10614402  0.83523162  1
  H+  H230  1  0.04132330  0.66966567  0.33258731  1
  H+  H231  1  0.37145169  0.75820142  0.66554678  1
  H+  H232  1  0.38348815  0.52245733  -0.01136674  1
  H+  H233  1  0.76988784  0.38984969  0.16446171  1
  H+  H234  1  0.38944792  0.37421366  0.31714363  1
  H+  H235  1  0.36440648  0.22833088  0.67849296  1
  H+  H236  1  0.63194923  0.01754511  0.51370123  1
  H+  H237  1  0.76090805  0.37494211  0.01672106  1
  H+  H238  1  0.22055355  0.36242950  0.32246424  1
  H+  H239  1  0.67498904  0.32196084  0.49347809  1
  H+  H240  1  0.73666962  0.61815527  0.51286820  1
  H+  H241  1  0.10040218  0.65625762  0.61479242  1
  H+  H242  1  0.84111247  0.67474095  0.09600727  1
  H+  H243  1  0.65210483  0.62151527  0.32406185  1
  H+  H244  1  0.14651495  0.37379737  -0.00580915  1
  H+  H245  1  0.78469813  0.64704634  0.33277914  1
  H+  H246  1  0.29649751  0.14170932  0.54653107  1
  H+  H247  1  0.87171916  0.32732898  0.33405978  1
  H+  H248  1  0.36785006  0.72997146  0.99892311  1
  H+  H249  1  0.87012851  0.63957776  0.48728816  1
  H+  H250  1  0.83249018  0.16098135  0.43488296  1
  H+  H251  1  0.15516110  0.27765114  0.50687098  1
  H+  H252  1  0.11698646  0.98673785  0.33053368  1
  H+  H253  1  0.64440147  0.13971721  0.00353983  1
  H+  H254  1  0.12668494  -0.01131730  0.48948518  1
  H+  H255  1  1.00865849  0.11336770  0.86284167  1
  H+  H256  1  0.48266540  0.62257821  0.84407194  1
  H+  H257  1  0.14565646  0.78313638  0.50638819  1
  H+  H258  1  0.89116007  0.85587946  0.66458535  1
  H+  H259  1  0.65546382  0.48882861  0.55523045  1
  H+  H260  1  0.37333372  0.48321728  0.83022451  1
  H+  H261  1  0.07253986  0.40192647  0.74191484  1
  H+  H262  1  0.23229515  0.14085988  0.01789719  1
  H+  H263  1  0.39095949  0.28040284  0.16577632  1
  H+  H264  1  0.11845128  0.88717649  0.82841989  1
  H+  H265  1  0.68500407  0.04808566  0.13671791  1
  H+  H266  1  0.41651889  0.58829937  0.90140772  1
  H+  H267  1  0.48742369  0.86031504  0.81026316  1
  H+  H268  1  0.88108124  0.10634552  1.00923514  1
  H+  H269  1  0.47901385  0.37416035  0.31133509  1
  H+  H270  1  0.14874905  0.37284094  0.17308140  1
  H+  H271  1  0.10658874  0.22954322  0.31816381  1
  H+  H272  1  0.11871462  0.22502331  0.67778245  1
  H+  H273  1  0.13765629  0.27645284  0.17758471  1
  H+  H274  1  1.01774916  0.63409645  0.65323415  1
  H+  H275  1  0.87058033  0.74021317  0.33736963  1
  H+  H276  1  0.17106612  0.33406057  0.60645182  1
  H+  H277  1  0.38092845  0.02478454  0.17120568  1
  H+  H278  1  0.38611689  0.74236942  0.80904723  1
  H+  H279  1  0.61240721  0.38749139  0.53999238  1
  H+  H280  1  0.14861927  0.26941030  0.82659372  1
  H+  H281  1  0.90162900  0.64416481  0.32232137  1
  H+  H282  1  0.37647069  0.01864395  0.65531747  1
  H+  H283  1  0.65235093  0.38644290  1.00118834  1
  H+  H284  1  0.88486428  0.77462816  0.17363412  1
  H+  H285  1  1.02927553  0.39613228  1.01786594  1
  H+  H286  1  0.36690304  -0.10605210  0.15196234  1
  H+  H287  1  0.63995335  0.87004428  0.33139324  1
  H+  H288  1  0.27177450  0.87886422  0.50688446  1
  H+  H289  1  0.35403978  0.17222790  0.77008421  1
  H+  H290  1  0.67114684  0.83660521  0.57011688  1
  H+  H291  1  0.91242868  0.85648271  0.90809797  1
  H+  H292  1  0.18405441  0.60665179  0.23371122  1
  H+  H293  1  0.37786715  0.64868145  0.49129020  1
  H+  H294  1  0.91622113  0.83910878  0.26683364  1
  H+  H295  1  0.11521639  -0.02395030  0.67600459  1
  H+  H296  1  0.59505488  0.01237316  0.85475266  1
  H+  H297  1  0.57272646  0.13757368  0.37801244  1
  H+  H298  1  0.58411697  0.42826190  0.72729952  1
  H+  H299  1  0.20935186  0.60932899  0.57759715  1
  H+  H300  1  0.58117870  0.42162315  0.44510937  1
  H+  H301  1  0.20581734  0.64924166  0.57568262  1
  H+  H302  1  0.68521764  0.60883558  0.57604143  1
  H+  H303  1  0.33168891  0.91430156  0.76068652  1
  H+  H304  1  0.58655465  0.68318294  0.77823468  1
  H+  H305  1  0.32234387  0.91900566  0.10104416  1
  H+  H306  1  0.41687403  0.82827698  0.57135277  1
  H+  H307  1  0.53493230  0.90061692  0.34459589  1
  H+  H308  1  0.16951496  0.84171982  0.56770432  1
  H+  H309  1  0.08699012  0.91568737  0.76960194  1
  H+  H310  1  0.16321450  0.06990085  0.93231121  1
  H+  H311  1  0.64036383  0.77396545  0.51212386  1
  H+  H312  1  0.57679855  0.17407986  0.10658097  1
  H+  H313  1  0.92269166  0.58648312  0.56722048  1
  H+  H314  1  0.36952350  0.04935484  0.34434300  1
  H+  H315  1  0.41451563  0.07639874  0.56141185  1
  H+  H316  1  0.39456587  0.85790649  0.80591826  1
  H+  H317  1  0.65828473  0.32029553  0.25829427  1
  H+  H318  1  0.65212236  0.09386814  0.94381886  1
  H+  H319  1  0.16989457  0.33854857  0.25775231  1
  H+  H320  1  0.82486215  0.91109047  0.40157096  1
  H+  H321  1  0.06621958  0.16606280  0.37510612  1
  H+  H322  1  0.61275059  0.27001613  0.54800644  1
  H+  H323  1  0.91829023  0.33775841  0.95249775  1
  H+  H324  1  0.71613171  0.10898204  0.51470545  1
  H+  H325  1  0.40200160  0.07345730  0.23337652  1
  H+  H326  1  0.09750404  0.41014476  0.41382094  1
  H+  H327  1  0.93783593  0.18190345  0.37102788  1
  H+  H328  1  0.33473569  0.42062070  0.05747692  1
  H+  H329  1  0.15778311  0.07608866  0.22638733  1
  H+  H330  1  0.91828943  0.07601808  0.95467712  1
  H+  H331  1  0.16896837  0.85232971  0.25815533  1
  H+  H332  1  0.58941080  0.67566596  0.10116257  1
  H+  H333  1  0.34440719  0.87140890  0.01482094  1
  H+  H334  1  0.35484981  0.68583068  0.39611168  1
  H+  H335  1  0.67989942  0.34820527  0.94473256  1
  H+  H336  1  0.26269470  0.23179607  0.04498789  1
  H+  H337  1  0.88359853  0.86368028  0.17910863  1
  H+  H338  1  0.92830148  0.59605242  0.22510455  1
  H+  H339  1  0.40725625  0.38799202  0.98329623  1
  H+  H340  1  0.37765998  -0.02739788  0.81802749  1
  H+  H341  1  0.83687336  0.66842678  0.42940486  1
  H+  H342  1  0.10295384  0.93414518  0.39241618  1
  H+  H343  1  0.82609726  0.40583239  0.08194601  1
  H+  H344  1  0.56314073  0.32513432  0.78527976  1
  H+  H345  1  0.60275930  0.44518919  0.06066012  1
  H+  H346  1  0.48357933  0.87139482  1.00813559  1
  H+  H347  1  0.01981126  0.38221759  0.33137159  1
  H+  H348  1  0.43579456  0.34763210  0.89853529  1
  H+  H349  1  0.13160478  0.35849092  0.66401143  1
  H+  H350  1  0.07412683  0.90867221  0.06451606  1
  H+  H351  1  0.43721337  0.05719440  0.92451133  1
  H+  H352  1  0.03096020  0.65126717  0.00966738  1
  H+  H353  1  0.63521934  0.07174645  0.61167172  1
  H+  H354  1  0.65321261  0.83814340  0.91652723  1
  H+  H355  1  0.33828563  0.67290983  0.05909488  1
  H+  H356  1  0.33270651  0.15182957  0.36069624  1
  H+  H357  1  0.39232810  0.94041203  0.34089280  1
  H+  H358  1  0.60491658  0.23529068  0.01130206  1
  H+  H359  1  0.88641649  0.27172019  1.00935314  1
  H+  H360  1  0.13117333  0.11333356  0.31421689  1
  H+  H361  1  0.68502028  0.08766326  0.24817846  1
  H+  H362  1  0.64579445  0.62244555  0.16971827  1
  H+  H363  1  0.41642215  0.58437045  0.22035843  1
  H+  H364  1  0.10310007  0.43033082  0.10644545  1
  H+  H365  1  0.17299271  0.83711189  0.90135566  1
  H+  H366  1  0.36899296  0.64105112  0.15000057  1
  H+  H367  1  0.33973745  0.42725658  0.39819257  1
  H+  H368  1  0.09381767  0.67720374  0.09937646  1
  H+  H369  1  0.89999491  0.33564242  0.60957117  1
  H+  H370  1  0.72243026  0.32029138  0.61125498  1
  H+  H371  1  0.83969874  0.24743225  0.18367637  1
  H+  H372  1  0.16877238  0.58923588  0.93525184  1
  H+  H373  1  0.43332520  0.38369999  0.58640122  1
  H+  H374  1  0.78651525  0.38072594  0.42613075  1
  H+  H375  1  0.25631686  0.03401932  0.42876106  1
  H+  H376  1  0.31523141  0.17274422  0.10641837  1
  H+  H377  1  0.13855100  0.13557431  0.83248012  1
  H+  H378  1  0.82512791  0.91992182  0.12035105  1
  H+  H379  1  0.93459362  0.06889712  0.58954716  1
  H+  H380  1  0.53347962  0.40142165  0.44142657  1
  H+  H381  1  0.09728762  0.68015137  0.76997438  1
  H+  H382  1  0.79580041  0.15978902  0.73927209  1
  H+  H383  1  0.13540829  0.77656757  0.99371590  1
  O2-  O384  1  0.07825955  0.17554051  0.16682554  1
  O2-  O385  1  0.05867209  0.18934166  0.45461715  1
  O2-  O386  1  0.10450314  0.16387864  0.82056341  1
  O2-  O387  1  0.10842325  0.42974946  0.15146856  1
  O2-  O388  1  0.11057784  0.41329549  0.45964523  1
  O2-  O389  1  0.08275895  0.41595291  0.82038198  1
  O2-  O390  1  0.09086416  0.67337942  0.14549451  1
  O2-  O391  1  0.09540430  0.68355432  0.47286396  1
  O2-  O392  1  0.09875265  0.67632487  0.81411208  1
  O2-  O393  1  0.08102391  0.91319414  0.14508717  1
  O2-  O394  1  0.14820366  0.96079256  0.46011497  1
  O2-  O395  1  0.09125134  0.92075506  0.81476896  1
  O2-  O396  1  0.32722801  0.17299017  0.15112548  1
  O2-  O397  1  0.31666059  0.07067800  0.41519294  1
  O2-  O398  1  0.36266287  0.17095308  0.81525188  1
  O2-  O399  1  0.33426768  0.41925486  0.13834189  1
  O2-  O400  1  0.34874082  0.43526535  0.47491124  1
  O2-  O401  1  0.34781186  0.42430055  0.81257756  1
  O2-  O402  1  0.34264429  0.67507589  0.13537593  1
  O2-  O403  1  0.35240970  0.68248711  0.47282648  1
  O2-  O404  1  0.34939789  0.67003138  0.80844738  1
  O2-  O405  1  0.32825945  0.91924830  0.14638775  1
  O2-  O406  1  0.33547591  0.90807729  0.49343110  1
  O2-  O407  1  0.34174853  0.91209625  0.80551882  1
  O2-  O408  1  0.57917249  0.18101990  0.15142590  1
  O2-  O409  1  0.56217915  0.12888284  0.46114623  1
  O2-  O410  1  0.53139880  0.14133290  0.82254812  1
  O2-  O411  1  0.59297966  0.42756800  0.14080105  1
  O2-  O412  1  0.63324152  0.42964116  0.57343964  1
  O2-  O413  1  0.57464239  0.38197147  0.79764330  1
  O2-  O414  1  0.58838439  0.67528240  0.14702131  1
  O2-  O415  1  0.59014816  0.66741596  0.48590072  1
  O2-  O416  1  0.58543465  0.68241474  0.82361004  1
  O2-  O417  1  0.61367580  0.98367469  0.07167721  1
  O2-  O418  1  0.58906410  0.92033797  0.48386609  1
  O2-  O419  1  0.58959661  0.92181837  0.82609553  1
  O2-  O420  1  0.77567747  0.16604077  0.13955150  1
  O2-  O421  1  0.82721967  0.16217260  0.47969252  1
  O2-  O422  1  0.76060023  0.10718590  0.80563588  1
  O2-  O423  1  0.83088077  0.41582852  0.14914000  1
  O2-  O424  1  0.78185549  0.38769296  0.47233052  1
  O2-  O425  1  0.84954486  0.43805888  0.82724421  1
  O2-  O426  1  0.83642436  0.67659814  0.14609638  1
  O2-  O427  1  0.83486548  0.66480468  0.47486907  1
  O2-  O428  1  0.83807128  0.67142121  0.80173804  1
  O2-  O429  1  0.82374466  0.91627235  0.16609400  1
  O2-  O430  1  0.83416190  0.91877718  0.47989271  1
  O2-  O431  1  0.82400675  0.93130104  0.80668259  1
  O2-  O432  1  0.15861127  0.07702807  0.18089397  1
  O2-  O433  1  0.09757598  0.04306479  0.53810246  1
  O2-  O434  1  0.18558267  0.08059813  0.85395142  1
  O2-  O435  1  0.17648665  0.33921322  0.18912633  1
  O2-  O436  1  0.18582983  0.33592239  0.52427651  1
  O2-  O437  1  0.17335693  0.33251724  0.81666730  1
  O2-  O438  1  0.18467442  0.60465650  0.18919132  1
  O2-  O439  1  0.17769203  0.59221988  0.45710634  1
  O2-  O440  1  0.17251515  0.58423320  0.85347891  1
  O2-  O441  1  0.16887789  0.84296102  0.19163355  1
  O2-  O442  1  0.17844593  0.84313858  0.52222823  1
  O2-  O443  1  0.17518286  0.83549955  0.85536387  1
  O2-  O444  1  0.40688601  0.08382174  0.18899700  1
  O2-  O445  1  0.41162283  0.06446757  0.51669739  1
  O2-  O446  1  0.43973670  0.08850046  0.83890275  1
  O2-  O447  1  0.42337026  0.34327520  0.17600015  1
  O2-  O448  1  0.45548895  0.42308212  0.55072058  1
  O2-  O449  1  0.42888083  0.33513498  0.85177791  1
  O2-  O450  1  0.41655967  0.58150334  0.17562369  1
  O2-  O451  1  0.42354709  0.59712149  0.52241975  1
  O2-  O452  1  0.41953960  0.59112569  0.85470468  1
  O2-  O453  1  0.43446099  0.85384767  0.15039886  1
  O2-  O454  1  0.42080452  0.83574573  0.52632461  1
  O2-  O455  1  0.42548603  0.82515204  0.79772925  1
  O2-  O456  1  0.72667240  0.08381600  0.16878414  1
  O2-  O457  1  0.65586165  0.07842176  0.52891604  1
  O2-  O458  1  0.61471586  0.07465254  0.86347593  1
  O2-  O459  1  0.66831072  0.33866696  0.18578259  1
  O2-  O460  1  0.61359365  0.28894500  0.50618243  1
  O2-  O461  1  0.68614160  0.35037315  0.87198597  1
  O2-  O462  1  0.67602900  0.59267580  0.18535229  1
  O2-  O463  1  0.67913426  0.58792917  0.53297390  1
  O2-  O464  1  0.67554631  0.61276025  0.85999137  1
  O2-  O465  1  0.66892714  0.82923052  0.20607725  1
  O2-  O466  1  0.66888581  0.83553495  0.52488498  1
  O2-  O467  1  0.65297603  0.84017632  0.86975841  1
  O2-  O468  1  0.91826736  0.07506493  0.21208357  1
  O2-  O469  1  0.91862924  0.07848639  0.51548191  1
  O2-  O470  1  0.95005759  0.09028745  0.87991674  1
  O2-  O471  1  0.88080950  0.30421896  0.20342625  1
  O2-  O472  1  0.88359148  0.33432035  0.52658519  1
  O2-  O473  1  0.92791041  0.34989950  0.87063389  1
  O2-  O474  1  0.92231977  0.58536758  0.18086587  1
  O2-  O475  1  0.93205901  0.58980170  0.52146557  1
  O2-  O476  1  0.93017823  0.60785119  0.85964388  1
  O2-  O477  1  0.91641327  0.83490954  0.19140642  1
  O2-  O478  1  0.90858258  0.83531331  0.51950249  1
  O2-  O479  1  0.91900561  0.87873582  0.86595301  1
  O2-  O480  1  0.16052981  0.08112847  0.30317797  1
  O2-  O481  1  0.16977707  0.07964426  0.65233030  1
  O2-  O482  1  0.14969089  0.06937467  0.97609023  1
  O2-  O483  1  0.16198447  0.33419665  0.30484375  1
  O2-  O484  1  0.16689898  0.33208580  0.65159209  1
  O2-  O485  1  0.17777065  0.34761095  0.97509346  1
  O2-  O486  1  0.17291839  0.59327466  0.32756423  1
  O2-  O487  1  0.16543556  0.57864602  0.70400687  1
  O2-  O488  1  0.16808088  0.59121300  0.98033221  1
  O2-  O489  1  0.16815523  0.85521103  0.30615000  1
  O2-  O490  1  0.16400751  0.83948657  0.64264416  1
  O2-  O491  1  0.16358982  0.83676881  0.97611031  1
  O2-  O492  1  0.40140109  0.03461334  0.31476410  1
  O2-  O493  1  0.40805211  0.07908964  0.63959314  1
  O2-  O494  1  0.45456037  0.04471393  0.96371710  1
  O2-  O495  1  0.41660517  0.34370303  0.29851589  1
  O2-  O496  1  0.40784109  0.33425823  0.65799998  1
  O2-  O497  1  0.44405451  0.36722592  0.96493894  1
  O2-  O498  1  0.45428182  0.64419223  0.29438822  1
  O2-  O499  1  0.41941269  0.58987553  0.64728644  1
  O2-  O500  1  0.41534845  0.58387795  0.97309572  1
  O2-  O501  1  0.42972123  0.85862744  0.32269546  1
  O2-  O502  1  0.40068688  0.81954676  0.65044648  1
  O2-  O503  1  0.42755645  0.84645708  0.98373160  1
  O2-  O504  1  0.67167941  0.08950727  0.29151488  1
  O2-  O505  1  0.63379141  0.07376223  0.65693917  1
  O2-  O506  1  0.67321187  0.10843537  0.98576352  1
  O2-  O507  1  0.65288995  0.31242576  0.30416292  1
  O2-  O508  1  0.68268728  0.32889120  0.63646512  1
  O2-  O509  1  0.67514856  0.34662797  0.99087898  1
  O2-  O510  1  0.68474002  0.59560159  0.30646800  1
  O2-  O511  1  0.67700882  0.61478522  0.65244638  1
  O2-  O512  1  0.67053671  0.60715573  0.97315052  1
  O2-  O513  1  0.66883239  0.83683990  0.31708692  1
  O2-  O514  1  0.67779573  0.84341441  0.65055861  1
  O2-  O515  1  0.65551045  0.83474005  0.98936235  1
  O2-  O516  1  0.92219907  0.07165587  0.27967563  1
  O2-  O517  1  0.94018637  0.06607599  0.63518080  1
  O2-  O518  1  0.90935762  0.07239165  0.99947688  1
  O2-  O519  1  0.91279264  0.31335778  0.31489839  1
  O2-  O520  1  0.90679153  0.33852086  0.65436099  1
  O2-  O521  1  0.91443704  0.33497890  0.99746239  1
  O2-  O522  1  0.94006137  0.62068614  0.30665527  1
  O2-  O523  1  0.91445862  0.58553579  0.64127444  1
  O2-  O524  1  0.94028008  0.60996717  0.98797976  1
  O2-  O525  1  0.91518470  0.84013556  0.31283852  1
  O2-  O526  1  0.92540363  0.83202963  0.64606733  1
  O2-  O527  1  0.90630270  0.82347587  0.98874039  1
  O2-  O528  1  0.09173243  0.18050976  0.00633632  1
  O2-  O529  1  0.07072255  0.16667019  0.33009490  1
  O2-  O530  1  0.09287713  0.16558240  0.69432044  1
  O2-  O531  1  0.09141937  0.42709039  0.02716542  1
  O2-  O532  1  0.08199125  0.41706220  0.34346879  1
  O2-  O533  1  0.07502501  0.40265291  0.69635126  1
  O2-  O534  1  0.09441079  0.68214753  0.02504669  1
  O2-  O535  1  0.10184809  0.69685453  0.34829800  1
  O2-  O536  1  0.08287784  0.66391487  0.65527716  1
  O2-  O537  1  0.07157018  0.90632602  0.01925786  1
  O2-  O538  1  0.08900712  0.92576681  0.34754149  1
  O2-  O539  1  0.08565176  0.91466088  0.68976023  1
  O2-  O540  1  0.28054982  0.18916741  0.04061386  1
  O2-  O541  1  0.32262277  0.17079087  0.32096536  1
  O2-  O542  1  0.33712009  0.16774842  0.69386968  1
  O2-  O543  1  0.33697578  0.42307369  0.01224318  1
  O2-  O544  1  0.33112737  0.42335700  0.35279857  1
  O2-  O545  1  0.33470043  0.42623271  0.69076547  1
  O2-  O546  1  0.33577200  0.66984204  0.01331729  1
  O2-  O547  1  0.35102722  0.68746167  0.35053813  1
  O2-  O548  1  0.33084083  0.65876367  0.69324563  1
  O2-  O549  1  0.32057652  0.90919274  0.02409129  1
  O2-  O550  1  0.38577258  0.88871256  0.36370563  1
  O2-  O551  1  0.32553168  0.91527464  0.68430533  1
  O2-  O552  1  0.58287742  0.17617052  0.02700107  1
  O2-  O553  1  0.57034670  0.14483957  0.33354821  1
  O2-  O554  1  0.56065181  0.15471280  0.70432491  1
  O2-  O555  1  0.60811361  0.44672520  0.01551670  1
  O2-  O556  1  0.58084888  0.41881449  0.32790352  1
  O2-  O557  1  0.57416957  0.44820321  0.68719045  1
  O2-  O558  1  0.58212501  0.66840030  0.02268899  1
  O2-  O559  1  0.59783465  0.67288198  0.36146951  1
  O2-  O560  1  0.58316784  0.68208344  0.69779946  1
  O2-  O561  1  0.56344004  0.89317208  0.05337363  1
  O2-  O562  1  0.59640206  0.92422392  0.35666420  1
  O2-  O563  1  0.64155438  0.95235974  0.76925264  1
  O2-  O564  1  0.83390147  0.17126189  0.02737369  1
  O2-  O565  1  0.88148407  0.16336946  0.35344244  1
  O2-  O566  1  0.80228497  0.17555412  0.69496382  1
  O2-  O567  1  0.82298238  0.39864745  0.03466217  1
  O2-  O568  1  0.79584455  0.36692538  0.35680462  1
  O2-  O569  1  0.84031034  0.43153887  0.70150428  1
  O2-  O570  1  0.84670701  0.67068386  0.03370598  1
  O2-  O571  1  0.84469230  0.67810105  0.35037013  1
  O2-  O572  1  0.84258939  0.66761152  0.68536708  1
  O2-  O573  1  0.82428150  0.91004463  0.04255306  1
  O2-  O574  1  0.82005151  0.91029969  0.35635745  1
  O2-  O575  1  0.83488489  0.90581769  0.69045273  1
