# generated using pymatgen
data_H2O
_symmetry_space_group_name_H-M   'P 1'
_cell_length_a   17.98649559
_cell_length_b   17.98733156
_cell_length_c   21.99084706
_cell_angle_alpha   90.01099596
_cell_angle_beta   90.01434517
_cell_angle_gamma   120.00087041
_symmetry_Int_Tables_number   1
_chemical_formula_structural   H2O
_chemical_formula_sum   'H384 O192'
_cell_volume   6161.43730266
_cell_formula_units_Z   192
loop_
 _symmetry_equiv_pos_site_id
 _symmetry_equiv_pos_as_xyz
  1  'x, y, z'
loop_
 _atom_type_symbol
 _atom_type_oxidation_number
  H+  1.0
  O2-  -2.0
loop_
 _atom_site_type_symbol
 _atom_site_label
 _atom_site_symmetry_multiplicity
 _atom_site_fract_x
 _atom_site_fract_y
 _atom_site_fract_z
 _atom_site_occupancy
  H+  H0  1  0.52579296  0.89315816  0.49890550  1
  H+  H1  1  0.72719721  0.61660375  0.17704516  1
  H+  H2  1  0.92522257  0.75935092  0.32001107  1
  H+  H3  1  0.86281709  0.38977670  0.49305532  1
  H+  H4  1  0.53513019  0.38863397  0.16095042  1
  H+  H5  1  0.42049294  0.58664955  0.60228554  1
  H+  H6  1  0.07817154  0.29330906  0.30379305  1
  H+  H7  1  0.36244870  0.37552417  1.01053556  1
  H+  H8  1  0.65578855  0.12199752  0.65862025  1
  H+  H9  1  0.86101326  0.85837360  0.02044110  1
  H+  H10  1  0.89160868  1.04819373  0.33401003  1
  H+  H11  1  0.38717273  0.10103095  0.18087718  1
  H+  H12  1  0.63182983  0.51813739  0.49687561  1
  H+  H13  1  0.26163558  0.13021951  0.82527134  1
  H+  H14  1  0.92400012  0.35472131  0.56550980  1
  H+  H15  1  0.13898069  0.27841473  0.84597955  1
  H+  H16  1  0.79617759  0.60582274  0.75176132  1
  H+  H17  1  0.52088426  0.38359629  0.49404203  1
  H+  H18  1  0.88073682  0.04847619  0.84729852  1
  H+  H19  1  0.47114336  0.60550563  0.34417314  1
  H+  H20  1  0.70978195  0.59165120  0.83356126  1
  H+  H21  1  0.62907474  0.60842106  0.99136135  1
  H+  H22  1  0.62336470  1.00630447  0.14831344  1
  H+  H23  1  0.96416243  0.60991849  0.50838131  1
  H+  H24  1  0.88894855  0.13875068  0.85274279  1
  H+  H25  1  0.76765733  0.91819382  0.82719170  1
  H+  H26  1  0.78898883  0.87890760  0.68019219  1
  H+  H27  1  0.39124498  0.61499758  0.66237414  1
  H+  H28  1  0.71439634  0.11471886  0.00275024  1
  H+  H29  1  0.00118375  0.95684875  0.38032094  1
  H+  H30  1  0.15128125  0.86830424  0.83675717  1
  H+  H31  1  0.26403027  0.14155891  0.49391700  1
  H+  H32  1  0.35550468  0.87150460  0.67186457  1
  H+  H33  1  0.71731119  0.22157193  0.37155637  1
  H+  H34  1  0.94605231  0.84954534  0.51278835  1
  H+  H35  1  0.07597227  0.18006241  0.77594759  1
  H+  H36  1  0.10259357  0.71729084  0.48455069  1
  H+  H37  1  0.15044159  0.05986764  0.45235560  1
  H+  H38  1  0.62098818  0.22702566  0.66684084  1
  H+  H39  1  0.89178429  0.08893095  0.65821659  1
  H+  H40  1  0.39485487  0.86541295  0.18380458  1
  H+  H41  1  0.27306001  0.87957211  0.16805430  1
  H+  H42  1  0.52307179  0.38597088  0.33742658  1
  H+  H43  1  0.97814068  0.38904778  0.65783034  1
  H+  H44  1  0.76331885  0.88719720  0.49911860  1
  H+  H45  1  0.85412975  0.88347549  0.29580335  1
  H+  H46  1  0.23464307  0.37217186  0.66099455  1
  H+  H47  1  0.84600633  0.21457358  0.02462578  1
  H+  H48  1  0.64175358  0.27167215  0.50538776  1
  H+  H49  1  0.12294565  0.60342230  -0.00783245  1
  H+  H50  1  0.58068293  0.17599470  0.10469808  1
  H+  H51  1  0.86006796  0.63482426  0.49014761  1
  H+  H52  1  0.34471423  0.64794632  1.01907009  1
  H+  H53  1  0.01864712  0.38607872  0.83016197  1
  H+  H54  1  0.61542075  0.63872933  0.33622681  1
  H+  H55  1  0.48862271  0.84465434  0.98459408  1
  H+  H56  1  0.67709647  0.83213317  0.90691843  1
  H+  H57  1  0.15363449  0.40278883  0.01709148  1
  H+  H58  1  0.33320661  0.42265189  0.77064489  1
  H+  H59  1  0.36966446  0.48036399  0.67486913  1
  H+  H60  1  0.35370193  0.14286996  0.49834163  1
  H+  H61  1  0.33825287  0.94879569  0.56486471  1
  H+  H62  1  0.08858208  0.95544542  0.50805068  1
  H+  H63  1  0.47379408  0.35864844  0.99475178  1
  H+  H64  1  0.12671903  0.01622023  0.83281060  1
  H+  H65  1  0.12530545  0.10532385  0.83507700  1
  H+  H66  1  0.61032489  0.72556383  0.33289161  1
  H+  H67  1  0.11481384  0.13719757  0.15914014  1
  H+  H68  1  0.36836016  0.99775874  0.50460215  1
  H+  H69  1  0.80849182  0.15750179  0.18679272  1
  H+  H70  1  0.61849222  0.88389527  0.65314582  1
  H+  H71  1  0.27137778  0.13507445  0.34089657  1
  H+  H72  1  0.48926433  0.80995764  0.83283308  1
  H+  H73  1  0.36300682  0.48305048  0.82939434  1
  H+  H74  1  0.90923805  0.53068480  0.33499194  1
  H+  H75  1  0.02224737  0.14690817  0.83731866  1
  H+  H76  1  0.86496672  0.63489251  0.16910682  1
  H+  H77  1  0.78680745  0.40511993  0.33470454  1
  H+  H78  1  0.13899138  0.11274310  0.32787781  1
  H+  H79  1  0.85182490  0.69957828  0.01507042  1
  H+  H80  1  0.45606568  0.70644273  0.96648315  1
  H+  H81  1  0.27183893  0.63624301  0.66187329  1
  H+  H82  1  0.60943120  0.38145666  0.49164154  1
  H+  H83  1  0.92455237  0.07577718  0.56710447  1
  H+  H84  1  -0.01357034  0.38486251  0.32198971  1
  H+  H85  1  0.36870989  0.20929757  0.17096876  1
  H+  H86  1  0.36243273  0.47652458  0.34946101  1
  H+  H87  1  0.64688875  0.77184088  0.99690771  1
  H+  H88  1  0.86821742  0.31089464  0.94056193  1
  H+  H89  1  0.88364686  0.36841025  0.84256039  1
  H+  H90  1  0.94157721  0.59019149  0.80244272  1
  H+  H91  1  0.37191863  0.09394218  0.33359365  1
  H+  H92  1  0.75890843  0.38883614  0.67169128  1
  H+  H93  1  0.77828031  0.24628021  0.96901500  1
  H+  H94  1  0.11486616  0.39079826  0.49292956  1
  H+  H95  1  0.38625994  0.61708361  0.51036926  1
  H+  H96  1  0.13897745  0.53182779  0.17772759  1
  H+  H97  1  0.11744749  0.88553896  0.16119351  1
  H+  H98  1  0.84649629  0.46621106  0.82688183  1
  H+  H99  1  0.85353279  0.69471496  0.78770033  1
  H+  H100  1  0.83198300  0.84545994  0.31667714  1
  H+  H101  1  1.01298202  0.88529043  0.34601671  1
  H+  H102  1  0.88124326  1.12862787  0.01168429  1
  H+  H103  1  0.86160896  0.59762080  0.82256083  1
  H+  H104  1  0.25855316  0.86874256  0.66869462  1
  H+  H105  1  1.03263038  0.65246648  0.99677981  1
  H+  H106  1  0.12182132  0.85083942  0.50798659  1
  H+  H107  1  0.73718408  0.85836508  -0.00101287  1
  H+  H108  1  0.06311064  0.68333334  0.32746718  1
  H+  H109  1  0.89742236  0.28690015  0.51026710  1
  H+  H110  1  0.51059999  0.87157027  0.33648591  1
  H+  H111  1  0.27297622  0.38616882  0.34495962  1
  H+  H112  1  0.41696364  0.64172975  0.84534096  1
  H+  H113  1  0.48530414  0.36718525  0.66753116  1
  H+  H114  1  0.52724457  0.63829535  0.67398824  1
  H+  H115  1  0.37690380  0.11940854  0.83664279  1
  H+  H116  1  0.79040317  0.14666414  0.49671499  1
  H+  H117  1  0.89083383  0.25208268  0.34419613  1
  H+  H118  1  0.71115473  0.86477453  0.32407979  1
  H+  H119  1  0.51805111  0.88169087  0.16488172  1
  H+  H120  1  0.10427225  0.91877401  0.76074464  1
  H+  H121  1  0.37665820  0.43404445  0.16192739  1
  H+  H122  1  0.34944633  0.22180778  0.82742713  1
  H+  H123  1  0.35797357  -0.02730232  1.01730293  1
  H+  H124  1  0.36819980  0.22144409  1.01293939  1
  H+  H125  1  0.72533711  0.36385889  0.50491991  1
  H+  H126  1  -0.00498243  0.36208499  0.00789091  1
  H+  H127  1  0.43463430  0.11401236  0.57179282  1
  H+  H128  1  0.52228061  0.12214930  0.81135916  1
  H+  H129  1  0.63210448  0.01287706  0.85064332  1
  H+  H130  1  0.46261669  0.14835592  0.87233608  1
  H+  H131  1  0.82301935  0.17577252  0.77795524  1
  H+  H132  1  1.02892324  0.87750507  0.68708746  1
  H+  H133  1  0.62986243  0.13368442  0.49659907  1
  H+  H134  1  0.98007313  0.12962603  1.00246327  1
  H+  H135  1  0.37986512  0.76545644  0.65817434  1
  H+  H136  1  0.11069886  0.63549537  0.15873462  1
  H+  H137  1  0.61058499  0.50661439  0.64546040  1
  H+  H138  1  0.63954282  0.13856456  -0.00324231  1
  H+  H139  1  0.01953006  0.13657044  0.49600659  1
  H+  H140  1  0.22651927  0.36980465  0.84391819  1
  H+  H141  1  0.08555792  0.81199981  0.30989910  1
  H+  H142  1  0.36352756  0.39065766  0.49961813  1
  H+  H143  1  0.61713400  0.88261357  1.00715222  1
  H+  H144  1  0.46254060  0.35051760  0.83936880  1
  H+  H145  1  0.11622505  0.63447241  0.83402176  1
  H+  H146  1  0.98375540  0.83644603  1.00111196  1
  H+  H147  1  0.38679369  0.76596750  -0.01341530  1
  H+  H148  1  0.61409048  0.63480563  0.67227867  1
  H+  H149  1  0.64011078  0.52362159  0.32838691  1
  H+  H150  1  0.13606588  0.76560586  0.66129431  1
  H+  H151  1  0.61435281  0.63153934  0.82813969  1
  H+  H152  1  0.02675280  0.39411608  0.49318724  1
  H+  H153  1  0.76840608  0.62905584  0.48449723  1
  H+  H154  1  0.87076459  -0.01994654  0.16721615  1
  H+  H155  1  0.38413243  0.11163483  1.00242998  1
  H+  H156  1  0.15958338  0.78456642  0.84069338  1
  H+  H157  1  0.14248902  0.02200904  0.65449028  1
  H+  H158  1  0.38307501  0.60797443  0.33925336  1
  H+  H159  1  0.12932109  0.51595305  0.83746149  1
  H+  H160  1  0.28201733  0.89779770  0.81981314  1
  H+  H161  1  0.61456649  0.48388578  0.15780790  1
  H+  H162  1  0.27964981  0.13757733  0.66841881  1
  H+  H163  1  0.13817090  0.02185391  0.17161552  1
  H+  H164  1  0.63013712  0.26267933  0.83964156  1
  H+  H165  1  0.39855859  0.63474861  0.17360362  1
  H+  H166  1  0.13678694  0.27768787  0.50897423  1
  H+  H167  1  0.22679520  0.36406474  0.17095626  1
  H+  H168  1  0.53280704  0.65380564  0.00651929  1
  H+  H169  1  0.63006462  0.75713814  0.50332560  1
  H+  H170  1  0.89158387  0.77351119  0.17373252  1
  H+  H171  1  0.12976513  0.27321220  0.99745342  1
  H+  H172  1  0.36281563  0.96853902  0.17029643  1
  H+  H173  1  0.53956681  0.13169046  0.49009810  1
  H+  H174  1  0.75970246  0.37513471  0.82841581  1
  H+  H175  1  0.62559462  0.88106153  0.83734004  1
  H+  H176  1  0.89428923  0.36097577  0.16727578  1
  H+  H177  1  0.60233838  0.87309440  0.50243577  1
  H+  H178  1  0.85352242  0.61773809  0.65577485  1
  H+  H179  1  0.43638162  0.77715764  0.89480119  1
  H+  H180  1  0.35532407  0.72497379  0.81829561  1
  H+  H181  1  0.70878184  0.57322931  0.64970937  1
  H+  H182  1  0.86109967  0.47443380  0.16889397  1
  H+  H183  1  0.63528758  0.45663273  0.70364937  1
  H+  H184  1  0.02642613  0.38771041  0.15564488  1
  H+  H185  1  0.75958543  0.98647264  0.37557312  1
  H+  H186  1  0.27336475  0.64093781  0.49172269  1
  H+  H187  1  0.12041843  0.88679685  0.00790000  1
  H+  H188  1  0.02920060  0.88713367  0.16043743  1
  H+  H189  1  0.84580844  0.87712382  0.49211544  1
  H+  H190  1  0.14560419  0.54780194  0.32640912  1
  H+  H191  1  0.88162280  0.28039423  0.84637819  1
  H+  H192  1  0.04505004  0.66083726  0.84302832  1
  H+  H193  1  0.29966956  0.88392598  0.38884448  1
  H+  H194  1  0.89219476  0.84009887  0.71882399  1
  H+  H195  1  0.02786433  0.85432912  0.79930829  1
  H+  H196  1  0.33239972  0.41630824  0.09425316  1
  H+  H197  1  0.16423902  0.33585086  0.93833009  1
  H+  H198  1  0.98558817  0.91049054  0.87509393  1
  H+  H199  1  0.64128112  0.37030359  0.32407279  1
  H+  H200  1  0.64819188  0.77480979  0.84503968  1
  H+  H201  1  0.60278592  0.23293142  1.01175319  1
  H+  H202  1  0.27476396  0.12601468  0.16620518  1
  H+  H203  1  0.32688936  0.95383531  0.33657286  1
  H+  H204  1  0.89877956  0.12591878  0.17582247  1
  H+  H205  1  0.89876813  0.27136103  0.17096050  1
  H+  H206  1  0.38430410  0.27255152  0.33015098  1
  H+  H207  1  0.38635015  0.33143473  0.17487927  1
  H+  H208  1  0.64451448  0.77287012  0.66879451  1
  H+  H209  1  0.12566269  0.73054989  0.00518499  1
  H+  H210  1  0.11562409  0.38656004  0.16353636  1
  H+  H211  1  0.61454138  0.13508210  0.15312165  1
  H+  H212  1  0.25623640  0.64026805  1.00363951  1
  H+  H213  1  0.05813146  0.64928393  0.43025234  1
  H+  H214  1  0.75887758  0.13893307  0.83497638  1
  H+  H215  1  0.64259839  0.78020458  0.16875142  1
  H+  H216  1  0.51668268  0.13902368  1.01159512  1
  H+  H217  1  0.37088212  0.73706023  0.17628207  1
  H+  H218  1  0.13905965  0.52925096  0.65688142  1
  H+  H219  1  0.23394194  0.86612178  1.00209458  1
  H+  H220  1  0.62189732  0.34738253  0.83976888  1
  H+  H221  1  0.02784577  0.13707046  0.34294602  1
  H+  H222  1  0.02591636  0.13871598  0.16258832  1
  H+  H223  1  0.78239656  0.11737745  0.68017735  1
  H+  H224  1  0.11760923  0.64055783  0.67306152  1
  H+  H225  1  0.37058946  0.98612515  0.81140139  1
  H+  H226  1  0.87839178  0.14638361  0.50055415  1
  H+  H227  1  0.94805627  0.70167716  0.95730177  1
  H+  H228  1  0.75681382  0.40520111  0.01541821  1
  H+  H229  1  0.28108633  0.73967772  0.79084237  1
  H+  H230  1  0.65307007  0.02645931  0.50977739  1
  H+  H231  1  0.97884422  0.61059057  0.17226003  1
  H+  H232  1  0.13293263  0.61157329  0.50074138  1
  H+  H233  1  0.58563404  0.91574918  0.59897889  1
  H+  H234  1  0.47383850  0.18552100  0.51927310  1
  H+  H235  1  0.87237489  0.63352797  0.34254484  1
  H+  H236  1  0.38987777  0.53108872  0.51108429  1
  H+  H237  1  0.28070427  0.64856587  0.17342120  1
  H+  H238  1  0.39042109  0.87371615  0.51105048  1
  H+  H239  1  0.39387376  0.54893814  0.15382233  1
  H+  H240  1  0.38846627  0.85172388  0.32442593  1
  H+  H241  1  0.36985290  0.39144958  0.67698358  1
  H+  H242  1  0.60976718  0.88408610  0.15875472  1
  H+  H243  1  0.59476644  0.45363265  0.82623759  1
  H+  H244  1  0.48662785  0.12012362  0.65564996  1
  H+  H245  1  0.12322452  0.11268057  0.49449466  1
  H+  H246  1  0.85425729  0.43647025  1.01100805  1
  H+  H247  1  0.27522680  0.37836502  0.00960754  1
  H+  H248  1  0.88451973  0.02052230  0.50680782  1
  H+  H249  1  0.91452039  0.14492667  0.33382224  1
  H+  H250  1  0.10820832  0.38523116  0.83021549  1
  H+  H251  1  0.74074404  0.36053332  0.17640987  1
  H+  H252  1  0.13906139  0.52628771  0.50267650  1
  H+  H253  1  0.60974567  0.12259447  0.82413640  1
  H+  H254  1  0.11955917  0.39850268  0.67245184  1
  H+  H255  1  0.52702503  0.64802288  0.15582190  1
  H+  H256  1  0.81588865  0.07740563  0.73020085  1
  H+  H257  1  0.38406894  0.36199721  0.32877564  1
  H+  H258  1  0.60400358  0.47419149  1.00401447  1
  H+  H259  1  0.98605270  0.11003546  0.65992448  1
  H+  H260  1  0.61844280  0.85414654  0.32344566  1
  H+  H261  1  0.83347014  0.41918036  0.43342727  1
  H+  H262  1  0.64898593  0.02965141  0.65280919  1
  H+  H263  1  1.00980234  0.36608238  0.97553586  1
  H+  H264  1  0.09558806  0.13050630  0.00390430  1
  H+  H265  1  0.67556580  0.12886795  0.29622677  1
  H+  H266  1  0.38360319  0.27890078  0.51306412  1
  H+  H267  1  0.14752773  0.49680524  0.01460777  1
  H+  H268  1  0.48727975  0.61656291  0.84039918  1
  H+  H269  1  0.36202355  0.72966541  0.49186404  1
  H+  H270  1  0.87567961  0.52399140  0.50762602  1
  H+  H271  1  0.62367347  0.35409128  0.66550379  1
  H+  H272  1  0.22731901  0.36621766  0.50715659  1
  H+  H273  1  0.87297224  0.39820352  0.33442977  1
  H+  H274  1  0.13273193  0.76749776  0.16565021  1
  H+  H275  1  0.21368872  0.61195857  0.83578115  1
  H+  H276  1  0.73059519  0.61170964  0.32671284  1
  H+  H277  1  0.10603461  0.25518344  0.68050457  1
  H+  H278  1  0.62475255  0.36450201  0.99540508  1
  H+  H279  1  0.64334890  0.26012818  0.17651179  1
  H+  H280  1  0.12088530  0.22119767  0.34281528  1
  H+  H281  1  0.13862985  0.27168187  0.16985097  1
  H+  H282  1  0.12297470  0.41041998  0.33941656  1
  H+  H283  1  0.83983211  0.60761465  0.01630834  1
  H+  H284  1  0.39791956  0.12264379  0.65853838  1
  H+  H285  1  0.65706490  0.66293292  0.48005155  1
  H+  H286  1  0.21596253  0.86225707  0.50792349  1
  H+  H287  1  0.61525262  0.64430221  0.16066983  1
  H+  H288  1  0.41051912  0.32433402  0.93667785  1
  H+  H289  1  0.58142917  0.41287012  0.39706295  1
  H+  H290  1  0.57454043  0.90401543  0.06254057  1
  H+  H291  1  0.92934259  0.09449621  0.23469697  1
  H+  H292  1  0.16539493  0.58652065  0.59549268  1
  H+  H293  1  0.40465304  0.06277374  0.27776838  1
  H+  H294  1  0.40287365  0.07090388  0.94310267  1
  H+  H295  1  0.16547504  0.07980935  0.23158223  1
  H+  H296  1  0.81727200  0.42011680  0.73142189  1
  H+  H297  1  0.23836530  0.63010394  0.32114939  1
  H+  H298  1  0.32738489  0.91066637  0.07494969  1
  H+  H299  1  0.43422416  0.61989981  0.93395652  1
  H+  H300  1  0.71380446  0.60107187  0.99383813  1
  H+  H301  1  0.86034779  0.76330611  0.49906703  1
  H+  H302  1  0.66137442  0.29168143  0.33157264  1
  H+  H303  1  0.13002933  0.02202029  0.33015206  1
  H+  H304  1  0.33275586  0.41559200  0.43862590  1
  H+  H305  1  0.67545877  0.32924609  0.23998024  1
  H+  H306  1  0.16354950  0.82217622  0.59856337  1
  H+  H307  1  0.32919149  0.16915056  0.40099483  1
  H+  H308  1  0.68174040  0.09498790  0.23253981  1
  H+  H309  1  0.08787417  0.42992820  0.40008884  1
  H+  H310  1  0.65767146  0.33136802  0.93857740  1
  H+  H311  1  0.62849181  0.69692208  0.42213454  1
  H+  H312  1  0.32776465  0.91364427  0.73345072  1
  H+  H313  1  0.62889648  0.18554169  0.40398895  1
  H+  H314  1  0.60086751  0.91411576  0.77761619  1
  H+  H315  1  0.83919949  0.90244086  0.07436953  1
  H+  H316  1  0.93195141  0.58704134  0.23662655  1
  H+  H317  1  0.82861190  0.65564865  0.10918854  1
  H+  H318  1  0.17342401  0.34280490  0.60126805  1
  H+  H319  1  0.66430163  0.83582194  0.22965382  1
  H+  H320  1  0.46970074  0.85709074  0.65470174  1
  H+  H321  1  0.01631492  0.22493384  0.71008064  1
  H+  H322  1  0.11396883  0.01594865  0.99292767  1
  H+  H323  1  0.37821342  0.35963565  0.84215300  1
  H+  H324  1  0.16696492  0.59564073  0.23599751  1
  H+  H325  1  0.66112944  0.57719290  0.55616255  1
  H+  H326  1  0.88186517  0.96113531  0.67703518  1
  H+  H327  1  0.11685864  0.88275579  0.66640654  1
  H+  H328  1  0.81132048  0.52041242  0.67803804  1
  H+  H329  1  0.42177938  0.33940679  0.57223683  1
  H+  H330  1  0.42746660  0.83568592  0.24572657  1
  H+  H331  1  0.93125049  0.62306255  0.91483329  1
  H+  H332  1  0.41287368  0.83304159  0.56609848  1
  H+  H333  1  0.59047060  0.66851915  0.76972413  1
  H+  H334  1  0.58972421  0.66886487  0.06722688  1
  H+  H335  1  0.65796361  0.33116572  0.60174321  1
  H+  H336  1  0.09262833  0.67267909  0.73356168  1
  H+  H337  1  0.15689189  0.32656110  0.26010485  1
  H+  H338  1  0.07739072  0.16652952  0.06696997  1
  H+  H339  1  0.08113863  0.17029268  0.43669483  1
  H+  H340  1  0.15156254  0.56909879  0.93281336  1
  H+  H341  1  0.66068127  0.08571964  0.90414444  1
  H+  H342  1  0.15324960  0.81444211  0.22903909  1
  H+  H343  1  0.86993561  0.19668512  0.40692038  1
  H+  H344  1  0.42056640  0.32414480  0.24011484  1
  H+  H345  1  0.18111641  0.84076418  0.93859294  1
  H+  H346  1  0.83846530  0.66704849  0.39692510  1
  H+  H347  1  0.56641882  0.39050574  0.76708425  1
  H+  H348  1  0.07998633  0.66180859  0.09701462  1
  H+  H349  1  0.37470295  0.73604576  0.33214636  1
  H+  H350  1  0.65582771  0.56980715  0.89623240  1
  H+  H351  1  0.95743694  0.82133262  0.26146562  1
  H+  H352  1  0.68702986  0.09117163  0.56695027  1
  H+  H353  1  0.66588740  0.81990302  0.60616988  1
  H+  H354  1  0.59473395  0.16395366  0.72453093  1
  H+  H355  1  0.91624053  0.83207118  0.83945420  1
  H+  H356  1  0.17436327  0.07994392  0.59639773  1
  H+  H357  1  0.82252521  0.42572571  0.10598223  1
  H+  H358  1  0.78056483  0.89148356  0.16742533  1
  H+  H359  1  0.80638539  0.94400925  0.40987636  1
  H+  H360  1  0.18239826  0.83018548  0.32474548  1
  H+  H361  1  0.08590918  0.42314993  0.73238191  1
  H+  H362  1  0.33708082  0.67409362  0.39237799  1
  H+  H363  1  0.91415751  0.10485050  0.94147403  1
  H+  H364  1  0.47830328  0.10641139  0.18258767  1
  H+  H365  1  0.34094633  0.16139478  0.07243489  1
  H+  H366  1  0.57996012  0.41934857  0.06650670  1
  H+  H367  1  0.66507582  0.58548557  0.23427865  1
  H+  H368  1  0.12199662  0.43673050  0.08299872  1
  H+  H369  1  0.84011587  0.16569459  0.09023742  1
  H+  H370  1  0.92735899  0.34626731  0.26201902  1
  H+  H371  1  0.89438859  0.86428471  0.17999027  1
  H+  H372  1  0.39491226  0.27998229  0.66445577  1
  H+  H373  1  0.71273115  0.09458451  0.13445012  1
  H+  H374  1  0.83077191  0.94563713  0.77079413  1
  H+  H375  1  0.92156782  0.81609208  0.94308036  1
  H+  H376  1  0.08833562  0.91456903  0.06731979  1
  H+  H377  1  0.32123568  0.67230226  0.72404312  1
  H+  H378  1  0.89231927  0.39434201  0.65429362  1
  H+  H379  1  0.14032741  0.07309624  0.93283427  1
  H+  H380  1  0.05375644  0.90306070  0.44815242  1
  H+  H381  1  0.55095679  0.74536012  0.54366367  1
  H+  H382  1  0.57488180  0.90296428  0.39537562  1
  H+  H383  1  0.33248744  0.16522610  0.73052459  1
  O2-  O384  1  0.08606344  0.16926295  0.14468736  1
  O2-  O385  1  0.08137553  0.16981734  0.48230544  1
  O2-  O386  1  0.08147849  0.17183141  0.82025722  1
  O2-  O387  1  0.09012635  0.41957265  0.14493478  1
  O2-  O388  1  0.08699782  0.42274298  0.47659787  1
  O2-  O389  1  0.07844938  0.41498767  0.81302477  1
  O2-  O390  1  0.07729191  0.66288108  0.14227706  1
  O2-  O391  1  0.07107844  0.65522983  0.47427886  1
  O2-  O392  1  0.09690543  0.67589867  0.81970656  1
  O2-  O393  1  0.09013628  0.91902682  0.14603664  1
  O2-  O394  1  0.06042759  0.89600775  0.49256203  1
  O2-  O395  1  0.08915283  0.90395116  0.80460417  1
  O2-  O396  1  0.33605707  0.15058944  0.15335126  1
  O2-  O397  1  0.32572425  0.17433176  0.48207365  1
  O2-  O398  1  0.32291510  0.16150611  0.81112857  1
  O2-  O399  1  0.32536350  0.42315214  0.14079822  1
  O2-  O400  1  0.33102170  0.41823678  0.48406230  1
  O2-  O401  1  0.33069238  0.42191683  0.81613517  1
  O2-  O402  1  0.34199267  0.67581214  0.16279000  1
  O2-  O403  1  0.33449391  0.66931174  0.47810092  1
  O2-  O404  1  0.29708509  0.69553929  0.79506413  1
  O2-  O405  1  0.33375344  0.90886350  0.15381557  1
  O2-  O406  1  0.33632117  0.93917831  0.52100004  1
  O2-  O407  1  0.33829234  0.92666101  0.79655652  1
  O2-  O408  1  0.58814277  0.17306046  0.14995748  1
  O2-  O409  1  0.60059879  0.16406313  0.47852981  1
  O2-  O410  1  0.58454286  0.15535180  0.80390269  1
  O2-  O411  1  0.58949758  0.42548404  0.13960270  1
  O2-  O412  1  0.57948250  0.41157024  0.47534318  1
  O2-  O413  1  0.56440803  0.39192901  0.81417304  1
  O2-  O414  1  0.59016559  0.67737948  0.14221611  1
  O2-  O415  1  0.65980335  0.71513317  0.46230421  1
  O2-  O416  1  0.59042698  0.66899156  0.81507836  1
  O2-  O417  1  0.57580299  0.90966377  0.14220321  1
  O2-  O418  1  0.58901475  0.91951163  0.49274926  1
  O2-  O419  1  0.59062369  0.90779676  0.82127199  1
  O2-  O420  1  0.85470753  0.17821471  0.15671696  1
  O2-  O421  1  0.85243835  0.18082076  0.48589484  1
  O2-  O422  1  0.82067104  0.17718504  0.82270885  1
  O2-  O423  1  0.82832324  0.41554844  0.15060283  1
  O2-  O424  1  0.82727369  0.41508841  0.47844085  1
  O2-  O425  1  0.81964459  0.40617916  0.81165759  1
  O2-  O426  1  0.83503289  0.66539421  0.15409118  1
  O2-  O427  1  0.82939597  0.66352169  0.47077254  1
  O2-  O428  1  0.80597511  0.62993110  0.79356720  1
  O2-  O429  1  0.84254618  0.91827697  0.15532097  1
  O2-  O430  1  0.82066327  0.91644552  0.48139404  1
  O2-  O431  1  0.81224666  0.96912350  0.80472339  1
  O2-  O432  1  0.16760675  0.08300246  0.18639777  1
  O2-  O433  1  0.15241179  0.07599305  0.49501081  1
  O2-  O434  1  0.15624475  0.07537727  0.84936015  1
  O2-  O435  1  0.16648207  0.33172305  0.18692243  1
  O2-  O436  1  0.16674636  0.33836654  0.52318069  1
  O2-  O437  1  0.16633802  0.33928439  0.86033243  1
  O2-  O438  1  0.16350525  0.59256801  0.18935947  1
  O2-  O439  1  0.16733629  0.58692536  0.51799883  1
  O2-  O440  1  0.15647433  0.57570269  0.85523648  1
  O2-  O441  1  0.16247625  0.82622905  0.18451949  1
  O2-  O442  1  0.15585249  0.82259650  0.51948446  1
  O2-  O443  1  0.18858602  0.84590143  0.85323708  1
  O2-  O444  1  0.41868012  0.07273725  0.19787148  1
  O2-  O445  1  0.43745193  0.12355660  0.52427408  1
  O2-  O446  1  0.41597504  0.09759865  0.85289464  1
  O2-  O447  1  0.42510503  0.31603642  0.19483078  1
  O2-  O448  1  0.41951171  0.33953800  0.52654474  1
  O2-  O449  1  0.40231262  0.32313174  0.85581607  1
  O2-  O450  1  0.43150940  0.60203423  0.17574402  1
  O2-  O451  1  0.41785964  0.58995855  0.52835659  1
  O2-  O452  1  0.42641647  0.59331413  0.85445284  1
  O2-  O453  1  0.42995267  0.83997856  0.19743996  1
  O2-  O454  1  0.41876794  0.84033282  0.52101538  1
  O2-  O455  1  0.43876002  0.75894803  0.85039731  1
  O2-  O456  1  0.65638675  0.07250106  0.15327473  1
  O2-  O457  1  0.68434329  0.08857775  0.52140260  1
  O2-  O458  1  0.65783838  0.07550298  0.85904255  1
  O2-  O459  1  0.67844404  0.32294764  0.19361189  1
  O2-  O460  1  0.66398248  0.33170105  0.51935172  1
  O2-  O461  1  0.65648314  0.32173727  0.85630344  1
  O2-  O462  1  0.66540461  0.58760246  0.18886020  1
  O2-  O463  1  0.66535956  0.57902512  0.51110043  1
  O2-  O464  1  0.65064786  0.56502667  0.85079698  1
  O2-  O465  1  0.67226759  0.84088865  0.18436762  1
  O2-  O466  1  0.61000499  0.78936340  0.53414686  1
  O2-  O467  1  0.67523105  0.83477250  0.86083281  1
  O2-  O468  1  0.92763551  0.09106761  0.18961061  1
  O2-  O469  1  0.92024480  0.08080264  0.52191096  1
  O2-  O470  1  0.91730859  0.10658990  0.86745977  1
  O2-  O471  1  0.92976050  0.33743824  0.18304252  1
  O2-  O472  1  0.92486662  0.34944042  0.51954426  1
  O2-  O473  1  0.91543745  0.34118881  0.86045871  1
  O2-  O474  1  0.92045801  0.58069241  0.19238167  1
  O2-  O475  1  0.90373336  0.58447839  0.52182882  1
  O2-  O476  1  0.90407511  0.57815089  0.83759014  1
  O2-  O477  1  0.92655725  0.83342919  0.18967254  1
  O2-  O478  1  0.88312116  0.82257078  0.51587510  1
  O2-  O479  1  0.92571259  0.86525628  0.87823726  1
  O2-  O480  1  0.16705742  0.07995487  0.31281812  1
  O2-  O481  1  0.17664147  0.08271528  0.64058293  1
  O2-  O482  1  0.12918486  0.07335860  0.97677198  1
  O2-  O483  1  0.14062682  0.31990562  0.30501385  1
  O2-  O484  1  0.17354474  0.34532097  0.64684817  1
  O2-  O485  1  0.16463750  0.33462150  0.98400539  1
  O2-  O486  1  0.17717732  0.60461352  0.30694463  1
  O2-  O487  1  0.16961023  0.58966432  0.64113084  1
  O2-  O488  1  0.14960033  0.56845492  0.97823077  1
  O2-  O489  1  0.12578288  0.79021324  0.30512781  1
  O2-  O490  1  0.16944490  0.82711191  0.64390722  1
  O2-  O491  1  0.17306997  0.83450694  0.98317172  1
  O2-  O492  1  0.39157938  0.05352438  0.32199704  1
  O2-  O493  1  0.42797022  0.09547301  0.63772200  1
  O2-  O494  1  0.41435451  0.07913618  0.98689177  1
  O2-  O495  1  0.41551251  0.33253085  0.31360084  1
  O2-  O496  1  0.42518885  0.34107014  0.65063396  1
  O2-  O497  1  0.41200609  0.32432431  0.98196018  1
  O2-  O498  1  0.40845066  0.56943401  0.33784861  1
  O2-  O499  1  0.42349325  0.58646739  0.64854684  1
  O2-  O500  1  0.44445327  0.64737643  0.97476210  1
  O2-  O501  1  0.42214647  0.82566293  0.31142044  1
  O2-  O502  1  0.40727776  0.82847833  0.64537883  1
  O2-  O503  1  0.43724352  0.80232298  0.95963319  1
  O2-  O504  1  0.71495024  0.12140617  0.26983969  1
  O2-  O505  1  0.68786245  0.09187354  0.64517120  1
  O2-  O506  1  0.68265776  0.12977577  0.97355007  1
  O2-  O507  1  0.67841173  0.34674101  0.30919045  1
  O2-  O508  1  0.65774853  0.32613413  0.64671795  1
  O2-  O509  1  0.65733612  0.33414224  0.98373742  1
  O2-  O510  1  0.66973868  0.58386833  0.31297001  1
  O2-  O511  1  0.65296111  0.56722703  0.63641624  1
  O2-  O512  1  0.65593936  0.57498741  0.97464157  1
  O2-  O513  1  0.65375711  0.82746622  0.30659340  1
  O2-  O514  1  0.67641324  0.83202339  0.65051782  1
  O2-  O515  1  0.67779680  0.83230826  0.98115378  1
  O2-  O516  1  0.93605243  0.10489206  0.31788269  1
  O2-  O517  1  0.92941245  0.06705453  0.64277531  1
  O2-  O518  1  0.91671147  0.10340706  0.98774216  1
  O2-  O519  1  0.92574170  0.35128692  0.30741468  1
  O2-  O520  1  0.92064141  0.36310784  0.63889734  1
  O2-  O521  1  0.83654187  0.29273401  0.97956176  1
  O2-  O522  1  0.94144837  0.59314357  0.32047962  1
  O2-  O523  1  0.80293019  0.57233632  0.67609550  1
  O2-  O524  1  0.94608281  0.64575457  0.95671205  1
  O2-  O525  1  0.97640960  0.81071170  0.30188707  1
  O2-  O526  1  0.92332365  0.80739147  0.71608064  1
  O2-  O527  1  0.92598481  0.79311589  0.98389856  1
  O2-  O528  1  0.07238713  0.16806963  0.02150850  1
  O2-  O529  1  0.08942203  0.16214026  0.35967827  1
  O2-  O530  1  0.05706748  0.20505704  0.70262910  1
  O2-  O531  1  0.15505469  0.45314144  0.04100226  1
  O2-  O532  1  0.08837280  0.43497447  0.35448067  1
  O2-  O533  1  0.08825727  0.42782413  0.68718603  1
  O2-  O534  1  0.08840356  0.66817808  0.01676100  1
  O2-  O535  1  0.02662248  0.62659657  0.34859603  1
  O2-  O536  1  0.09118088  0.67413719  0.68880890  1
  O2-  O537  1  0.08328763  0.91047568  0.02198511  1
  O2-  O538  1  0.04220992  0.93673444  0.37589244  1
  O2-  O539  1  0.09203689  0.91736706  0.68253602  1
  O2-  O540  1  0.34233887  0.16112237  0.02736720  1
  O2-  O541  1  0.33187073  0.16794262  0.35585927  1
  O2-  O542  1  0.33949092  0.16882714  0.68544920  1
  O2-  O543  1  0.33400248  0.40726335  0.02648026  1
  O2-  O544  1  0.33183485  0.41060179  0.35961130  1
  O2-  O545  1  0.33732545  0.42021592  0.69083759  1
  O2-  O546  1  0.31233260  0.67833929  0.02279786  1
  O2-  O547  1  0.33873052  0.67156921  0.34760123  1
  O2-  O548  1  0.33166432  0.66752647  0.67990928  1
  O2-  O549  1  0.32413624  0.91166936  0.02969295  1
  O2-  O550  1  0.28911843  0.89005981  0.34634639  1
  O2-  O551  1  0.32177807  0.90072594  0.68512044  1
  O2-  O552  1  0.57654052  0.17297981  0.02843871  1
  O2-  O553  1  0.65782973  0.20565888  0.36359147  1
  O2-  O554  1  0.59532367  0.16444613  0.67921473  1
  O2-  O555  1  0.57558511  0.41409732  0.02037387  1
  O2-  O556  1  0.58411207  0.41499884  0.35151069  1
  O2-  O557  1  0.58392302  0.40149377  0.69613763  1
  O2-  O558  1  0.59121724  0.66780384  0.02129289  1
  O2-  O559  1  0.58629549  0.66848663  0.35383961  1
  O2-  O560  1  0.58804888  0.66748115  0.68955336  1
  O2-  O561  1  0.57912223  0.90603874  0.01739650  1
  O2-  O562  1  0.57490727  0.90118081  0.35102836  1
  O2-  O563  1  0.58544215  0.91435623  0.64365062  1
  O2-  O564  1  0.83261020  0.15806511  0.04236942  1
  O2-  O565  1  0.87729932  0.19620773  0.36228952  1
  O2-  O566  1  0.83502937  0.12670974  0.70281760  1
  O2-  O567  1  0.81377100  0.44731561  0.03338384  1
  O2-  O568  1  0.84560563  0.43050732  0.35234189  1
  O2-  O569  1  0.81759964  0.43249447  0.68718037  1
  O2-  O570  1  0.81322981  0.64032877  0.03149268  1
  O2-  O571  1  0.84280586  0.66648785  0.35087842  1
  O2-  O572  1  0.92867666  0.78271234  0.77954243  1
  O2-  O573  1  0.83526557  0.89375510  0.02950029  1
  O2-  O574  1  0.79792748  0.96349223  0.36907372  1
  O2-  O575  1  0.84614719  0.90722910  0.70010154  1
