# generated using pymatgen
data_H2O
_symmetry_space_group_name_H-M   'P 1'
_cell_length_a   17.98199395
_cell_length_b   17.98916129
_cell_length_c   22.00687798
_cell_angle_alpha   89.98289335
_cell_angle_beta   89.98010028
_cell_angle_gamma   119.99015875
_symmetry_Int_Tables_number   1
_chemical_formula_structural   H2O
_chemical_formula_sum   'H384 O192'
_cell_volume   6165.67741002
_cell_formula_units_Z   192
loop_
 _symmetry_equiv_pos_site_id
 _symmetry_equiv_pos_as_xyz
  1  'x, y, z'
loop_
 _atom_type_symbol
 _atom_type_oxidation_number
  H+  1.0
  O2-  -2.0
loop_
 _atom_site_type_symbol
 _atom_site_label
 _atom_site_symmetry_multiplicity
 _atom_site_fract_x
 _atom_site_fract_y
 _atom_site_fract_z
 _atom_site_occupancy
  H+  H0  1  0.42207039  0.82316435  0.65098219  1
  H+  H1  1  0.83804518  0.63263225  0.36899529  1
  H+  H2  1  0.63985683  0.85420950  0.84746492  1
  H+  H3  1  0.77229337  0.87049560  0.82384751  1
  H+  H4  1  0.47822666  0.36391334  0.65830996  1
  H+  H5  1  0.60510057  0.93309353  0.26472409  1
  H+  H6  1  0.06089507  0.53234287  0.95884490  1
  H+  H7  1  0.61175715  0.38470722  0.49322036  1
  H+  H8  1  0.14936960  0.55393274  0.51639774  1
  H+  H9  1  0.85709372  0.71970292  0.82240081  1
  H+  H10  1  0.72865271  0.37097554  0.50275858  1
  H+  H11  1  0.48450349  0.61043257  0.81709373  1
  H+  H12  1  0.72708271  0.38180687  0.32431747  1
  H+  H13  1  0.38664881  0.36188957  0.66058507  1
  H+  H14  1  0.64090033  0.76401894  1.00198472  1
  H+  H15  1  0.47120300  0.09574030  0.33572942  1
  H+  H16  1  0.33964973  0.69314122  0.67319168  1
  H+  H17  1  0.23273396  0.11993353  0.17392454  1
  H+  H18  1  0.38474090  0.47330356  1.00340841  1
  H+  H19  1  0.61513359  0.23054796  0.49948615  1
  H+  H20  1  0.66662559  0.81952602  0.22091068  1
  H+  H21  1  0.73872628  0.09935241  0.99432751  1
  H+  H22  1  0.89430669  0.37598894  0.83773594  1
  H+  H23  1  0.83134967  0.17152685  0.44392465  1
  H+  H24  1  0.37210773  0.59639780  0.65791345  1
  H+  H25  1  0.86030098  0.49722789  0.66539607  1
  H+  H26  1  0.38702042  0.47725286  0.16342493  1
  H+  H27  1  0.85614249  0.96281101  0.81862216  1
  H+  H28  1  0.15789764  0.27798659  0.17353325  1
  H+  H29  1  0.59625491  0.38153601  0.84137883  1
  H+  H30  1  0.37778626  0.63830589  0.33503039  1
  H+  H31  1  0.75852982  0.60853861  0.46078189  1
  H+  H32  1  0.86704109  0.96087595  0.33414687  1
  H+  H33  1  0.64675141  0.52931489  0.32877832  1
  H+  H34  1  0.48530974  0.86691297  0.18520679  1
  H+  H35  1  0.61042198  0.23207428  0.83775837  1
  H+  H36  1  0.91986876  0.83435596  0.98074002  1
  H+  H37  1  0.13474364  0.14165517  0.01654965  1
  H+  H38  1  0.01403465  0.64984294  0.01188536  1
  H+  H39  1  0.86729800  0.37011166  0.31025873  1
  H+  H40  1  0.86673283  0.87186331  0.33608467  1
  H+  H41  1  0.91686816  0.12633314  0.17302489  1
  H+  H42  1  0.12539045  0.87448595  0.51712557  1
  H+  H43  1  0.35896520  0.22498337  0.83063559  1
  H+  H44  1  0.63067106  1.01899968  0.52144421  1
  H+  H45  1  0.32332228  0.15913415  0.77570584  1
  H+  H46  1  0.47517899  0.13201654  0.16467273  1
  H+  H47  1  0.24910344  0.36643523  0.17300325  1
  H+  H48  1  0.60537356  0.65825395  0.75364887  1
  H+  H49  1  0.21571047  0.83789068  0.17483865  1
  H+  H50  1  1.01897060  0.13733716  0.66070385  1
  H+  H51  1  0.36152681  0.12714236  0.50583997  1
  H+  H52  1  0.60915643  0.72019094  0.49085413  1
  H+  H53  1  0.87219299  0.08920171  0.49762310  1
  H+  H54  1  0.36698661  0.38404948  0.48972641  1
  H+  H55  1  0.71988781  0.11247551  0.12310760  1
  H+  H56  1  0.53182670  0.39682322  0.33529637  1
  H+  H57  1  0.38508854  1.02087254  0.67014954  1
  H+  H58  1  0.92223829  0.59091432  0.89653214  1
  H+  H59  1  0.37077685  0.35654080  0.83930785  1
  H+  H60  1  0.87488745  0.24360911  0.32685732  1
  H+  H61  1  0.61600943  0.73058621  0.33829821  1
  H+  H62  1  0.32482184  0.15448296  0.61125560  1
  H+  H63  1  0.74479375  0.41405174  0.16000875  1
  H+  H64  1  0.21113159  0.86447074  0.67067254  1
  H+  H65  1  0.86429083  0.49229639  0.48649637  1
  H+  H66  1  0.40018970  0.61109018  0.83432819  1
  H+  H67  1  0.03767335  0.32648523  0.70396784  1
  H+  H68  1  0.70712225  0.37823197  0.83849443  1
  H+  H69  1  0.63567464  0.97370393  0.00573651  1
  H+  H70  1  0.07565949  0.40315521  0.24597651  1
  H+  H71  1  0.39658206  0.32358166  0.90038529  1
  H+  H72  1  0.42342709  0.83384143  0.27044593  1
  H+  H73  1  0.12794760  0.77034677  0.66972886  1
  H+  H74  1  0.38610626  0.10988019  0.84409057  1
  H+  H75  1  0.88274812  -0.00177658  0.16374977  1
  H+  H76  1  0.23513970  0.38062681  1.00178837  1
  H+  H77  1  0.13065826  0.14255049  0.16818456  1
  H+  H78  1  0.89282953  0.27746667  0.00785359  1
  H+  H79  1  0.60649186  0.48192508  0.84210893  1
  H+  H80  1  0.97562449  0.35076491  0.16271663  1
  H+  H81  1  0.76072524  0.88333499  0.67392019  1
  H+  H82  1  0.83374344  0.90251975  0.43001699  1
  H+  H83  1  0.93376416  0.08043672  0.26534392  1
  H+  H84  1  0.84595930  0.14937435  0.06652098  1
  H+  H85  1  0.40819554  0.87548574  1.02490032  1
  H+  H86  1  0.47628174  0.11219944  0.84533483  1
  H+  H87  1  0.12748917  0.64376311  0.83157588  1
  H+  H88  1  0.36952479  0.34781229  0.99432526  1
  H+  H89  1  0.67158795  0.56458683  0.90635901  1
  H+  H90  1  0.60494290  0.47517173  0.66452318  1
  H+  H91  1  1.03540259  0.40723915  0.50991829  1
  H+  H92  1  0.04235846  0.61836850  0.68734171  1
  H+  H93  1  0.43907665  0.30376600  0.15378675  1
  H+  H94  1  0.11352913  0.47487645  0.01800746  1
  H+  H95  1  0.33299145  0.87416533  0.67768233  1
  H+  H96  1  0.36212407  0.25390991  -0.00798330  1
  H+  H97  1  0.66252616  0.05442945  0.67824885  1
  H+  H98  1  0.13295874  0.78170661  0.51387210  1
  H+  H99  1  0.61918900  0.15317415  0.68355127  1
  H+  H100  1  0.70524091  0.60551400  0.23945828  1
  H+  H101  1  0.47776672  0.11465155  0.51525758  1
  H+  H102  1  0.60977092  0.38965043  0.66412301  1
  H+  H103  1  0.11862430  0.51904031  0.17962149  1
  H+  H104  1  0.13668480  0.35935685  0.65474815  1
  H+  H105  1  0.61053049  0.13939538  0.50664765  1
  H+  H106  1  0.14024715  0.58121481  0.23680128  1
  H+  H107  1  0.36806705  0.88095579  0.34291557  1
  H+  H108  1  0.18403923  0.32761578  0.26301086  1
  H+  H109  1  0.89529478  0.36551958  0.80465778  1
  H+  H110  1  0.23782289  0.63637800  0.50020915  1
  H+  H111  1  0.01716890  0.88715305  0.13397191  1
  H+  H112  1  0.77968179  0.40133180  0.00751277  1
  H+  H113  1  0.83976307  0.64763255  0.19109169  1
  H+  H114  1  0.10361046  0.98327077  0.05348710  1
  H+  H115  1  0.42050414  0.60217864  0.97657783  1
  H+  H116  1  0.88336452  0.21629118  0.83640951  1
  H+  H117  1  0.14200213  0.35197620  0.31568813  1
  H+  H118  1  0.58701993  0.36427234  0.18796653  1
  H+  H119  1  0.14192867  0.78880198  0.99646134  1
  H+  H120  1  0.02882564  0.42325251  0.80788068  1
  H+  H121  1  0.86908144  0.22566971  0.15699270  1
  H+  H122  1  0.72960225  0.84540822  0.32476578  1
  H+  H123  1  0.38679031  0.27001347  0.50916639  1
  H+  H124  1  0.47225899  0.10367726  0.99281141  1
  H+  H125  1  0.14161783  0.58815986  0.66698014  1
  H+  H126  1  0.00709241  0.12609600  0.17377713  1
  H+  H127  1  0.87622860  0.60882714  0.98942166  1
  H+  H128  1  0.62989304  0.38335084  0.33512324  1
  H+  H129  1  0.88573865  0.92106272  0.01895133  1
  H+  H130  1  0.09997899  0.97594751  0.67021993  1
  H+  H131  1  0.40182987  0.76972197  0.18225776  1
  H+  H132  1  0.90537143  0.76019288  0.31801567  1
  H+  H133  1  0.61596432  -0.01612843  0.16352751  1
  H+  H134  1  0.87992459  0.86682152  0.14731280  1
  H+  H135  1  0.14347424  0.36657454  0.50695681  1
  H+  H136  1  0.61895541  0.73005399  0.80283327  1
  H+  H137  1  0.95261212  0.62014499  0.17483873  1
  H+  H138  1  0.21182753  0.10453004  0.66291974  1
  H+  H139  1  0.60911874  0.18350550  -0.03282700  1
  H+  H140  1  0.89382591  0.85538263  0.82826245  1
  H+  H141  1  0.12524068  0.66211391  0.49758444  1
  H+  H142  1  0.41683656  0.33398257  0.56603208  1
  H+  H143  1  1.03488607  0.12921573  0.33832274  1
  H+  H144  1  0.64387747  0.85295032  0.31451020  1
  H+  H145  1  0.98436245  0.37847692  0.66032968  1
  H+  H146  1  0.90128657  0.10893516  0.32285441  1
  H+  H147  1  0.24186321  0.61840250  0.84337779  1
  H+  H148  1  0.41199753  0.38382642  0.30848336  1
  H+  H149  1  1.02096858  0.88467779  0.50480360  1
  H+  H150  1  0.63682624  0.50879631  1.02156046  1
  H+  H151  1  0.11320474  0.73943561  0.16954410  1
  H+  H152  1  0.89146992  0.85675962  0.50562864  1
  H+  H153  1  0.87005615  0.41345634  0.67073978  1
  H+  H154  1  0.88627222  0.52666967  -0.00464784  1
  H+  H155  1  0.76844376  0.67062644  -0.01404694  1
  H+  H156  1  0.28561804  0.38905260  0.33406671  1
  H+  H157  1  0.37370146  0.50208609  0.65834215  1
  H+  H158  1  0.35073350  0.42196062  0.06698425  1
  H+  H159  1  0.64011558  0.63808508  0.16567873  1
  H+  H160  1  0.26936268  0.38185792  0.66920628  1
  H+  H161  1  0.33566848  0.93141786  0.20137369  1
  H+  H162  1  0.79045838  0.16429576  0.67322964  1
  H+  H163  1  0.13073792  0.49490182  0.66504684  1
  H+  H164  1  0.50391648  0.38617635  0.84041916  1
  H+  H165  1  0.52644755  0.14397828  0.68397570  1
  H+  H166  1  0.12215886  0.38949265  0.01964948  1
  H+  H167  1  0.87432287  0.77779908  0.66707524  1
  H+  H168  1  0.11248584  -0.02319237  0.50251122  1
  H+  H169  1  0.86239631  0.96382187  0.48897288  1
  H+  H170  1  0.49262559  0.35625656  1.00640494  1
  H+  H171  1  1.03962459  0.87620581  0.81897347  1
  H+  H172  1  0.03187031  0.87583030  0.34714714  1
  H+  H173  1  1.02773872  0.30204673  0.87897848  1
  H+  H174  1  0.63009958  0.51702980  0.50306871  1
  H+  H175  1  0.87708613  0.86920947  0.66275578  1
  H+  H176  1  0.62952224  0.36943629  1.00029763  1
  H+  H177  1  0.32702423  0.74623464  0.05673809  1
  H+  H178  1  0.37952059  0.97154709  0.50046258  1
  H+  H179  1  0.35833735  0.96402997  0.34271633  1
  H+  H180  1  0.78149415  0.15025475  0.82761102  1
  H+  H181  1  0.99905180  0.88065470  0.66854215  1
  H+  H182  1  0.36875824  0.15337326  0.16405248  1
  H+  H183  1  0.90000862  0.30367078  0.51582217  1
  H+  H184  1  0.75908979  0.64541222  0.67301748  1
  H+  H185  1  0.65304321  0.29773875  1.00568226  1
  H+  H186  1  0.12301789  0.10749956  0.66228937  1
  H+  H187  1  0.09546676  0.87863353  0.67338206  1
  H+  H188  1  0.84774982  0.61138505  0.46719529  1
  H+  H189  1  1.01717644  0.89812311  0.97026371  1
  H+  H190  1  0.37284120  0.72384749  0.81587404  1
  H+  H191  1  0.41440842  0.60954223  0.17733383  1
  H+  H192  1  0.65568194  0.00995352  0.34643400  1
  H+  H193  1  0.12003611  0.28636953  0.82213721  1
  H+  H194  1  0.50313638  0.60531625  0.17908906  1
  H+  H195  1  0.64234255  0.61449544  0.32678005  1
  H+  H196  1  0.86935795  0.40713154  0.48918681  1
  H+  H197  1  0.15374019  0.28920772  1.00772525  1
  H+  H198  1  0.52779421  0.88943687  0.82570944  1
  H+  H199  1  0.80649823  0.13357851  0.18764102  1
  H+  H200  1  0.83886496  0.49426259  0.82127156  1
  H+  H201  1  0.34899153  0.12257754  1.00964561  1
  H+  H202  1  0.62184111  0.11942916  0.00671252  1
  H+  H203  1  0.59858441  0.10263552  0.36353128  1
  H+  H204  1  0.14107353  1.00845211  0.34607965  1
  H+  H205  1  0.26018057  0.59792456  0.67588381  1
  H+  H206  1  0.39427809  0.04057253  0.16265255  1
  H+  H207  1  0.60051917  0.82148615  0.65106241  1
  H+  H208  1  0.14449646  0.10303672  0.34302797  1
  H+  H209  1  0.72011109  0.59848801  0.84251203  1
  H+  H210  1  0.11187290  0.22475379  0.66040155  1
  H+  H211  1  0.61886119  0.77037802  0.70159479  1
  H+  H212  1  0.63874595  0.11440921  0.14415525  1
  H+  H213  1  0.86130732  0.77046691  0.14912323  1
  H+  H214  1  0.13204474  0.38839103  0.16582760  1
  H+  H215  1  0.73370436  0.84705155  0.99984901  1
  H+  H216  1  0.35705378  0.66164866  0.98403099  1
  H+  H217  1  0.52021559  0.38137851  0.49359758  1
  H+  H218  1  0.38601764  0.51564967  0.50322466  1
  H+  H219  1  0.37106267  0.97735522  0.01637629  1
  H+  H220  1  0.18035799  0.83463608  0.90064600  1
  H+  H221  1  0.34876471  0.91077148  0.44216239  1
  H+  H222  1  0.87668787  1.02670426  0.65764697  1
  H+  H223  1  0.39826907  0.52372125  0.32655183  1
  H+  H224  1  0.86895811  0.09847881  0.82540537  1
  H+  H225  1  0.98406203  0.61896541  0.83850546  1
  H+  H226  1  0.12444349  0.21835529  0.33775940  1
  H+  H227  1  1.02092517  0.13319674  0.49180356  1
  H+  H228  1  0.93760785  0.83146090  0.88308605  1
  H+  H229  1  0.40630868  0.77906342  0.33094438  1
  H+  H230  1  0.54256886  0.88349900  1.02444900  1
  H+  H231  1  0.24846415  0.10571065  0.35198772  1
  H+  H232  1  0.54801773  0.62958568  0.00394261  1
  H+  H233  1  0.85656881  0.84130008  0.06278958  1
  H+  H234  1  0.24201222  0.65907600  1.04645418  1
  H+  H235  1  0.39015120  0.11171777  0.66440017  1
  H+  H236  1  0.13416164  0.11239889  0.50923529  1
  H+  H237  1  0.63098737  0.88523032  0.49598610  1
  H+  H238  1  0.35849931  0.11732937  0.35037024  1
  H+  H239  1  0.63399990  0.87539587  0.00948824  1
  H+  H240  1  0.64264141  0.03236189  0.84302875  1
  H+  H241  1  0.63195540  0.60645508  0.49799862  1
  H+  H242  1  1.00837454  0.14122485  0.81088273  1
  H+  H243  1  0.35698633  0.46981988  0.82167389  1
  H+  H244  1  0.98890661  0.06045895  0.95467116  1
  H+  H245  1  0.33549501  0.65005442  0.76531880  1
  H+  H246  1  0.13970244  0.84485927  0.32617300  1
  H+  H247  1  0.36392563  -0.02520940  0.82858400  1
  H+  H248  1  0.36263131  0.22989924  0.65704678  1
  H+  H249  1  0.37993226  0.72786783  0.49296926  1
  H+  H250  1  0.61302981  0.29578907  0.17298938  1
  H+  H251  1  0.36115743  0.86849467  0.17178700  1
  H+  H252  1  0.27416299  0.88307415  0.83050653  1
  H+  H253  1  0.30082120  0.62896594  0.19590701  1
  H+  H254  1  0.00545643  0.63475547  0.34641924  1
  H+  H255  1  0.51729672  0.63118612  0.49147606  1
  H+  H256  1  0.22811890  0.84624916  0.32278078  1
  H+  H257  1  0.15419765  0.83522634  0.58038364  1
  H+  H258  1  0.49885131  0.85043387  0.58428605  1
  H+  H259  1  0.88348426  0.13859711  1.00409558  1
  H+  H260  1  0.73017251  0.10690408  0.34520022  1
  H+  H261  1  0.36396666  0.64664068  0.01473980  1
  H+  H262  1  0.05630123  0.16119932  0.02162043  1
  H+  H263  1  0.27854148  0.38504344  0.48688090  1
  H+  H264  1  0.97981615  0.63047216  0.50559016  1
  H+  H265  1  0.17163497  0.57088950  0.36093131  1
  H+  H266  1  0.13786129  0.27417972  0.50214967  1
  H+  H267  1  0.51356500  0.39593448  0.12555913  1
  H+  H268  1  0.14411577  1.03152417  0.16878992  1
  H+  H269  1  0.23765338  0.86537979  0.99641731  1
  H+  H270  1  0.27165872  0.12892326  0.50318938  1
  H+  H271  1  0.12335631  -0.03596157  0.83509939  1
  H+  H272  1  0.86572266  0.39505575  1.01313214  1
  H+  H273  1  0.73407113  0.85155788  0.50415946  1
  H+  H274  1  0.49264446  0.86001211  0.49818977  1
  H+  H275  1  0.38668018  0.86754861  0.82489978  1
  H+  H276  1  0.86719442  0.63107126  0.65513415  1
  H+  H277  1  0.26073106  0.38748847  0.82202463  1
  H+  H278  1  0.13180193  0.38147184  0.81846919  1
  H+  H279  1  0.38573141  0.60604488  0.50599183  1
  H+  H280  1  0.10293798  0.88572208  0.14656822  1
  H+  H281  1  0.93760089  0.83268947  0.26870664  1
  H+  H282  1  0.22121164  0.09774026  0.85588797  1
  H+  H283  1  0.14725381  0.86150222  0.83963809  1
  H+  H284  1  0.71657169  0.10502841  0.51631006  1
  H+  H285  1  0.85228793  0.49238675  0.33523560  1
  H+  H286  1  0.09958308  0.64603665  1.00995828  1
  H+  H287  1  0.34465388  0.78903833  0.60710904  1
  H+  H288  1  0.39221175  0.39279838  0.15502824  1
  H+  H289  1  0.17332125  0.33458314  0.59501738  1
  H+  H290  1  0.08480824  0.68706769  0.44188931  1
  H+  H291  1  0.32657407  0.41297914  0.73095903  1
  H+  H292  1  0.82992938  0.43025706  0.39281934  1
  H+  H293  1  0.72840119  0.37436270  0.65729395  1
  H+  H294  1  0.15216052  0.58188813  0.93079599  1
  H+  H295  1  0.01858817  0.57318937  0.38811445  1
  H+  H296  1  0.71291823  0.13688174  0.25114888  1
  H+  H297  1  0.90795095  0.60045281  0.55738270  1
  H+  H298  1  0.90814400  0.07426535  0.55999558  1
  H+  H299  1  0.81408098  0.43403556  0.10788576  1
  H+  H300  1  0.33148449  0.14883403  0.41287440  1
  H+  H301  1  0.15973379  0.06423319  0.91345421  1
  H+  H302  1  0.08662711  0.90294418  0.40871401  1
  H+  H303  1  0.66929945  0.81556739  0.90079722  1
  H+  H304  1  1.02181536  0.15032097  0.92720546  1
  H+  H305  1  0.15867701  0.81287697  0.23780977  1
  H+  H306  1  0.09094654  0.62840962  0.16294545  1
  H+  H307  1  0.86051537  0.53230901  0.17698310  1
  H+  H308  1  0.40716011  0.86516708  0.50861720  1
  H+  H309  1  0.08206740  0.42683117  0.74752535  1
  H+  H310  1  0.43553925  0.58251759  0.26533924  1
  H+  H311  1  0.64034084  0.12047698  0.84767308  1
  H+  H312  1  0.42030831  0.07791353  0.57505481  1
  H+  H313  1  0.92513334  0.36299039  0.57442213  1
  H+  H314  1  0.67528104  0.81886348  0.56407624  1
  H+  H315  1  0.67672190  0.07389273  0.93550530  1
  H+  H316  1  0.51574655  0.63183312  0.33662719  1
  H+  H317  1  0.66903414  0.13011426  0.24356607  1
  H+  H318  1  0.12673093  0.73277137  0.83101805  1
  H+  H319  1  0.53920244  0.88930533  0.31789215  1
  H+  H320  1  0.55679402  0.92240789  0.63093393  1
  H+  H321  1  0.83188199  0.94219169  0.10595987  1
  H+  H322  1  0.40933488  0.07273970  0.93635110  1
  H+  H323  1  0.09661823  0.43957618  0.45339368  1
  H+  H324  1  0.65531113  0.34917622  0.26753034  1
  H+  H325  1  0.58608040  0.17447751  0.77815702  1
  H+  H326  1  0.89076628  0.29924683  0.65902000  1
  H+  H327  1  0.13341125  0.62320381  0.33385181  1
  H+  H328  1  0.66046026  0.34456457  0.90410683  1
  H+  H329  1  0.96185700  0.65102180  0.64674604  1
  H+  H330  1  0.95575479  0.30437121  0.92018525  1
  H+  H331  1  0.90405004  0.60064063  0.26659972  1
  H+  H332  1  0.58262977  0.41507315  0.40273322  1
  H+  H333  1  0.93509629  0.22992230  0.37007354  1
  H+  H334  1  0.64445752  0.65265618  0.02138474  1
  H+  H335  1  0.82414979  0.91370988  0.73046668  1
  H+  H336  1  0.29467706  0.64974082  0.33461805  1
  H+  H337  1  0.07490700  0.17494192  0.75718923  1
  H+  H338  1  0.98187199  0.36478321  1.01203970  1
  H+  H339  1  0.44957264  0.57225547  0.91931866  1
  H+  H340  1  0.66151931  0.58720483  0.59083453  1
  H+  H341  1  0.64047033  0.28377576  0.66204216  1
  H+  H342  1  0.10081309  0.66910148  0.74276102  1
  H+  H343  1  0.34860327  0.66935713  0.43323898  1
  H+  H344  1  0.41803920  0.80644372  0.98550891  1
  H+  H345  1  0.80383291  0.43879329  0.76089509  1
  H+  H346  1  0.88717136  0.12098532  0.65549854  1
  H+  H347  1  0.90982434  0.07299388  0.88049821  1
  H+  H348  1  0.57647235  0.66586571  0.40330773  1
  H+  H349  1  0.95370476  0.36837042  0.29637687  1
  H+  H350  1  0.85825310  0.63241993  0.82172707  1
  H+  H351  1  0.41076502  0.82843408  0.88006835  1
  H+  H352  1  0.67139947  0.09278241  0.61111197  1
  H+  H353  1  0.60085968  0.91974030  0.77635021  1
  H+  H354  1  0.75352617  0.08347937  0.43247634  1
  H+  H355  1  0.91760743  0.83442850  0.56897749  1
  H+  H356  1  0.40628754  0.56676323  0.59401952  1
  H+  H357  1  0.10776467  0.17885149  0.10781005  1
  H+  H358  1  0.41694668  0.08023252  0.27434828  1
  H+  H359  1  0.57124510  0.18920618  0.07950880  1
  H+  H360  1  0.85035877  0.18872586  0.73095408  1
  H+  H361  1  0.09373070  0.41795968  0.11147324  1
  H+  H362  1  0.10003298  0.46600386  0.30054896  1
  H+  H363  1  0.89867799  0.33168374  0.20750674  1
  H+  H364  1  0.31951917  0.91537664  0.73775601  1
  H+  H365  1  0.46192230  0.37373432  0.25154325  1
  H+  H366  1  0.08519735  0.16317225  0.43491206  1
  H+  H367  1  0.81762461  0.66592340  0.73423305  1
  H+  H368  1  0.25650330  0.11678444  0.01559018  1
  H+  H369  1  0.31909440  0.66502240  0.12989683  1
  H+  H370  1  0.62426701  0.89946985  0.18048816  1
  H+  H371  1  0.67165104  0.33985452  0.56397979  1
  H+  H372  1  0.33904151  0.92179526  0.07847462  1
  H+  H373  1  0.52381797  0.23967399  0.09360546  1
  H+  H374  1  0.73482576  0.88118357  0.17328639  1
  H+  H375  1  0.61162583  0.92720734  0.43883515  1
  H+  H376  1  0.07007818  0.66914138  0.10118874  1
  H+  H377  1  0.15694679  0.07951512  0.57061868  1
  H+  H378  1  0.14905729  0.53663872  0.83250433  1
  H+  H379  1  0.59572382  0.65701698  0.10973566  1
  H+  H380  1  0.34514245  0.41796879  0.39298650  1
  H+  H381  1  0.62950717  0.67772604  0.64079265  1
  H+  H382  1  0.33741713  0.17534875  0.10242295  1
  H+  H383  1  0.56960411  0.14859305  0.41001189  1
  O2-  O384  1  0.10245703  0.17704182  0.15372543  1
  O2-  O385  1  0.08290067  0.16527757  0.48026660  1
  O2-  O386  1  0.06883266  0.18253506  0.80107581  1
  O2-  O387  1  0.09434026  0.41388562  0.15752883  1
  O2-  O388  1  0.09723302  0.43349337  0.49737442  1
  O2-  O389  1  0.08762037  0.44710529  0.79320470  1
  O2-  O390  1  0.06839305  0.66708394  0.14789656  1
  O2-  O391  1  0.09117920  0.69203205  0.48672372  1
  O2-  O392  1  0.09535178  0.67142266  0.81509583  1
  O2-  O393  1  0.08078844  0.92265851  0.13264831  1
  O2-  O394  1  0.08455018  0.91451822  0.49059341  1
  O2-  O395  1  0.10256683  0.90782736  0.81340623  1
  O2-  O396  1  0.34844799  0.19065111  0.14656248  1
  O2-  O397  1  0.33297274  0.15929963  0.48988142  1
  O2-  O398  1  0.33320418  0.16276568  0.81940649  1
  O2-  O399  1  0.35527704  0.41767694  0.14593880  1
  O2-  O400  1  0.33958987  0.41641113  0.47266781  1
  O2-  O401  1  0.32154020  0.40929507  0.80779831  1
  O2-  O402  1  0.34818871  0.65933839  0.16732441  1
  O2-  O403  1  0.34544162  0.66709439  0.47840292  1
  O2-  O404  1  0.34360496  0.66073082  0.81020705  1
  O2-  O405  1  0.32563668  0.89765381  0.16432101  1
  O2-  O406  1  0.35867958  0.91185908  0.48652184  1
  O2-  O407  1  0.33482932  0.91507498  0.81173849  1
  O2-  O408  1  0.54979297  0.20940946  0.11353862  1
  O2-  O409  1  0.58035890  0.16790289  0.48930339  1
  O2-  O410  1  0.58519066  0.17112984  0.82371659  1
  O2-  O411  1  0.57165057  0.44745405  0.06234328  1
  O2-  O412  1  0.58017390  0.41336677  0.47700025  1
  O2-  O413  1  0.56746015  0.41618133  0.82813083  1
  O2-  O414  1  0.59420151  0.65073927  0.15436648  1
  O2-  O415  1  0.57590955  0.66174248  0.47223887  1
  O2-  O416  1  0.58142617  0.69275755  0.76957329  1
  O2-  O417  1  0.59052523  0.93055495  0.18834787  1
  O2-  O418  1  0.60272538  0.91869265  0.48261029  1
  O2-  O419  1  0.59191461  0.91904518  0.82012948  1
  O2-  O420  1  0.83809771  0.15903497  0.15006604  1
  O2-  O421  1  0.79604879  0.11703765  0.46517829  1
  O2-  O422  1  0.83897428  0.17142335  0.80905052  1
  O2-  O423  1  0.80667432  0.43935362  0.15185775  1
  O2-  O424  1  0.83566944  0.43163569  0.47118309  1
  O2-  O425  1  0.78779624  0.44511498  0.80275973  1
  O2-  O426  1  0.81102715  0.68283668  0.19582356  1
  O2-  O427  1  0.80590530  0.61011859  0.43735263  1
  O2-  O428  1  0.82240604  0.65773735  0.80887910  1
  O2-  O429  1  0.84050583  0.93806129  0.14937264  1
  O2-  O430  1  0.83152249  0.90246361  0.47538514  1
  O2-  O431  1  0.82982247  0.90167820  0.80424095  1
  O2-  O432  1  0.17242760  0.08878699  0.18793930  1
  O2-  O433  1  0.16272773  0.08068759  0.52540420  1
  O2-  O434  1  0.16143705  0.05957352  0.86841992  1
  O2-  O435  1  0.18884085  0.33956299  0.18849846  1
  O2-  O436  1  0.17395410  0.33465941  0.51659507  1
  O2-  O437  1  0.15139980  0.34579538  0.83969498  1
  O2-  O438  1  0.13698875  0.57898252  0.19236515  1
  O2-  O439  1  0.17799937  0.61684799  0.51326060  1
  O2-  O440  1  0.18062097  0.59127088  0.85659544  1
  O2-  O441  1  0.15494195  0.81029988  0.18979488  1
  O2-  O442  1  0.15753974  0.84133373  0.53440813  1
  O2-  O443  1  0.18002623  0.83124326  0.85491031  1
  O2-  O444  1  0.42231172  0.09223373  0.18771847  1
  O2-  O445  1  0.41686752  0.07943099  0.52988031  1
  O2-  O446  1  0.41509202  0.07812465  0.85894506  1
  O2-  O447  1  0.48242737  0.36406155  0.16410953  1
  O2-  O448  1  0.41662502  0.33201326  0.52034545  1
  O2-  O449  1  0.40406191  0.32924862  0.85477797  1
  O2-  O450  1  0.44028984  0.57677294  0.19453718  1
  O2-  O451  1  0.41534775  0.57498396  0.52195738  1
  O2-  O452  1  0.43209118  0.57967145  0.84230353  1
  O2-  O453  1  0.42150966  0.83069929  0.19309496  1
  O2-  O454  1  0.43743273  0.83141106  0.52095630  1
  O2-  O455  1  0.41963717  0.83633778  0.83633551  1
  O2-  O456  1  0.65664060  0.08041517  0.12022281  1
  O2-  O457  1  0.65957327  0.07884912  0.53702287  1
  O2-  O458  1  0.67279048  0.09098008  0.86066565  1
  O2-  O459  1  0.63291615  0.34998050  0.19531466  1
  O2-  O460  1  0.66872078  0.33745521  0.51833532  1
  O2-  O461  1  0.64973639  0.33817241  0.85952517  1
  O2-  O462  1  0.71973365  0.61535177  0.19451300  1
  O2-  O463  1  0.66270790  0.57885824  0.51584061  1
  O2-  O464  1  0.66208393  0.56722561  0.86219453  1
  O2-  O465  1  0.67225610  0.84688587  0.18123349  1
  O2-  O466  1  0.67257935  0.82307604  0.51982030  1
  O2-  O467  1  0.66704286  0.81905189  0.85592988  1
  O2-  O468  1  0.94438187  0.09442622  0.18879092  1
  O2-  O469  1  0.91043949  0.06949839  0.51472238  1
  O2-  O470  1  0.89792146  0.06496150  0.83651026  1
  O2-  O471  1  0.91225368  0.32050367  0.16606050  1
  O2-  O472  1  0.92934793  0.36394614  0.52763269  1
  O2-  O473  1  0.96556285  0.27418231  0.88626348  1
  O2-  O474  1  0.89592512  0.59322086  0.19454453  1
  O2-  O475  1  0.91702981  0.59542044  0.51333005  1
  O2-  O476  1  0.92293332  0.59229099  0.85148827  1
  O2-  O477  1  0.89711827  0.82727928  0.12854398  1
  O2-  O478  1  0.92712406  0.83506441  0.52464970  1
  O2-  O479  1  0.92291887  0.82244522  0.83864543  1
  O2-  O480  1  0.17630522  0.07128708  0.33477293  1
  O2-  O481  1  0.15060302  0.07177346  0.65029647  1
  O2-  O482  1  0.15386080  0.07781154  0.99263310  1
  O2-  O483  1  0.17741836  0.32519114  0.30885218  1
  O2-  O484  1  0.17144193  0.33216071  0.64046173  1
  O2-  O485  1  0.17244520  0.34856647  0.99378518  1
  O2-  O486  1  0.17053977  0.59811154  0.32267770  1
  O2-  O487  1  0.16796500  0.55508437  0.65226784  1
  O2-  O488  1  0.12072340  0.56941852  0.97091517  1
  O2-  O489  1  0.16865379  0.81727765  0.30546798  1
  O2-  O490  1  0.14997681  0.83042271  0.65477866  1
  O2-  O491  1  0.18173661  0.84334644  0.97621568  1
  O2-  O492  1  0.41088419  0.07155194  0.31872255  1
  O2-  O493  1  0.42233809  0.08124411  0.65581121  1
  O2-  O494  1  0.41082226  0.07311505  0.98214758  1
  O2-  O495  1  0.45091765  0.36278206  0.29530880  1
  O2-  O496  1  0.41545403  0.33140009  0.64378694  1
  O2-  O497  1  0.39375804  0.31345212  0.97509380  1
  O2-  O498  1  0.43112846  0.58561450  0.31188615  1
  O2-  O499  1  0.40289801  0.56480521  0.64067072  1
  O2-  O500  1  0.45111656  0.57203441  0.96490743  1
  O2-  O501  1  0.43205358  0.83916733  0.31564840  1
  O2-  O502  1  0.35812985  0.79466651  0.65054919  1
  O2-  O503  1  0.43631226  0.83832232  1.02358157  1
  O2-  O504  1  0.68529972  0.06426966  0.37154294  1
  O2-  O505  1  0.68086603  0.10757989  0.65590201  1
  O2-  O506  1  0.67731186  0.06676973  0.98106160  1
  O2-  O507  1  0.66371461  0.35098331  0.31320359  1
  O2-  O508  1  0.66856748  0.34038794  0.64108194  1
  O2-  O509  1  0.67197331  0.35202534  0.98464725  1
  O2-  O510  1  0.67412333  0.58759526  0.31111278  1
  O2-  O511  1  0.66304647  0.58976331  0.63731027  1
  O2-  O512  1  0.68508411  0.54903855  0.98825386  1
  O2-  O513  1  0.66784655  0.81311138  0.31140871  1
  O2-  O514  1  0.64185178  0.80305779  0.66314213  1
  O2-  O515  1  0.67372347  0.82643703  0.98649758  1
  O2-  O516  1  0.92772479  0.07447843  0.31076420  1
  O2-  O517  1  0.91011989  0.08481826  0.63886835  1
  O2-  O518  1  0.97411589  0.10575796  0.95085011  1
  O2-  O519  1  0.89046989  0.33546607  0.29124451  1
  O2-  O520  1  0.92292884  0.36030144  0.64527316  1
  O2-  O521  1  0.92356798  0.33715878  0.99284295  1
  O2-  O522  1  0.90759346  0.60365724  0.31331029  1
  O2-  O523  1  0.90320570  0.60774125  0.63638335  1
  O2-  O524  1  0.91514352  0.58772727  0.97897046  1
  O2-  O525  1  0.92968895  0.82383082  0.31252384  1
  O2-  O526  1  0.90904632  0.83840686  0.65119492  1
  O2-  O527  1  0.96895672  0.84242708  0.95636760  1
  O2-  O528  1  0.11596456  0.18518894  0.03469286  1
  O2-  O529  1  0.09406281  0.15950837  0.35595267  1
  O2-  O530  1  0.07938879  0.16407586  0.67562059  1
  O2-  O531  1  0.08815500  0.41754468  0.03680682  1
  O2-  O532  1  0.06841842  0.40466738  0.29024932  1
  O2-  O533  1  0.06818180  0.38452411  0.68715650  1
  O2-  O534  1  0.07352934  0.67746196  0.02942544  1
  O2-  O535  1  0.05092445  0.63028141  0.36995022  1
  O2-  O536  1  0.09967857  0.66585613  0.69616223  1
  O2-  O537  1  0.08054361  0.99652733  0.01693881  1
  O2-  O538  1  0.09158718  0.90537900  0.36363801  1
  O2-  O539  1  0.06450030  0.91183624  0.68151233  1
  O2-  O540  1  0.31945974  0.15241991  0.02587089  1
  O2-  O541  1  0.32490516  0.14375948  0.36744798  1
  O2-  O542  1  0.32837833  0.16422250  0.65514010  1
  O2-  O543  1  0.34364358  0.41707249  0.02184213  1
  O2-  O544  1  0.34662719  0.42288922  0.34763964  1
  O2-  O545  1  0.33037945  0.41455384  0.68510821  1
  O2-  O546  1  0.27644551  0.70045238  0.07774371  1
  O2-  O547  1  0.35250432  0.67259522  0.35201110  1
  O2-  O548  1  0.32418256  0.63479702  0.68814883  1
  O2-  O549  1  0.34833072  0.91849504  0.03466751  1
  O2-  O550  1  0.33032946  0.90329548  0.35724389  1
  O2-  O551  1  0.31342546  0.91398294  0.69198231  1
  O2-  O552  1  0.59284410  0.15477811  0.00665645  1
  O2-  O553  1  0.56610336  0.13304466  0.36635894  1
  O2-  O554  1  0.58649493  0.18007115  0.69930701  1
  O2-  O555  1  0.54578481  0.36727591  0.02918535  1
  O2-  O556  1  0.59033961  0.42075463  0.35698147  1
  O2-  O557  1  0.57460542  0.41491172  0.67808156  1
  O2-  O558  1  0.60034036  0.67054391  0.02704123  1
  O2-  O559  1  0.57871878  0.66689262  0.35605633  1
  O2-  O560  1  0.60178690  0.61775048  0.65489645  1
  O2-  O561  1  0.60776902  0.91323821  0.02541690  1
  O2-  O562  1  0.60298067  0.91974653  0.30945735  1
  O2-  O563  1  0.52680597  0.86028724  0.62554100  1
  O2-  O564  1  0.84416713  0.15555003  0.02200432  1
  O2-  O565  1  0.87893063  0.19791862  0.35070987  1
  O2-  O566  1  0.85175311  0.19191731  0.68551152  1
  O2-  O567  1  0.83899306  0.43006279  0.02450936  1
  O2-  O568  1  0.82612680  0.43090544  0.34723514  1
  O2-  O569  1  0.83306381  0.43823479  0.68196460  1
  O2-  O570  1  0.72873568  0.63445901  0.01787515  1
  O2-  O571  1  0.86432359  0.65323116  0.32668775  1
  O2-  O572  1  0.81946220  0.67528251  0.68868614  1
  O2-  O573  1  0.83879217  0.86276623  0.02610294  1
  O2-  O574  1  0.83439364  0.90072588  0.34935513  1
  O2-  O575  1  0.82229532  0.91819555  0.68460856  1
