# generated using pymatgen
data_H2O
_symmetry_space_group_name_H-M   'P 1'
_cell_length_a   17.99531928
_cell_length_b   17.99461291
_cell_length_c   22.02400583
_cell_angle_alpha   89.97597872
_cell_angle_beta   90.02421389
_cell_angle_gamma   119.99573101
_symmetry_Int_Tables_number   1
_chemical_formula_structural   H2O
_chemical_formula_sum   'H384 O192'
_cell_volume   6176.57386412
_cell_formula_units_Z   192
loop_
 _symmetry_equiv_pos_site_id
 _symmetry_equiv_pos_as_xyz
  1  'x, y, z'
loop_
 _atom_type_symbol
 _atom_type_oxidation_number
  H+  1.0
  O2-  -2.0
loop_
 _atom_site_type_symbol
 _atom_site_label
 _atom_site_symmetry_multiplicity
 _atom_site_fract_x
 _atom_site_fract_y
 _atom_site_fract_z
 _atom_site_occupancy
  H+  H0  1  0.13141206  0.33656749  0.18081755  1
  H+  H1  1  0.57061296  0.85573361  0.36791491  1
  H+  H2  1  0.87480923  0.49893141  0.82425646  1
  H+  H3  1  0.91535345  0.08313417  0.57369095  1
  H+  H4  1  0.27143087  0.15537626  -0.01337676  1
  H+  H5  1  0.46208980  0.62010906  0.65494593  1
  H+  H6  1  0.11048297  0.21717321  0.50083873  1
  H+  H7  1  0.52197946  0.14840188  0.68639426  1
  H+  H8  1  0.36978201  0.76535187  0.65824956  1
  H+  H9  1  0.10586162  0.74097448  0.84401999  1
  H+  H10  1  0.89028201  0.53116371  0.31163063  1
  H+  H11  1  0.92448210  0.07946346  0.93885663  1
  H+  H12  1  0.87619514  0.22034484  0.68025872  1
  H+  H13  1  0.61240899  -0.01593201  0.84440094  1
  H+  H14  1  0.53493484  0.57846631  0.71186596  1
  H+  H15  1  0.35537400  0.23002293  0.83733177  1
  H+  H16  1  0.10594444  0.18129291  0.02503234  1
  H+  H17  1  0.53497750  0.15417913  0.49186252  1
  H+  H18  1  0.80206984  0.89133153  0.49423787  1
  H+  H19  1  0.10570186  0.46888593  0.70199840  1
  H+  H20  1  0.50564419  0.90202781  0.51501028  1
  H+  H21  1  0.04351315  0.13079189  0.68110781  1
  H+  H22  1  0.63786197  0.11504427  0.84384674  1
  H+  H23  1  0.13408320  0.87508331  0.32002510  1
  H+  H24  1  0.62421579  0.11122703  0.34975931  1
  H+  H25  1  0.10770783  0.74314049  0.32609401  1
  H+  H26  1  0.35189482  0.46750525  0.48540832  1
  H+  H27  1  0.36376560  0.88691180  0.67708415  1
  H+  H28  1  0.89255508  0.10893766  0.99767480  1
  H+  H29  1  0.09944664  0.20243141  0.34475296  1
  H+  H30  1  0.98107679  0.61053778  0.66668025  1
  H+  H31  1  0.92552546  0.52963648  0.76518399  1
  H+  H32  1  0.63524782  0.36370349  0.65858703  1
  H+  H33  1  1.01516134  0.38147927  0.69447532  1
  H+  H34  1  0.27632281  0.66795700  0.34196340  1
  H+  H35  1  0.61740332  0.47231290  0.83299263  1
  H+  H36  1  0.86525664  0.73513938  0.00771424  1
  H+  H37  1  0.88598508  0.62051967  0.85916007  1
  H+  H38  1  0.11595685  0.72494602  0.68844131  1
  H+  H39  1  0.37044677  0.90705217  0.50125607  1
  H+  H40  1  0.87822027  0.83179812  0.51622838  1
  H+  H41  1  0.51091065  0.65645415  0.14490313  1
  H+  H42  1  0.13199996  0.76169577  0.17234244  1
  H+  H43  1  0.51862817  0.17234842  -0.02072637  1
  H+  H44  1  0.61677484  0.39769431  1.01054825  1
  H+  H45  1  0.97553782  0.85357965  0.17037915  1
  H+  H46  1  0.60841504  0.89311419  0.84039232  1
  H+  H47  1  0.22450489  0.62311509  -0.00401057  1
  H+  H48  1  0.96314906  0.15354370  0.32894544  1
  H+  H49  1  0.38521553  0.28450844  0.16100395  1
  H+  H50  1  0.35015916  0.14257707  -0.00269410  1
  H+  H51  1  0.62410562  0.51042971  0.31459823  1
  H+  H52  1  0.82315951  0.18151056  0.41841839  1
  H+  H53  1  0.12200942  0.31252991  0.00788708  1
  H+  H54  1  0.40539697  0.83558089  0.91061438  1
  H+  H55  1  0.60602022  0.38956584  0.15853686  1
  H+  H56  1  0.39606439  0.04290442  0.50481871  1
  H+  H57  1  1.02295072  0.36979554  1.01791636  1
  H+  H58  1  0.20988894  0.61958733  0.83469046  1
  H+  H59  1  1.02836075  0.87126530  0.67748183  1
  H+  H60  1  0.36454518  0.39576896  0.00652296  1
  H+  H61  1  0.49657370  0.78853009  0.06183478  1
  H+  H62  1  0.45095190  0.85142110  1.00602046  1
  H+  H63  1  0.15492934  0.25421469  0.81873993  1
  H+  H64  1  0.74815185  0.64142318  0.65476670  1
  H+  H65  1  0.57269991  0.83698128  0.01628786  1
  H+  H66  1  0.62213604  0.52634080  0.16516806  1
  H+  H67  1  0.64613159  0.37313886  0.31103728  1
  H+  H68  1  0.22103390  0.13278728  0.32303783  1
  H+  H69  1  0.37722670  0.86797496  0.17257897  1
  H+  H70  1  0.23032994  0.35646503  0.66019751  1
  H+  H71  1  0.89452668  0.73660065  0.34554674  1
  H+  H72  1  0.32455817  0.41103056  0.42267047  1
  H+  H73  1  0.77100085  0.38651367  0.66037513  1
  H+  H74  1  0.69914547  0.81409915  0.32926508  1
  H+  H75  1  0.14628442  0.25315832  0.17825003  1
  H+  H76  1  0.74528396  0.29981189  0.08076749  1
  H+  H77  1  0.66081925  0.30145064  0.00971067  1
  H+  H78  1  0.72812216  0.12619714  0.51921892  1
  H+  H79  1  0.62213066  0.98872921  0.33512883  1
  H+  H80  1  0.83574501  0.82681467  0.34374864  1
  H+  H81  1  0.89498143  1.03040530  0.51169532  1
  H+  H82  1  0.85374331  0.17106659  0.77536616  1
  H+  H83  1  0.21854124  0.33641668  0.00290087  1
  H+  H84  1  0.11357593  0.63524577  0.69659473  1
  H+  H85  1  1.02149093  0.37888084  0.16382308  1
  H+  H86  1  0.22039992  0.86950861  0.32721367  1
  H+  H87  1  0.13319435  0.04413561  0.97194768  1
  H+  H88  1  0.64312944  0.61174895  0.84888543  1
  H+  H89  1  0.77270035  0.63213391  0.83205808  1
  H+  H90  1  0.13996746  0.11286308  0.50656080  1
  H+  H91  1  0.28666481  0.00850084  0.97266563  1
  H+  H92  1  0.09761138  -0.01894764  0.82173726  1
  H+  H93  1  0.24209654  0.86875868  0.67758450  1
  H+  H94  1  0.61906220  0.63813188  0.67378355  1
  H+  H95  1  0.68061688  0.18603784  0.02516901  1
  H+  H96  1  0.00887903  0.10775264  0.02587031  1
  H+  H97  1  0.60135641  0.46528473  0.67487685  1
  H+  H98  1  0.11991556  0.38388477  0.49687791  1
  H+  H99  1  0.34503890  0.13611924  0.83929996  1
  H+  H100  1  0.01515804  0.39560632  0.34619957  1
  H+  H101  1  0.70833890  0.35606147  0.15384329  1
  H+  H102  1  1.00124270  0.38630309  0.84602343  1
  H+  H103  1  0.59409080  0.90990758  0.53351828  1
  H+  H104  1  0.78899213  0.13799046  0.83063435  1
  H+  H105  1  0.71078966  0.10887952  0.18536403  1
  H+  H106  1  0.22778115  0.35005562  0.82060838  1
  H+  H107  1  0.22968769  0.61534194  0.66661736  1
  H+  H108  1  0.61554509  0.03247494  0.27388254  1
  H+  H109  1  0.64316574  0.61387302  -0.00570056  1
  H+  H110  1  0.44923574  0.13473821  0.26564033  1
  H+  H111  1  0.60226871  0.61895950  0.47703630  1
  H+  H112  1  0.60230835  0.60454900  0.32246634  1
  H+  H113  1  0.37139103  0.38865840  0.33076855  1
  H+  H114  1  0.91433037  0.11922159  0.67063339  1
  H+  H115  1  0.10205132  0.86812939  0.15466677  1
  H+  H116  1  0.62315725  0.15543585  0.50503505  1
  H+  H117  1  0.47972925  0.37552592  -0.00471396  1
  H+  H118  1  0.63722493  0.02845046  0.99122536  1
  H+  H119  1  0.34972887  0.64621011  0.33856543  1
  H+  H120  1  0.35004889  0.86810021  0.83420990  1
  H+  H121  1  0.35451589  0.72820108  1.01409993  1
  H+  H122  1  0.52788596  0.87973467  0.17140120  1
  H+  H123  1  0.41820369  0.75343305  0.17947029  1
  H+  H124  1  0.88376982  0.52770611  0.15211798  1
  H+  H125  1  0.65761360  0.82996213  0.50974843  1
  H+  H126  1  0.88918599  0.38862503  1.01009204  1
  H+  H127  1  0.78041755  0.64173195  1.00806678  1
  H+  H128  1  0.82475734  0.67201786  0.09961290  1
  H+  H129  1  0.85833069  0.87021712  0.81180626  1
  H+  H130  1  0.37767445  0.37252364  0.49018773  1
  H+  H131  1  0.47660731  0.10566766  0.17137538  1
  H+  H132  1  0.47967062  0.35943721  0.84394159  1
  H+  H133  1  0.14164691  0.76699458  0.47752379  1
  H+  H134  1  0.15987118  0.09592949  0.90980577  1
  H+  H135  1  0.76803167  0.61502194  0.48351468  1
  H+  H136  1  0.28184545  0.90282285  0.49002256  1
  H+  H137  1  0.88095219  0.76614315  0.17179640  1
  H+  H138  1  0.60485509  0.38428817  0.48695464  1
  H+  H139  1  0.36931409  0.02290757  0.83731564  1
  H+  H140  1  0.70849588  0.61707095  0.16664229  1
  H+  H141  1  0.79344629  0.50580233  0.44994748  1
  H+  H142  1  0.37350694  0.95448176  0.17774898  1
  H+  H143  1  0.86395330  0.62775738  0.67573383  1
  H+  H144  1  0.52139439  0.37844795  0.32880063  1
  H+  H145  1  0.75265051  0.18087807  0.37212035  1
  H+  H146  1  0.38312374  0.27288170  0.31950015  1
  H+  H147  1  0.51649268  0.62371301  0.00228989  1
  H+  H148  1  0.12658807  0.11829554  0.67314942  1
  H+  H149  1  0.36754176  0.95533714  0.33228389  1
  H+  H150  1  0.60510670  0.99433751  0.01196110  1
  H+  H151  1  0.85753491  0.99120080  0.30712847  1
  H+  H152  1  0.71911488  0.85802994  0.87920801  1
  H+  H153  1  0.99340515  0.10544712  0.84709327  1
  H+  H154  1  0.39436899  0.13022131  0.50436099  1
  H+  H155  1  0.26938676  0.14191876  0.49521010  1
  H+  H156  1  0.84369869  -0.03818619  0.99790532  1
  H+  H157  1  0.07585127  0.91286466  0.76929800  1
  H+  H158  1  0.89155769  0.27360952  0.85228941  1
  H+  H159  1  0.38397052  0.26430494  0.67885040  1
  H+  H160  1  0.89253684  0.30263897  0.00930104  1
  H+  H161  1  0.63987400  0.86726853  0.17960181  1
  H+  H162  1  0.14814450  1.02751227  0.49882966  1
  H+  H163  1  0.81482791  0.90169316  0.65039301  1
  H+  H164  1  0.60249545  0.70633713  0.46504831  1
  H+  H165  1  0.14597013  0.52149941  0.49260362  1
  H+  H166  1  0.77263698  0.87501312  0.79752257  1
  H+  H167  1  0.46433432  0.59195940  0.49972099  1
  H+  H168  1  0.90360716  0.00423572  0.31372085  1
  H+  H169  1  0.86829230  0.85686673  0.98752803  1
  H+  H170  1  0.79236913  0.17938109  -0.01591267  1
  H+  H171  1  0.60557114  0.22233773  0.16780376  1
  H+  H172  1  0.28485078  0.66260680  0.48589818  1
  H+  H173  1  0.38260969  0.79280990  0.51118102  1
  H+  H174  1  0.47343789  0.87071681  0.85479650  1
  H+  H175  1  0.75228941  0.87413178  0.99633657  1
  H+  H176  1  0.13522790  0.63741897  0.31678602  1
  H+  H177  1  0.86657411  0.73696253  0.51398223  1
  H+  H178  1  0.38124946  0.52202441  0.99426249  1
  H+  H179  1  0.62995863  0.51439227  0.49780949  1
  H+  H180  1  0.91285693  0.11988940  0.84660232  1
  H+  H181  1  0.34751149  0.74185832  0.82215938  1
  H+  H182  1  0.61450868  0.74949653  0.99179618  1
  H+  H183  1  -0.02332221  0.62638173  0.86097752  1
  H+  H184  1  0.88271128  0.35444244  0.66132727  1
  H+  H185  1  0.12706549  0.89625200  0.47546244  1
  H+  H186  1  0.33702042  0.48253731  0.15434584  1
  H+  H187  1  0.58504907  0.87890398  0.70091368  1
  H+  H188  1  0.86786473  0.35287997  0.14240595  1
  H+  H189  1  0.83838373  0.22316433  0.16777806  1
  H+  H190  1  0.62528166  1.01914638  0.17889937  1
  H+  H191  1  0.16761700  0.32658242  0.56691528  1
  H+  H192  1  0.31478175  0.66669811  0.60727540  1
  H+  H193  1  0.61229656  0.23299258  0.68623921  1
  H+  H194  1  0.94182456  0.24104754  0.04494277  1
  H+  H195  1  0.65276813  0.82394732  0.64850557  1
  H+  H196  1  0.38914599  0.28669941  0.99076841  1
  H+  H197  1  0.14229064  0.32968882  0.32691188  1
  H+  H198  1  0.84387527  0.13586674  0.16707213  1
  H+  H199  1  0.55856327  0.92070131  0.75237618  1
  H+  H200  1  0.62435657  0.81000270  0.93504941  1
  H+  H201  1  0.87822735  0.04036562  0.18474775  1
  H+  H202  1  0.38741553  0.61422857  -0.00671555  1
  H+  H203  1  0.50602699  0.17878104  1.01053003  1
  H+  H204  1  0.14634407  0.13179353  0.16385110  1
  H+  H205  1  0.65286950  0.84545060  0.43926638  1
  H+  H206  1  0.63488281  0.77712389  0.16944370  1
  H+  H207  1  0.16216176  0.06786845  0.59530629  1
  H+  H208  1  0.86904675  0.22947639  0.50789360  1
  H+  H209  1  1.03123386  0.62188356  0.15500690  1
  H+  H210  1  0.41853590  0.78813357  0.33253978  1
  H+  H211  1  0.71758279  0.38085041  0.50046008  1
  H+  H212  1  0.73897764  0.38198989  0.30975809  1
  H+  H213  1  0.36430260  0.48176769  0.66967486  1
  H+  H214  1  0.63829545  0.28272038  0.50285975  1
  H+  H215  1  0.11547235  0.46063842  0.16749670  1
  H+  H216  1  0.11524655  0.63262377  0.47008102  1
  H+  H217  1  0.86802016  0.39668460  0.33892519  1
  H+  H218  1  0.26741417  0.90106973  0.03390242  1
  H+  H219  1  0.59432588  0.69885607  0.32462571  1
  H+  H220  1  0.06515642  0.36670473  0.08063722  1
  H+  H221  1  0.33138231  0.90860038  0.08816059  1
  H+  H222  1  0.08754346  0.14734266  0.11880659  1
  H+  H223  1  0.38941532  1.02940490  0.66154809  1
  H+  H224  1  0.21236182  0.86780629  0.85240979  1
  H+  H225  1  0.60245301  0.75658381  0.69875490  1
  H+  H226  1  0.06520373  0.10394424  0.34826435  1
  H+  H227  1  0.21941210  0.35572745  0.50317133  1
  H+  H228  1  0.09056786  0.41518760  0.43595202  1
  H+  H229  1  0.91782855  1.03230477  0.66187782  1
  H+  H230  1  0.76238402  0.23117051  0.94333185  1
  H+  H231  1  0.48739605  0.88933253  0.31753257  1
  H+  H232  1  0.64334689  0.02047808  0.67319364  1
  H+  H233  1  0.29534163  0.14648520  0.14770234  1
  H+  H234  1  0.36909744  0.39413529  0.67376201  1
  H+  H235  1  0.33615055  0.92784839  0.40041721  1
  H+  H236  1  0.35656228  0.23544751  0.49430900  1
  H+  H237  1  0.12774492  0.87655703  0.84881381  1
  H+  H238  1  0.20965074  0.12845490  0.82105407  1
  H+  H239  1  0.53304045  0.63990788  0.84020624  1
  H+  H240  1  0.02964333  0.63576481  0.48349841  1
  H+  H241  1  0.12144878  0.64815588  0.00364802  1
  H+  H242  1  0.37538290  0.39483067  0.82740375  1
  H+  H243  1  0.88337717  0.76884623  0.83930679  1
  H+  H244  1  0.92485790  0.91924389  0.29287365  1
  H+  H245  1  0.87943807  0.16202345  0.32752594  1
  H+  H246  1  0.85443464  0.13315839  0.50721884  1
  H+  H247  1  0.90423278  0.37092995  0.51240898  1
  H+  H248  1  0.15261293  1.00605777  0.16500871  1
  H+  H249  1  0.00158717  0.91470998  0.00773666  1
  H+  H250  1  0.83371576  0.42216460  0.71801604  1
  H+  H251  1  0.38665515  0.37504582  0.16940950  1
  H+  H252  1  0.09668179  0.48399497  0.83981732  1
  H+  H253  1  0.11069279  -0.01149985  0.32606166  1
  H+  H254  1  0.90536813  0.63484535  0.01132903  1
  H+  H255  1  0.13320709  1.00696275  0.65525933  1
  H+  H256  1  0.14221149  0.93014459  -0.00027046  1
  H+  H257  1  0.64491368  0.77427993  0.84336826  1
  H+  H258  1  0.07528959  0.67497494  0.38161953  1
  H+  H259  1  0.96977544  0.86145378  0.83871066  1
  H+  H260  1  0.83953797  0.65395774  0.42903851  1
  H+  H261  1  0.15739847  0.13648434  0.27323031  1
  H+  H262  1  0.12122600  0.62154244  0.15763001  1
  H+  H263  1  0.33722126  0.13313802  0.34901709  1
  H+  H264  1  0.12408397  0.61934444  0.84757833  1
  H+  H265  1  0.02104776  0.64613125  0.01198493  1
  H+  H266  1  0.40775415  0.53254673  0.84015387  1
  H+  H267  1  0.36852421  0.86462518  0.00552811  1
  H+  H268  1  0.86876567  0.89717532  0.17379439  1
  H+  H269  1  0.97630483  0.62281323  0.30668388  1
  H+  H270  1  0.84946344  0.63480421  0.15599654  1
  H+  H271  1  0.64411933  0.52631500  0.99856399  1
  H+  H272  1  0.35401681  0.51572066  0.31237004  1
  H+  H273  1  0.79435676  0.12624215  0.68268272  1
  H+  H274  1  0.77558054  0.40550833  0.02661744  1
  H+  H275  1  0.51787213  0.13161980  0.84028128  1
  H+  H276  1  0.63428151  0.26757447  0.86035306  1
  H+  H277  1  0.77899633  0.89339936  0.17918567  1
  H+  H278  1  0.89273688  0.51979293  0.65552688  1
  H+  H279  1  0.23412477  0.58247418  0.18130806  1
  H+  H280  1  0.11092539  0.42731470  0.32639236  1
  H+  H281  1  0.16726036  0.30424995  0.26372808  1
  H+  H282  1  0.43007669  0.58860198  0.90057579  1
  H+  H283  1  0.73405370  0.69922183  0.60913994  1
  H+  H284  1  0.36908540  0.14302086  0.68633785  1
  H+  H285  1  0.87505818  0.27708910  0.34927653  1
  H+  H286  1  0.90763404  0.85700445  0.66128980  1
  H+  H287  1  0.12069049  0.88067846  0.69065653  1
  H+  H288  1  0.68953035  0.10630801  0.89889287  1
  H+  H289  1  0.85132670  0.91079671  0.71852307  1
  H+  H290  1  0.06619337  0.41286028  0.78111978  1
  H+  H291  1  0.41427597  0.33078565  0.25787682  1
  H+  H292  1  0.07872368  0.68077437  0.78383107  1
  H+  H293  1  0.33665690  0.17067451  0.74712529  1
  H+  H294  1  0.73702754  0.86720312  0.58477087  1
  H+  H295  1  0.84871163  0.89252082  0.43682630  1
  H+  H296  1  0.91795461  0.80603216  0.60675362  1
  H+  H297  1  0.51394993  0.37580601  0.67596662  1
  H+  H298  1  0.62679163  0.18663804  0.08707092  1
  H+  H299  1  0.58967059  0.63668805  0.15571010  1
  H+  H300  1  0.91115859  0.83365974  0.93224298  1
  H+  H301  1  0.41878907  0.09331568  0.60431575  1
  H+  H302  1  0.44591339  0.81193524  0.24017717  1
  H+  H303  1  0.19528327  0.06520384  0.22256691  1
  H+  H304  1  0.91190064  0.33826907  0.90989506  1
  H+  H305  1  0.66627902  0.58401906  0.55342712  1
  H+  H306  1  0.57938041  0.90684924  0.11035227  1
  H+  H307  1  0.91287913  0.31517442  0.28423421  1
  H+  H308  1  0.40549382  0.84274235  0.57729325  1
  H+  H309  1  0.90903580  0.11868742  0.23253836  1
  H+  H310  1  0.33714078  0.19124665  0.08526716  1
  H+  H311  1  0.09432536  0.66975198  0.07028486  1
  H+  H312  1  0.73138245  0.90633181  0.58290122  1
  H+  H313  1  0.63353802  0.17132191  0.40594338  1
  H+  H314  1  0.39774103  0.30312306  0.61278679  1
  H+  H315  1  0.58757519  0.90796479  0.43012039  1
  H+  H316  1  0.45987102  0.85699142  0.67273064  1
  H+  H317  1  0.13297651  0.55805535  0.63637035  1
  H+  H318  1  0.27187321  0.81015180  0.79568749  1
  H+  H319  1  0.43377702  0.38302029  0.54821601  1
  H+  H320  1  0.16774609  0.59824781  0.93510147  1
  H+  H321  1  0.32966559  0.42210014  0.06513473  1
  H+  H322  1  0.85163201  0.18259085  0.07973269  1
  H+  H323  1  0.57764409  0.66094311  0.06097531  1
  H+  H324  1  0.36993255  0.61521745  0.64892757  1
  H+  H325  1  0.87367215  0.72056481  0.68007247  1
  H+  H326  1  0.38467998  0.06422333  0.90286722  1
  H+  H327  1  0.83329029  0.65805165  0.77294867  1
  H+  H328  1  0.17339672  0.58004369  0.23464164  1
  H+  H329  1  0.15757402  0.82841638  0.22707589  1
  H+  H330  1  0.02247901  0.90066477  0.32873233  1
  H+  H331  1  0.34906535  0.70475766  0.43253027  1
  H+  H332  1  0.09494458  0.93256090  0.42264322  1
  H+  H333  1  0.36672465  0.01611446  1.00164118  1
  H+  H334  1  0.17303714  0.59278286  0.54304464  1
  H+  H335  1  0.67013235  0.34310960  0.22264697  1
  H+  H336  1  0.26722870  0.38401602  0.16111847  1
  H+  H337  1  0.32202668  0.17749859  0.40577993  1
  H+  H338  1  0.58558127  0.41013427  0.77515799  1
  H+  H339  1  0.42033687  0.34078054  0.90251439  1
  H+  H340  1  0.07202606  0.15391418  0.44488179  1
  H+  H341  1  0.65183298  0.80711099  0.26568775  1
  H+  H342  1  0.91764610  0.84199100  0.25430755  1
  H+  H343  1  0.59735506  0.67013049  0.78232823  1
  H+  H344  1  0.90980585  0.38788049  0.20511397  1
  H+  H345  1  0.63950900  0.35748222  0.85395994  1
  H+  H346  1  0.34838271  0.42878329  0.76870601  1
  H+  H347  1  0.67712272  0.34684548  0.94424009  1
  H+  H348  1  0.33646763  0.91692230  0.73751672  1
  H+  H349  1  0.92754173  0.33112534  0.60897596  1
  H+  H350  1  0.15231973  0.26200275  0.66037385  1
  H+  H351  1  0.05410108  1.00843892  0.03913312  1
  H+  H352  1  0.91222549  0.57874687  0.21569959  1
  H+  H353  1  0.58129184  0.42436054  0.06851255  1
  H+  H354  1  0.67990168  0.08212682  0.61514901  1
  H+  H355  1  0.56222846  0.63358907  0.38502381  1
  H+  H356  1  0.60747808  0.13229014  0.17419802  1
  H+  H357  1  0.66249632  0.33727689  0.59681818  1
  H+  H358  1  0.35599544  0.57144076  0.25492180  1
  H+  H359  1  0.67420173  0.57911226  0.90557651  1
  H+  H360  1  0.17585663  0.84698929  0.62415915  1
  H+  H361  1  0.83377893  0.43816827  0.38926298  1
  H+  H362  1  0.32134237  0.68492935  0.76223356  1
  H+  H363  1  0.87345453  0.64265934  0.33132826  1
  H+  H364  1  0.34553128  0.66527439  0.06899234  1
  H+  H365  1  0.99295912  0.37136647  0.50846825  1
  H+  H366  1  0.40723032  0.56772087  0.56034544  1
  H+  H367  1  0.51800730  0.38951907  0.47963155  1
  H+  H368  1  0.86045913  0.49848463  0.48778856  1
  H+  H369  1  0.51702089  0.39138024  0.15865551  1
  H+  H370  1  0.76688035  0.76367042  0.39093423  1
  H+  H371  1  0.90351997  0.61705548  0.51172709  1
  H+  H372  1  0.16859342  0.88741706  0.94637385  1
  H+  H373  1  0.14633145  0.80990591  0.53886814  1
  H+  H374  1  0.13530802  0.55180177  0.33290122  1
  H+  H375  1  0.63380492  0.04281479  0.52054669  1
  H+  H376  1  0.92905678  0.59979841  0.95214637  1
  H+  H377  1  0.10318961  0.13748274  0.75985287  1
  H+  H378  1  0.07169474  0.91142275  0.10048594  1
  H+  H379  1  0.57807262  0.17001752  0.78210906  1
  H+  H380  1  0.58186704  0.41174818  0.38782121  1
  H+  H381  1  0.93595681  0.58770368  0.57005919  1
  H+  H382  1  0.64923112  0.57467661  0.25581299  1
  H+  H383  1  0.27576124  0.36904361  0.33145816  1
  O2-  O384  1  0.11095278  0.15975777  0.16130457  1
  O2-  O385  1  0.08417124  0.15599248  0.48877761  1
  O2-  O386  1  0.10120772  0.13463013  0.80980756  1
  O2-  O387  1  0.08252011  0.39875407  0.15526666  1
  O2-  O388  1  0.09255192  0.41828002  0.48099201  1
  O2-  O389  1  0.06527183  0.42088645  0.82918715  1
  O2-  O390  1  0.09248155  0.65303325  0.14249657  1
  O2-  O391  1  0.08399350  0.66350400  0.45911534  1
  O2-  O392  1  0.07836875  0.68030270  0.82919773  1
  O2-  O393  1  0.07574695  0.90574410  0.14482053  1
  O2-  O394  1  0.10039689  0.93150177  0.46736019  1
  O2-  O395  1  0.07372823  0.91836737  0.81499626  1
  O2-  O396  1  0.34763033  0.19456143  0.12980787  1
  O2-  O397  1  0.33068425  0.17679654  0.47767374  1
  O2-  O398  1  0.31861997  0.16907543  0.82299229  1
  O2-  O399  1  0.32549559  0.42381005  0.14423853  1
  O2-  O400  1  0.32048403  0.40659452  0.46812703  1
  O2-  O401  1  0.35097461  0.43101945  0.81392167  1
  O2-  O402  1  0.40164818  0.65578029  0.14351264  1
  O2-  O403  1  0.34517232  0.70553451  0.47777960  1
  O2-  O404  1  0.29824119  0.70062941  0.79683930  1
  O2-  O405  1  0.34610612  0.89708198  0.15895830  1
  O2-  O406  1  0.34373395  0.93802492  0.48062827  1
  O2-  O407  1  0.30263978  0.86992521  0.80999261  1
  O2-  O408  1  0.57994591  0.16201435  0.15232538  1
  O2-  O409  1  0.59723998  0.18464062  0.48119391  1
  O2-  O410  1  0.57880137  0.16219540  0.82766523  1
  O2-  O411  1  0.57832253  0.42298718  0.14415070  1
  O2-  O412  1  0.57964346  0.41765227  0.46745596  1
  O2-  O413  1  0.58646364  0.41082411  0.82003479  1
  O2-  O414  1  0.57169066  0.67517317  0.13576170  1
  O2-  O415  1  0.56770358  0.64276398  0.45894353  1
  O2-  O416  1  0.59827505  0.67401803  0.82691053  1
  O2-  O417  1  0.58780886  0.91866813  0.15456627  1
  O2-  O418  1  0.56995732  0.93242275  0.50411226  1
  O2-  O419  1  0.57549111  0.92228193  0.83145778  1
  O2-  O420  1  0.80972486  0.16518160  0.15031554  1
  O2-  O421  1  0.83047584  0.17059310  0.49272272  1
  O2-  O422  1  0.85086822  0.17178152  0.82093413  1
  O2-  O423  1  0.79006746  0.35614446  0.10214717  1
  O2-  O424  1  0.80974044  0.46297006  0.46098389  1
  O2-  O425  1  0.87855018  0.47842509  0.78337503  1
  O2-  O426  1  0.81896728  0.66608326  0.14530932  1
  O2-  O427  1  0.82981846  0.63738410  0.47341922  1
  O2-  O428  1  0.83401692  0.66356264  0.81798703  1
  O2-  O429  1  0.84155143  0.93287892  0.17535558  1
  O2-  O430  1  0.86065716  0.91156436  0.47977061  1
  O2-  O431  1  0.83190015  0.89576534  0.78481565  1
  O2-  O432  1  0.19441913  0.06645581  0.17809944  1
  O2-  O433  1  0.17612881  0.08600087  0.51838691  1
  O2-  O434  1  0.14656406  0.09020272  0.83049121  1
  O2-  O435  1  0.16949047  0.31480252  0.19477095  1
  O2-  O436  1  0.16078214  0.32881427  0.52111746  1
  O2-  O437  1  0.16591237  0.31291842  0.81388144  1
  O2-  O438  1  0.17401079  0.56750424  0.19040434  1
  O2-  O439  1  0.17203736  0.58564856  0.49921647  1
  O2-  O440  1  0.15420733  0.58651136  0.85666039  1
  O2-  O441  1  0.14581228  0.82044128  0.18291230  1
  O2-  O442  1  0.16877201  0.82496501  0.49785186  1
  O2-  O443  1  0.15499844  0.84682647  0.87061960  1
  O2-  O444  1  0.41779327  0.07180288  0.19061338  1
  O2-  O445  1  0.42745205  0.10348687  0.51996470  1
  O2-  O446  1  0.39915931  0.07780487  0.85835298  1
  O2-  O447  1  0.41519551  0.34269540  0.18282762  1
  O2-  O448  1  0.41675422  0.35176451  0.50989057  1
  O2-  O449  1  0.41860329  0.33327232  0.85715738  1
  O2-  O450  1  0.33918268  0.58434826  0.17170124  1
  O2-  O451  1  0.40554684  0.55773797  0.51594329  1
  O2-  O452  1  0.44103621  0.59292753  0.85603135  1
  O2-  O453  1  0.43467094  0.81145629  0.19526993  1
  O2-  O454  1  0.41053235  0.85177528  0.53204799  1
  O2-  O455  1  0.41085610  0.83709667  0.86520594  1
  O2-  O456  1  0.64994381  0.07614296  0.19998946  1
  O2-  O457  1  0.66850184  0.10250971  0.53587192  1
  O2-  O458  1  0.67265288  0.08776081  0.85643370  1
  O2-  O459  1  0.65449015  0.33242784  0.17715987  1
  O2-  O460  1  0.66008349  0.34345971  0.51847001  1
  O2-  O461  1  0.66676756  0.32815289  0.87452678  1
  O2-  O462  1  0.64739563  0.58706392  0.18020261  1
  O2-  O463  1  0.66368166  0.57740197  0.50886255  1
  O2-  O464  1  0.67154270  0.57801031  0.85985630  1
  O2-  O465  1  0.66587612  0.83177053  0.19254998  1
  O2-  O466  1  0.67014271  0.81489884  0.47017987  1
  O2-  O467  1  0.67077181  0.83847768  0.85130312  1
  O2-  O468  1  0.89850968  0.10282927  0.18882730  1
  O2-  O469  1  0.88253442  0.06924792  0.53499374  1
  O2-  O470  1  0.93667795  0.08629895  0.86536090  1
  O2-  O471  1  0.90683771  0.34876028  0.17343812  1
  O2-  O472  1  0.93341429  0.34099179  0.52665810  1
  O2-  O473  1  0.91432490  0.33452631  0.86515629  1
  O2-  O474  1  0.91783105  0.58453114  0.17008636  1
  O2-  O475  1  0.93700917  0.58922651  0.52429318  1
  O2-  O476  1  0.91746500  0.59379451  0.87809123  1
  O2-  O477  1  0.91582570  0.82626095  0.18776444  1
  O2-  O478  1  0.87189906  0.78297889  0.54129601  1
  O2-  O479  1  0.90867771  0.82988361  0.85292233  1
  O2-  O480  1  0.16522335  0.09842970  0.30088413  1
  O2-  O481  1  0.16061940  0.06677216  0.64045587  1
  O2-  O482  1  0.17936200  0.09441230  0.95154090  1
  O2-  O483  1  0.16883183  0.29830233  0.31053082  1
  O2-  O484  1  0.17580356  0.31771225  0.63927544  1
  O2-  O485  1  0.15908806  0.28876689  0.99688587  1
  O2-  O486  1  0.16794324  0.60592395  0.31023650  1
  O2-  O487  1  0.16025980  0.57868916  0.67567724  1
  O2-  O488  1  0.16589385  0.60258202  0.98012566  1
  O2-  O489  1  0.16209083  0.84142572  0.30805347  1
  O2-  O490  1  0.17787291  0.83315975  0.66653165  1
  O2-  O491  1  0.18695484  0.91760297  0.98614987  1
  O2-  O492  1  0.44000867  0.07787368  0.25542256  1
  O2-  O493  1  0.41735565  0.09063195  0.64941474  1
  O2-  O494  1  0.35026481  0.04843581  0.97316739  1
  O2-  O495  1  0.41826304  0.33211204  0.30370585  1
  O2-  O496  1  0.41182851  0.32382282  0.65439443  1
  O2-  O497  1  0.42025437  0.34887646  0.97846869  1
  O2-  O498  1  0.35691641  0.56970432  0.29963436  1
  O2-  O499  1  0.40363497  0.58382037  0.63992553  1
  O2-  O500  1  0.41689404  0.58316095  0.97909924  1
  O2-  O501  1  0.47359769  0.82949103  0.31221877  1
  O2-  O502  1  0.40223354  0.83096517  0.65243505  1
  O2-  O503  1  0.39420899  0.83163764  0.98632045  1
  O2-  O504  1  0.58830971  0.01015833  0.31431565  1
  O2-  O505  1  0.69477122  0.06977415  0.65575244  1
  O2-  O506  1  0.74151584  0.17618362  0.96392113  1
  O2-  O507  1  0.68119143  0.35156100  0.29113757  1
  O2-  O508  1  0.66778670  0.33712668  0.64198722  1
  O2-  O509  1  0.68181726  0.35820539  0.99030079  1
  O2-  O510  1  0.64854065  0.57187875  0.30143614  1
  O2-  O511  1  0.70166684  0.64384313  0.62989884  1
  O2-  O512  1  0.67737371  0.58654257  0.98190182  1
  O2-  O513  1  0.64231947  0.79057728  0.30985520  1
  O2-  O514  1  0.63576160  0.81847534  0.69103481  1
  O2-  O515  1  0.63423854  0.81132243  0.97896850  1
  O2-  O516  1  0.92777984  0.16800235  0.30264314  1
  O2-  O517  1  0.94720011  0.09423626  0.65085704  1
  O2-  O518  1  0.91320597  0.07031005  0.98419032  1
  O2-  O519  1  0.91444201  0.33460792  0.32582526  1
  O2-  O520  1  0.91816696  0.32682865  0.65342281  1
  O2-  O521  1  0.91563378  0.35871951  0.98870861  1
  O2-  O522  1  0.91530063  0.58905458  0.29195941  1
  O2-  O523  1  0.92421629  0.58305112  0.64567084  1
  O2-  O524  1  0.93821948  0.60654881  0.99746504  1
  O2-  O525  1  0.92284753  0.86426978  0.29874212  1
  O2-  O526  1  0.93013402  0.81715613  0.65167772  1
  O2-  O527  1  0.90986028  0.83558832  0.97757702  1
  O2-  O528  1  0.06564749  0.12481414  0.04458734  1
  O2-  O529  1  0.05388239  0.14826502  0.36375575  1
  O2-  O530  1  0.10313910  0.15152808  0.69701658  1
  O2-  O531  1  0.04296659  0.33634398  0.04112063  1
  O2-  O532  1  0.07737686  0.43397628  0.35838205  1
  O2-  O533  1  0.07062598  0.40935835  0.71698460  1
  O2-  O534  1  0.09043473  0.67728431  0.02485337  1
  O2-  O535  1  0.07570085  0.67939163  0.33648942  1
  O2-  O536  1  0.08061750  0.66602049  0.70519156  1
  O2-  O537  1  0.05814653  0.95753066  0.02689526  1
  O2-  O538  1  0.08346589  0.92977720  0.34277297  1
  O2-  O539  1  0.08575306  0.90866242  0.69719105  1
  O2-  O540  1  0.32934843  0.18304883  0.00685475  1
  O2-  O541  1  0.31748402  0.17312332  0.35924045  1
  O2-  O542  1  0.34648846  0.17936176  0.70258585  1
  O2-  O543  1  0.33041172  0.42288271  0.01985150  1
  O2-  O544  1  0.33430145  0.41182291  0.34562627  1
  O2-  O545  1  0.34032095  0.42469684  0.68986516  1
  O2-  O546  1  0.33385078  0.66704096  0.02526743  1
  O2-  O547  1  0.33616561  0.68978643  0.35588979  1
  O2-  O548  1  0.31738290  0.66383901  0.65150847  1
  O2-  O549  1  0.32691158  0.91607277  0.04275404  1
  O2-  O550  1  0.32053774  0.91284869  0.35697502  1
  O2-  O551  1  0.33803440  0.92264756  0.69248129  1
  O2-  O552  1  0.66742612  0.22108134  0.05290362  1
  O2-  O553  1  0.66067592  0.16918460  0.36744721  1
  O2-  O554  1  0.57749824  0.17846689  0.70811027  1
  O2-  O555  1  0.58372480  0.42649666  0.02281019  1
  O2-  O556  1  0.58260738  0.41151003  0.34257676  1
  O2-  O557  1  0.57535216  0.40731964  0.69113977  1
  O2-  O558  1  0.57873530  0.65541825  0.01564534  1
  O2-  O559  1  0.56449591  0.63441747  0.33899607  1
  O2-  O560  1  0.57213522  0.63770031  0.69879659  1
  O2-  O561  1  0.53174638  0.84487840  0.04342565  1
  O2-  O562  1  0.61585339  0.89539620  0.39608766  1
  O2-  O563  1  0.55679635  0.91370117  0.70734077  1
  O2-  O564  1  0.87925360  0.19934267  0.03815994  1
  O2-  O565  1  0.81421543  0.19132035  0.37481870  1
  O2-  O566  1  0.85486181  0.16224993  0.69803353  1
  O2-  O567  1  0.82750726  0.42044144  0.05340699  1
  O2-  O568  1  0.84202807  0.43376980  0.34502708  1
  O2-  O569  1  0.83303383  0.41449091  0.67327138  1
  O2-  O570  1  0.83948396  0.67601182  0.02582400  1
  O2-  O571  1  0.85525002  0.67716697  0.35652279  1
  O2-  O572  1  0.83484859  0.65842308  0.69211168  1
  O2-  O573  1  0.81330910  0.89909042  0.00673844  1
  O2-  O574  1  0.79052290  0.82062193  0.37304514  1
  O2-  O575  1  0.86806703  0.92196608  0.67309477  1
