# generated using pymatgen
data_H2O
_symmetry_space_group_name_H-M   'P 1'
_cell_length_a   17.98377270
_cell_length_b   17.98227309
_cell_length_c   21.99917873
_cell_angle_alpha   89.98626379
_cell_angle_beta   89.98125762
_cell_angle_gamma   120.02899668
_symmetry_Int_Tables_number   1
_chemical_formula_structural   H2O
_chemical_formula_sum   'H384 O192'
_cell_volume   6159.35807599
_cell_formula_units_Z   192
loop_
 _symmetry_equiv_pos_site_id
 _symmetry_equiv_pos_as_xyz
  1  'x, y, z'
loop_
 _atom_type_symbol
 _atom_type_oxidation_number
  H+  1.0
  O2-  -2.0
loop_
 _atom_site_type_symbol
 _atom_site_label
 _atom_site_symmetry_multiplicity
 _atom_site_fract_x
 _atom_site_fract_y
 _atom_site_fract_z
 _atom_site_occupancy
  H+  H0  1  0.09954414  0.86758531  0.49344507  1
  H+  H1  1  0.12537812  0.53008438  0.16594213  1
  H+  H2  1  0.53109764  0.64106373  0.33231524  1
  H+  H3  1  0.58267435  0.41798657  0.73487449  1
  H+  H4  1  0.13795772  -0.03277605  0.34333575  1
  H+  H5  1  0.86938797  0.22986690  0.49811746  1
  H+  H6  1  0.55328018  0.50710371  0.02593280  1
  H+  H7  1  0.67013286  0.57086717  0.27389050  1
  H+  H8  1  0.87194201  -0.02174631  0.67140896  1
  H+  H9  1  0.64975860  0.32799894  0.88924910  1
  H+  H10  1  0.59904617  0.12775974  0.67469408  1
  H+  H11  1  0.96380723  0.84966968  0.50477465  1
  H+  H12  1  0.39166737  0.34872849  0.66562516  1
  H+  H13  1  0.12886614  0.01143260  0.85079754  1
  H+  H14  1  0.59650896  0.13552611  0.82173633  1
  H+  H15  1  0.13441759  0.77074563  0.50882848  1
  H+  H16  1  0.23098957  0.84754397  0.98529622  1
  H+  H17  1  0.72810597  0.86639292  0.50447298  1
  H+  H18  1  0.23270067  0.89324024  0.65525555  1
  H+  H19  1  0.38360153  0.47649824  0.65991381  1
  H+  H20  1  0.63375969  0.38977426  0.51482708  1
  H+  H21  1  0.90903857  0.51794639  0.65340272  1
  H+  H22  1  0.46985248  0.11554355  0.84395463  1
  H+  H23  1  0.05993292  0.29831224  0.21901840  1
  H+  H24  1  0.77089396  0.89715020  0.34048372  1
  H+  H25  1  0.87917595  0.02497459  0.33238325  1
  H+  H26  1  0.63538772  0.86570416  0.33149900  1
  H+  H27  1  0.61623492  0.23352348  0.16824103  1
  H+  H28  1  0.86272254  0.98460651  0.16779238  1
  H+  H29  1  0.13730535  0.60891411  0.83138251  1
  H+  H30  1  0.26717250  0.13015145  0.83873569  1
  H+  H31  1  0.26643292  0.12424620  0.47067832  1
  H+  H32  1  0.16808020  0.82054475  0.89204593  1
  H+  H33  1  0.47797755  0.87325632  0.83369362  1
  H+  H34  1  0.14132563  0.51337573  0.98237925  1
  H+  H35  1  0.37763532  0.25352268  0.33791417  1
  H+  H36  1  0.09967148  -0.04547149  0.48218064  1
  H+  H37  1  0.58490318  0.66942460  0.05544826  1
  H+  H38  1  -0.02308996  0.62653115  0.50414719  1
  H+  H39  1  0.39689464  0.87211556  0.32972370  1
  H+  H40  1  0.76576930  0.38629898  0.34425463  1
  H+  H41  1  0.41609521  0.57761440  0.89268190  1
  H+  H42  1  0.27367687  0.37805292  -0.01209940  1
  H+  H43  1  0.36629787  0.24262407  0.50772954  1
  H+  H44  1  0.63917127  0.86864309  0.83403013  1
  H+  H45  1  0.14200902  0.75875629  -0.01899289  1
  H+  H46  1  0.61088347  0.98029378  0.81736282  1
  H+  H47  1  0.38585904  0.77230645  0.51057181  1
  H+  H48  1  0.09833418  0.12608006  0.68775335  1
  H+  H49  1  0.36851361  0.88102804  0.00754473  1
  H+  H50  1  0.56123111  0.16114216  0.76373386  1
  H+  H51  1  0.84977781  0.24893318  0.82578344  1
  H+  H52  1  0.10335513  0.88348142  0.67900580  1
  H+  H53  1  0.96285524  0.38345688  0.68228309  1
  H+  H54  1  0.80710099  0.14627456  0.00479222  1
  H+  H55  1  0.89918742  0.28132687  0.17557875  1
  H+  H56  1  0.01979888  0.88222764  0.02105568  1
  H+  H57  1  0.63981191  0.86804727  0.50216157  1
  H+  H58  1  0.33641650  0.68438401  0.75397424  1
  H+  H59  1  0.12755339  0.73918310  0.66806584  1
  H+  H60  1  0.23607196  0.09996745  0.17732701  1
  H+  H61  1  0.52851692  0.89598424  0.50052614  1
  H+  H62  1  0.39308285  0.52670415  0.32051100  1
  H+  H63  1  0.24265713  0.37980825  0.33150372  1
  H+  H64  1  0.14527193  0.84507251  0.32720248  1
  H+  H65  1  0.39730706  0.02189637  0.17474875  1
  H+  H66  1  0.49636507  0.10023662  0.49149518  1
  H+  H67  1  0.64010051  0.77832804  0.32684314  1
  H+  H68  1  0.35146606  -0.02596536  0.49723324  1
  H+  H69  1  0.47964795  0.39351864  0.17582346  1
  H+  H70  1  0.91382837  0.37621996  0.50667817  1
  H+  H71  1  0.66773962  0.83909180  0.89370401  1
  H+  H72  1  0.29531720  0.15340099  0.33658953  1
  H+  H73  1  0.01069912  0.87767811  0.67717614  1
  H+  H74  1  0.92627016  0.34208197  0.92433353  1
  H+  H75  1  0.92180235  0.60951312  0.17358628  1
  H+  H76  1  0.10352767  0.20610926  0.54926502  1
  H+  H77  1  0.59698945  0.51438611  1.01795545  1
  H+  H78  1  0.32953561  0.66650412  0.06139727  1
  H+  H79  1  0.22179186  0.86198519  0.50493088  1
  H+  H80  1  0.35767135  0.13254350  0.84121336  1
  H+  H81  1  0.37479223  0.39363577  0.33819639  1
  H+  H82  1  0.88935018  0.51882899  0.32089321  1
  H+  H83  1  0.11439015  0.07701559  0.46634483  1
  H+  H84  1  0.12428393  0.12387921  0.97696100  1
  H+  H85  1  0.63194464  0.52186964  0.66056342  1
  H+  H86  1  0.62707304  0.61711224  0.82683766  1
  H+  H87  1  0.00127645  0.09115238  0.46132947  1
  H+  H88  1  0.37365269  0.10850396  0.50460092  1
  H+  H89  1  0.14350485  0.09021398  0.18865219  1
  H+  H90  1  0.11958310  0.01287892  0.70918715  1
  H+  H91  1  0.63634674  0.36126940  0.66937384  1
  H+  H92  1  0.51004025  0.62799582  0.66200264  1
  H+  H93  1  0.39355052  0.61684754  0.32342543  1
  H+  H94  1  0.14238990  0.50251256  0.66112671  1
  H+  H95  1  0.11577065  0.64409454  0.49659358  1
  H+  H96  1  0.85689915  0.73185946  0.82502717  1
  H+  H97  1  0.61410111  0.89914151  0.15652725  1
  H+  H98  1  -0.03097213  0.11563066  0.32656582  1
  H+  H99  1  0.06676250  0.40642476  0.64816537  1
  H+  H100  1  0.91933599  0.28284114  0.67302157  1
  H+  H101  1  0.56404465  0.48946225  0.49631159  1
  H+  H102  1  0.62173846  0.73306069  0.48826595  1
  H+  H103  1  0.59081687  0.09457185  0.98762089  1
  H+  H104  1  0.37490621  0.63167287  0.65262573  1
  H+  H105  1  0.97159652  0.85856528  0.84861766  1
  H+  H106  1  0.10589027  0.87668700  0.83324130  1
  H+  H107  1  0.17046393  0.32950336  0.90956537  1
  H+  H108  1  0.11128414  0.62765011  0.34878564  1
  H+  H109  1  0.15523672  0.10797694  0.32673232  1
  H+  H110  1  0.17859887  0.39686623  0.64411896  1
  H+  H111  1  0.62585961  0.99236649  0.14990199  1
  H+  H112  1  0.61902149  0.27342435  0.82934099  1
  H+  H113  1  0.39421086  0.07714291  0.56877287  1
  H+  H114  1  0.85023759  0.71872989  0.50231232  1
  H+  H115  1  1.04669055  0.64108324  0.66179909  1
  H+  H116  1  0.61272631  0.22422060  0.00556560  1
  H+  H117  1  0.04280424  0.39529463  0.50033686  1
  H+  H118  1  0.38836189  -0.00472374  0.34036416  1
  H+  H119  1  0.50268478  0.38447261  0.34254930  1
  H+  H120  1  0.87431471  -0.01721037  0.82581268  1
  H+  H121  1  0.73257985  0.11838913  0.51429487  1
  H+  H122  1  0.71651177  0.35472051  -0.02432448  1
  H+  H123  1  0.02230737  0.12344294  0.19387376  1
  H+  H124  1  0.85959600  0.88197668  0.49282532  1
  H+  H125  1  0.56092932  0.56964218  0.11904736  1
  H+  H126  1  0.88547820  0.71429240  0.16239644  1
  H+  H127  1  0.47594650  0.11239195  1.00188405  1
  H+  H128  1  0.37839957  0.85689822  0.17650186  1
  H+  H129  1  0.58284711  0.92356185  0.40086946  1
  H+  H130  1  0.97842389  0.12402185  0.82626732  1
  H+  H131  1  0.91088264  0.83194868  0.56714543  1
  H+  H132  1  0.89168139  0.12038933  0.17676738  1
  H+  H133  1  0.87614307  0.73146630  1.01460826  1
  H+  H134  1  0.51601412  0.63587179  0.82257546  1
  H+  H135  1  0.88296258  0.01868010  0.50079682  1
  H+  H136  1  0.64884281  0.82667002  0.59629655  1
  H+  H137  1  0.35169392  0.63109589  0.16200267  1
  H+  H138  1  0.59892588  0.87415959  0.66510133  1
  H+  H139  1  0.88547499  0.86440312  0.99972915  1
  H+  H140  1  0.85791037  0.47928872  -0.01099121  1
  H+  H141  1  0.76970110  0.38784595  0.68372561  1
  H+  H142  1  0.52460545  0.37882682  0.67601170  1
  H+  H143  1  0.47250793  0.36236022  0.83696058  1
  H+  H144  1  0.10029778  0.70821208  0.82098924  1
  H+  H145  1  0.36900965  0.13810289  0.16398929  1
  H+  H146  1  0.62289599  0.36493354  0.34317270  1
  H+  H147  1  0.97185117  0.53929952  0.79278148  1
  H+  H148  1  -0.11519718  0.77499110  0.65620646  1
  H+  H149  1  0.76521042  0.64672954  0.81529910  1
  H+  H150  1  0.15506574  0.07754818  0.53111055  1
  H+  H151  1  0.61946551  -0.01641538  0.49998267  1
  H+  H152  1  0.77259629  0.64331686  0.66647475  1
  H+  H153  1  0.38696931  0.77559167  0.33127500  1
  H+  H154  1  0.67095196  0.62415846  0.17845937  1
  H+  H155  1  0.34403780  0.31211701  0.53228739  1
  H+  H156  1  0.88533450  0.60792047  0.99688718  1
  H+  H157  1  0.89473818  0.36799237  0.18480051  1
  H+  H158  1  0.66003567  0.66020365  0.97941072  1
  H+  H159  1  0.90194060  0.15215484  0.67939727  1
  H+  H160  1  0.66306814  0.08692342  0.61142157  1
  H+  H161  1  0.50353429  0.34833658  0.01396759  1
  H+  H162  1  0.62181066  0.33982946  0.99202884  1
  H+  H163  1  0.65340854  0.13012632  0.17258176  1
  H+  H164  1  0.75406611  0.61280373  0.17790375  1
  H+  H165  1  0.36233971  0.09690918  0.67783533  1
  H+  H166  1  0.36349875  0.22325096  0.00826687  1
  H+  H167  1  0.87053855  0.98067007  0.00850111  1
  H+  H168  1  0.27343540  0.65410407  0.81180736  1
  H+  H169  1  0.60619341  0.72724005  0.81948245  1
  H+  H170  1  0.36853133  0.13591030  0.01286301  1
  H+  H171  1  0.13875869  0.20520237  0.53142452  1
  H+  H172  1  0.88568334  0.36367979  0.32773772  1
  H+  H173  1  0.08895415  0.42518433  0.40358075  1
  H+  H174  1  0.11343062  0.96535396  0.02447744  1
  H+  H175  1  0.38436541  0.60984399  0.98981617  1
  H+  H176  1  0.15563132  0.75172978  0.17184573  1
  H+  H177  1  0.63430389  0.61876047  0.50471638  1
  H+  H178  1  0.92170927  0.40020516  0.83326876  1
  H+  H179  1  0.20894012  0.09979569  0.70818179  1
  H+  H180  1  0.50854173  0.12722242  0.67199351  1
  H+  H181  1  0.32930141  0.44388410  0.48910758  1
  H+  H182  1  0.95681327  0.20996437  0.73359197  1
  H+  H183  1  0.36866583  0.90020753  0.81865757  1
  H+  H184  1  0.48600169  0.12682420  0.32287399  1
  H+  H185  1  0.72313529  0.36817872  0.19487571  1
  H+  H186  1  0.14062875  0.41285066  0.49243506  1
  H+  H187  1  0.18659246  0.07275066  0.27219963  1
  H+  H188  1  0.14692723  0.37020451  0.82427645  1
  H+  H189  1  0.37001594  0.65015250  0.51338334  1
  H+  H190  1  0.10851804  0.62414751  -0.00688727  1
  H+  H191  1  0.98026057  0.60543558  0.32862982  1
  H+  H192  1  0.41757369  0.56114335  0.53708980  1
  H+  H193  1  0.48247421  0.39173018  0.50077955  1
  H+  H194  1  0.37214518  0.75825561  0.18034797  1
  H+  H195  1  0.76265241  0.64551108  0.34755869  1
  H+  H196  1  0.21801136  0.85544068  0.82927851  1
  H+  H197  1  0.41478334  0.34882639  0.27619964  1
  H+  H198  1  0.33794089  0.80884233  0.59483138  1
  H+  H199  1  0.38333150  0.27182741  0.84003942  1
  H+  H200  1  0.40052090  0.13331315  0.32260885  1
  H+  H201  1  0.28023161  0.64595466  0.50034909  1
  H+  H202  1  0.36641109  -0.03082190  1.01253094  1
  H+  H203  1  0.74608980  0.04057274  -0.06995809  1
  H+  H204  1  0.83304012  0.91557325  0.43277285  1
  H+  H205  1  0.63782804  0.02826873  0.32550255  1
  H+  H206  1  0.61803386  0.14220190  0.33772671  1
  H+  H207  1  0.90504753  0.08337433  0.24039858  1
  H+  H208  1  0.38321412  0.31956625  0.17182386  1
  H+  H209  1  0.26483404  0.63579035  0.16112663  1
  H+  H210  1  0.63946296  0.10886994  0.51337653  1
  H+  H211  1  0.47399676  0.85211475  0.98929052  1
  H+  H212  1  0.19333570  0.32616535  0.49351590  1
  H+  H213  1  0.38189969  0.02550963  0.84559333  1
  H+  H214  1  0.14163847  0.52305734  0.32883926  1
  H+  H215  1  0.42966154  0.46833546  0.47693191  1
  H+  H216  1  0.86781177  0.78321012  0.32355190  1
  H+  H217  1  0.35710254  0.88794062  0.49498287  1
  H+  H218  1  0.88442043  0.24194163  0.00162341  1
  H+  H219  1  0.60606249  0.38665133  0.82495322  1
  H+  H220  1  0.28049290  0.87476549  0.16209580  1
  H+  H221  1  0.36186843  0.20998500  0.68819993  1
  H+  H222  1  0.60739675  0.38800017  0.17295588  1
  H+  H223  1  0.14797800  0.53796788  0.50690424  1
  H+  H224  1  0.88966069  0.11144677  0.49897718  1
  H+  H225  1  0.23657857  0.10264468  1.00885648  1
  H+  H226  1  0.84578004  0.60330055  0.84456247  1
  H+  H227  1  0.38312980  0.72501694  0.64921995  1
  H+  H228  1  0.78273971  0.89372381  0.82535187  1
  H+  H229  1  0.61304053  0.76328148  0.65377062  1
  H+  H230  1  0.88049884  0.61362306  0.50612324  1
  H+  H231  1  -0.00887407  0.37244565  0.83166108  1
  H+  H232  1  0.99224923  0.10514592  0.97174833  1
  H+  H233  1  0.05225782  0.60585041  0.17449002  1
  H+  H234  1  0.35966619  0.72301754  0.00076340  1
  H+  H235  1  0.12585760  0.23609947  0.32840908  1
  H+  H236  1  0.37969406  0.35587124  0.99059884  1
  H+  H237  1  0.14356031  0.83540307  0.17224943  1
  H+  H238  1  0.88007687  0.48272909  0.18139184  1
  H+  H239  1  0.63109684  0.26946481  0.67354031  1
  H+  H240  1  0.85851508  0.14060172  0.34476756  1
  H+  H241  1  0.89080295  0.86861462  0.65947085  1
  H+  H242  1  0.41721246  0.58373779  0.23382464  1
  H+  H243  1  0.65380794  0.57990702  0.56590318  1
  H+  H244  1  0.90113710  0.50185414  0.48451254  1
  H+  H245  1  0.02642311  0.38271741  -0.00258459  1
  H+  H246  1  0.62959789  0.27839338  0.34053898  1
  H+  H247  1  0.22685865  0.60531423  0.98587626  1
  H+  H248  1  0.38729206  0.45886254  0.18038008  1
  H+  H249  1  0.88627038  0.86586159  0.84592392  1
  H+  H250  1  0.52090024  0.61731164  0.15173037  1
  H+  H251  1  0.63826297  0.86980833  -0.00699657  1
  H+  H252  1  0.08923951  0.16076750  0.27980831  1
  H+  H253  1  0.10958711  0.21169830  0.19295366  1
  H+  H254  1  0.85102582  0.37836172  0.67319197  1
  H+  H255  1  0.72899912  0.87164028  0.99420296  1
  H+  H256  1  0.63098294  0.39793606  0.54803928  1
  H+  H257  1  -0.00546888  0.85320027  0.17005151  1
  H+  H258  1  0.12788052  0.27163281  0.81886736  1
  H+  H259  1  0.78769455  0.15107210  0.15987113  1
  H+  H260  1  -0.01976946  0.11096699  0.65375561  1
  H+  H261  1  0.16014490  0.63384812  0.65759785  1
  H+  H262  1  0.38397632  0.79005608  0.82915668  1
  H+  H263  1  0.91653489  0.12293788  0.99352980  1
  H+  H264  1  0.47515999  0.61453488  0.98703266  1
  H+  H265  1  0.74104086  0.03277895  0.96374701  1
  H+  H266  1  0.12374996  0.20957956  -0.04499561  1
  H+  H267  1  0.85819551  0.89483128  0.17372585  1
  H+  H268  1  0.88895744  0.36672203  -0.01826777  1
  H+  H269  1  0.60622221  0.47772839  0.82421273  1
  H+  H270  1  0.91482094  0.83805626  0.13108679  1
  H+  H271  1  0.27354435  0.38366749  0.81071970  1
  H+  H272  1  0.70980159  0.31383462  0.51695085  1
  H+  H273  1  0.38985535  0.52137242  0.83191124  1
  H+  H274  1  0.71651953  0.86973522  0.17499447  1
  H+  H275  1  0.62581733  1.02223602  0.66633124  1
  H+  H276  1  0.36249969  0.38440862  0.81772865  1
  H+  H277  1  0.13641420  0.34522676  0.97360405  1
  H+  H278  1  0.38480476  0.95526694  0.65896156  1
  H+  H279  1  1.02205464  0.62747274  0.99257040  1
  H+  H280  1  0.52469733  0.89036735  0.34074893  1
  H+  H281  1  0.02642136  0.39000023  0.34499832  1
  H+  H282  1  0.61293757  0.73944456  1.00100586  1
  H+  H283  1  0.76215025  0.62783783  0.49919224  1
  H+  H284  1  0.71117704  0.12527487  0.83388369  1
  H+  H285  1  0.62453245  0.51216783  0.33319938  1
  H+  H286  1  1.02689133  0.39985170  0.15520716  1
  H+  H287  1  0.70085003  0.30714844  0.58707063  1
  H+  H288  1  0.35702093  0.44831919  0.39252684  1
  H+  H289  1  0.55377293  0.42267267  0.40444367  1
  H+  H290  1  0.84991281  0.65521294  0.10446304  1
  H+  H291  1  0.51567965  0.88601416  0.66772282  1
  H+  H292  1  0.05810418  0.12062545  0.39942200  1
  H+  H293  1  0.83038916  0.18100098  0.77418247  1
  H+  H294  1  0.17909405  0.59914945  0.56615945  1
  H+  H295  1  0.35016061  0.42258665  0.72326306  1
  H+  H296  1  0.36034051  0.46740578  -0.00468115  1
  H+  H297  1  0.82488555  0.68194664  0.40391912  1
  H+  H298  1  0.65633161  0.33562558  0.24937143  1
  H+  H299  1  0.52773130  0.01734814  0.94628936  1
  H+  H300  1  0.41636495  0.83230799  0.92820046  1
  H+  H301  1  0.84224062  0.42192653  0.39432443  1
  H+  H302  1  0.57497591  0.15253200  0.39824552  1
  H+  H303  1  0.34487351  0.94348926  0.76277591  1
  H+  H304  1  0.08784669  0.41274802  0.05518235  1
  H+  H305  1  0.16631450  0.58647747  0.27171388  1
  H+  H306  1  0.14242351  0.21507236  0.08122206  1
  H+  H307  1  0.96121945  0.48293776  0.44355399  1
  H+  H308  1  0.68023378  0.09514210  0.23025470  1
  H+  H309  1  0.85877670  0.89658562  0.33296881  1
  H+  H310  1  0.08868562  0.89831465  0.10987507  1
  H+  H311  1  0.88796520  0.57303023  0.93053055  1
  H+  H312  1  0.09150636  0.66426721  0.75733701  1
  H+  H313  1  0.41602456  0.08066010  0.94190021  1
  H+  H314  1  0.56576033  0.65898048  0.72499802  1
  H+  H315  1  0.61749317  0.63659540  0.33402016  1
  H+  H316  1  0.33636270  0.16699872  0.10707282  1
  H+  H317  1  0.86597740  0.52624516  0.84131986  1
  H+  H318  1  0.91584205  0.83399823  0.94053582  1
  H+  H319  1  0.92493126  0.33679472  0.27217604  1
  H+  H320  1  0.42491000  0.08572358  0.23193345  1
  H+  H321  1  0.53216502  0.14058859  0.16347826  1
  H+  H322  1  0.17964107  0.05794586  0.94993512  1
  H+  H323  1  0.08845791  0.89714719  0.39425922  1
  H+  H324  1  0.65951206  0.84295934  0.23384889  1
  H+  H325  1  0.23436307  0.12831999  0.60291198  1
  H+  H326  1  0.86172109  0.23112517  0.34354073  1
  H+  H327  1  0.58228459  0.91722819  0.06536099  1
  H+  H328  1  0.25919709  0.38194568  0.64499389  1
  H+  H329  1  0.35235394  0.93209961  0.39864818  1
  H+  H330  1  0.19491644  0.13263930  0.60603685  1
  H+  H331  1  0.88831472  0.46519577  0.75765112  1
  H+  H332  1  0.27931768  0.63820093  0.34397767  1
  H+  H333  1  0.09670950  0.15565690  0.79965507  1
  H+  H334  1  0.21357108  0.37874019  0.55632155  1
  H+  H335  1  0.58902087  0.17284620  0.07049841  1
  H+  H336  1  0.89803261  0.83162951  0.25997301  1
  H+  H337  1  0.72664860  0.11753688  0.32854933  1
  H+  H338  1  0.11474755  0.40265498  0.15914992  1
  H+  H339  1  0.62448167  0.48239253  0.16486203  1
  H+  H340  1  0.07081423  0.90600340  0.77713942  1
  H+  H341  1  0.57986805  0.91439511  0.76135157  1
  H+  H342  1  0.14982896  0.37483677  0.33755475  1
  H+  H343  1  0.83187981  0.17227655  0.43844871  1
  H+  H344  1  0.85274011  0.18172990  0.10222020  1
  H+  H345  1  0.91707016  0.08348386  0.59531000  1
  H+  H346  1  0.83295850  0.67468386  0.72411053  1
  H+  H347  1  0.92975397  0.34059181  0.56893190  1
  H+  H348  1  0.51990384  0.04035462  0.45553831  1
  H+  H349  1  0.12411136  0.48414121  0.81666843  1
  H+  H350  1  0.81122781  0.40701198  0.04005045  1
  H+  H351  1  0.34147427  0.66830914  0.40200393  1
  H+  H352  1  0.12531099  0.95245373  0.17172167  1
  H+  H353  1  0.14940794  0.25947866  0.07639142  1
  H+  H354  1  0.40592580  0.82392288  0.24465655  1
  H+  H355  1  0.33299712  0.15386565  0.75044954  1
  H+  H356  1  0.66998919  0.60155208  0.88523728  1
  H+  H357  1  0.40960219  0.30093427  0.61212041  1
  H+  H358  1  0.24949101  0.62956579  0.65270293  1
  H+  H359  1  0.17231149  0.58095243  0.88978199  1
  H+  H360  1  0.59046758  0.96323526  0.00056252  1
  H+  H361  1  0.74592346  0.71514722  0.94298624  1
  H+  H362  1  0.59662073  0.67394929  0.42894528  1
  H+  H363  1  0.83226117  0.41527964  0.12892761  1
  H+  H364  1  0.13149438  0.09422797  0.88233791  1
  H+  H365  1  0.94125396  0.58044921  0.23883711  1
  H+  H366  1  0.06593775  0.17795295  0.72433528  1
  H+  H367  1  0.92368040  0.08516635  0.88824822  1
  H+  H368  1  0.17051267  0.84545358  0.59907019  1
  H+  H369  1  0.41234445  0.32595875  0.93273417  1
  H+  H370  1  0.93669052  0.57458671  0.59302363  1
  H+  H371  1  0.09905886  0.42840515  0.75543198  1
  H+  H372  1  0.34367088  0.90735757  0.10374505  1
  H+  H373  1  0.56544084  0.38216929  0.07287505  1
  H+  H374  1  0.84938831  0.92205441  0.73211259  1
  H+  H375  1  0.15208221  0.33937219  0.24608955  1
  H+  H376  1  0.34407001  0.17301478  0.42174624  1
  H+  H377  1  0.83536541  0.92357253  0.06948356  1
  H+  H378  1  0.16918075  0.80630725  0.26992405  1
  H+  H379  1  0.64010281  0.07872582  0.88788650  1
  H+  H380  1  0.08417363  0.66888066  0.43550284  1
  H+  H381  1  0.78609465  0.65060557  0.00888262  1
  H+  H382  1  0.62620497  0.60821227  0.65897868  1
  H+  H383  1  0.11149395  0.71620139  0.34270382  1
  O2-  O384  1  0.08535643  0.15002996  0.20241996  1
  O2-  O385  1  0.04147803  0.08237745  0.43484202  1
  O2-  O386  1  0.06679245  0.18807071  0.79536236  1
  O2-  O387  1  0.08723919  0.43245039  0.13917094  1
  O2-  O388  1  0.10007652  0.43366766  0.48108179  1
  O2-  O389  1  0.09237958  0.42345604  0.80017565  1
  O2-  O390  1  0.11291892  0.63385555  0.15817330  1
  O2-  O391  1  0.08364760  0.67238179  0.48161589  1
  O2-  O392  1  0.07909154  0.65097036  0.80160221  1
  O2-  O393  1  0.09270663  0.89230282  0.15619630  1
  O2-  O394  1  0.06536489  0.89158371  0.47469847  1
  O2-  O395  1  0.07506932  0.90871959  0.82260352  1
  O2-  O396  1  0.33463328  0.16530665  0.15246815  1
  O2-  O397  1  0.33046786  0.15876775  0.46724129  1
  O2-  O398  1  0.32747841  0.16166115  0.82306009  1
  O2-  O399  1  0.35362826  0.48893446  0.17512844  1
  O2-  O400  1  0.38685497  0.48851043  0.47487231  1
  O2-  O401  1  0.33588562  0.41550556  0.79789653  1
  O2-  O402  1  0.32624743  0.66641455  0.14859048  1
  O2-  O403  1  0.34319845  0.67691394  0.48883373  1
  O2-  O404  1  0.32749740  0.70145212  0.79455263  1
  O2-  O405  1  0.34306951  0.90728995  0.14974840  1
  O2-  O406  1  0.32501670  0.91529583  0.47888165  1
  O2-  O407  1  0.33624240  0.93017819  0.80649441  1
  O2-  O408  1  0.59325310  0.17577230  0.14912418  1
  O2-  O409  1  0.54421222  0.09998459  0.46837782  1
  O2-  O410  1  0.56263624  0.16373093  0.80943285  1
  O2-  O411  1  0.58310964  0.42160242  0.15386897  1
  O2-  O412  1  0.51069149  0.44370710  0.47526229  1
  O2-  O413  1  0.57421447  0.41706786  0.80982485  1
  O2-  O414  1  0.57445103  0.62722061  0.13118701  1
  O2-  O415  1  0.59664682  0.67278463  0.47393638  1
  O2-  O416  1  0.57628419  0.66725006  0.80395647  1
  O2-  O417  1  0.59125134  0.93282300  0.13496069  1
  O2-  O418  1  0.58527522  0.92521941  0.48049967  1
  O2-  O419  1  0.58265193  0.91784991  0.80685591  1
  O2-  O420  1  0.85022729  0.18063788  0.14755182  1
  O2-  O421  1  0.83487600  0.16952861  0.48372286  1
  O2-  O422  1  0.80627329  0.19110289  0.81130399  1
  O2-  O423  1  0.83701481  0.41828094  0.17291750  1
  O2-  O424  1  0.90414814  0.45350692  0.46187653  1
  O2-  O425  1  0.91749444  0.48453401  0.79792985  1
  O2-  O426  1  0.85570852  0.65277360  0.14968279  1
  O2-  O427  1  0.82377437  0.65871204  0.48608010  1
  O2-  O428  1  0.82756880  0.67441805  0.80485470  1
  O2-  O429  1  0.83377773  0.92432693  0.15104059  1
  O2-  O430  1  0.83098406  0.91453738  0.47820553  1
  O2-  O431  1  0.84411441  0.91906693  0.81401512  1
  O2-  O432  1  0.17716700  0.06127251  0.19569226  1
  O2-  O433  1  0.15886900  0.06610612  0.48823830  1
  O2-  O434  1  0.16657139  0.06832100  0.87116222  1
  O2-  O435  1  0.11963234  0.32228633  0.20625691  1
  O2-  O436  1  0.21713803  0.38461564  0.50870667  1
  O2-  O437  1  0.17227727  0.33436626  0.83639138  1
  O2-  O438  1  0.15344829  0.58870533  0.18706391  1
  O2-  O439  1  0.17798815  0.59941486  0.52016566  1
  O2-  O440  1  0.17207337  0.58197397  0.84417506  1
  O2-  O441  1  0.18097175  0.81182211  0.18576810  1
  O2-  O442  1  0.16345102  0.83187788  0.52403668  1
  O2-  O443  1  0.15937566  0.82179257  0.84609175  1
  O2-  O444  1  0.42728125  0.08345972  0.18624911  1
  O2-  O445  1  0.40015067  0.07648814  0.52409240  1
  O2-  O446  1  0.41161267  0.08402444  0.86460517  1
  O2-  O447  1  0.41970735  0.37773158  0.18757891  1
  O2-  O448  1  0.38827350  0.29604092  0.53450444  1
  O2-  O449  1  0.41195688  0.33310337  0.85295661  1
  O2-  O450  1  0.41511563  0.58061976  0.18668862  1
  O2-  O451  1  0.42788872  0.61186069  0.56218805  1
  O2-  O452  1  0.42163448  0.58097712  0.84774780  1
  O2-  O453  1  0.40189105  0.81954523  0.19699059  1
  O2-  O454  1  0.41223930  0.83576602  0.52455352  1
  O2-  O455  1  0.41782995  0.84856272  0.84936017  1
  O2-  O456  1  0.68658338  0.10158153  0.18512622  1
  O2-  O457  1  0.67233818  0.08290159  0.52973357  1
  O2-  O458  1  0.64841751  0.08395683  0.84328203  1
  O2-  O459  1  0.66073851  0.33616127  0.20371789  1
  O2-  O460  1  0.72146099  0.28824908  0.55182748  1
  O2-  O461  1  0.64973242  0.33361468  0.84436202  1
  O2-  O462  1  0.69321000  0.58722628  0.19271644  1
  O2-  O463  1  0.65314443  0.57732057  0.52038821  1
  O2-  O464  1  0.66005038  0.58840310  0.84131238  1
  O2-  O465  1  0.65654994  0.84402953  0.18873224  1
  O2-  O466  1  0.66664206  0.83541454  0.51802882  1
  O2-  O467  1  0.66852071  0.83715007  0.84860039  1
  O2-  O468  1  0.91387779  0.08416227  0.19508448  1
  O2-  O469  1  0.92120095  0.08122007  0.51063144  1
  O2-  O470  1  0.91920240  0.08084325  0.84378580  1
  O2-  O471  1  0.93107587  0.34119840  0.19283118  1
  O2-  O472  1  0.93611365  0.34002809  0.52427600  1
  O2-  O473  1  0.93282190  0.35437667  0.84874856  1
  O2-  O474  1  0.94776518  0.57693658  0.19173363  1
  O2-  O475  1  0.91651759  0.58675403  0.51730380  1
  O2-  O476  1  0.84529441  0.55598557  0.86860700  1
  O2-  O477  1  0.92861791  0.82570248  0.17138451  1
  O2-  O478  1  0.90434638  0.82575038  0.52140899  1
  O2-  O479  1  0.91076763  0.83058293  0.86366093  1
  O2-  O480  1  0.19023322  0.08134282  0.31753638  1
  O2-  O481  1  0.14847177  0.07502688  0.71987184  1
  O2-  O482  1  0.17559674  0.06549819  0.99440532  1
  O2-  O483  1  0.17973971  0.34606573  0.31940942  1
  O2-  O484  1  0.20502932  0.36729029  0.62281601  1
  O2-  O485  1  0.16887901  0.31985389  0.95535327  1
  O2-  O486  1  0.17358585  0.58493800  0.31612419  1
  O2-  O487  1  0.18685942  0.60059136  0.64016621  1
  O2-  O488  1  0.16859568  0.57366362  0.96716178  1
  O2-  O489  1  0.16618942  0.80473205  0.31468918  1
  O2-  O490  1  0.17346403  0.84934870  0.64480861  1
  O2-  O491  1  0.17660046  0.81754209  0.96274973  1
  O2-  O492  1  0.42552508  0.09751421  0.30763249  1
  O2-  O493  1  0.38968116  0.06412502  0.65294343  1
  O2-  O494  1  0.41524489  0.07708653  0.98746116  1
  O2-  O495  1  0.41168130  0.34398935  0.32069047  1
  O2-  O496  1  0.41512841  0.30945933  0.65696595  1
  O2-  O497  1  0.40872214  0.32185809  0.97797886  1
  O2-  O498  1  0.42303210  0.58844114  0.30428159  1
  O2-  O499  1  0.41194723  0.58076611  0.62617416  1
  O2-  O500  1  0.41445250  0.58023046  0.97355038  1
  O2-  O501  1  0.41783850  0.83338041  0.31138331  1
  O2-  O502  1  0.39916923  0.82719965  0.59162519  1
  O2-  O503  1  0.41371421  0.82610119  0.97359099  1
  O2-  O504  1  0.66787793  0.08868207  0.31000223  1
  O2-  O505  1  0.65222132  0.08403639  0.65574746  1
  O2-  O506  1  0.58710652  0.04715717  0.96041929  1
  O2-  O507  1  0.65765008  0.33952605  0.32682846  1
  O2-  O508  1  0.66853071  0.33025268  0.66068227  1
  O2-  O509  1  0.65415381  0.31631159  0.96853056  1
  O2-  O510  1  0.65925619  0.57302813  0.31769769  1
  O2-  O511  1  0.65967317  0.58123890  0.64359967  1
  O2-  O512  1  0.70897988  0.65734281  0.95878977  1
  O2-  O513  1  0.66880396  0.84023109  0.31421025  1
  O2-  O514  1  0.63654635  0.82387442  0.64058098  1
  O2-  O515  1  0.66985141  0.84087485  0.97681782  1
  O2-  O516  1  0.90728578  0.08696322  0.31633554  1
  O2-  O517  1  0.91660804  0.08333485  0.64031919  1
  O2-  O518  1  0.92801077  0.07891778  0.97652626  1
  O2-  O519  1  0.92078612  0.33605136  0.31749194  1
  O2-  O520  1  0.92945576  0.33836596  0.65286490  1
  O2-  O521  1  0.92191524  0.33780650  0.97007197  1
  O2-  O522  1  0.92548310  0.57792476  0.30495566  1
  O2-  O523  1  0.95816475  0.56601265  0.63244859  1
  O2-  O524  1  0.90682510  0.57397663  0.97505680  1
  O2-  O525  1  0.89372925  0.84103982  0.30317349  1
  O2-  O526  1  0.91994163  0.83680640  0.64194085  1
  O2-  O527  1  0.91466762  0.83224289  0.98635178  1
  O2-  O528  1  0.09338674  0.14543065  -0.04867586  1
  O2-  O529  1  0.09172868  0.17183498  0.32476840  1
  O2-  O530  1  0.06977185  0.16060189  0.68042004  1
  O2-  O531  1  0.08748641  0.40738031  0.01036463  1
  O2-  O532  1  0.08797628  0.42168990  0.35808929  1
  O2-  O533  1  0.11695411  0.43996740  0.67388278  1
  O2-  O534  1  0.08180784  0.65747005  0.00776219  1
  O2-  O535  1  0.07886513  0.65584725  0.36265451  1
  O2-  O536  1  0.10511252  0.67869114  0.68096526  1
  O2-  O537  1  0.07579483  0.90718677  0.04211219  1
  O2-  O538  1  0.10619974  0.90487825  0.35102684  1
  O2-  O539  1  0.06800221  0.90416218  0.69937447  1
  O2-  O540  1  0.33746272  0.16512214  0.02834850  1
  O2-  O541  1  0.35546003  0.18900912  0.35170779  1
  O2-  O542  1  0.33205754  0.14956139  0.70437163  1
  O2-  O543  1  0.33095438  0.40630082  0.00792528  1
  O2-  O544  1  0.34568552  0.43300225  0.34907518  1
  O2-  O545  1  0.35580082  0.41798113  0.67780911  1
  O2-  O546  1  0.33021778  0.66262634  0.01666711  1
  O2-  O547  1  0.34084358  0.67003117  0.35701927  1
  O2-  O548  1  0.34999695  0.66954169  0.66948457  1
  O2-  O549  1  0.33925045  0.90907779  0.02805066  1
  O2-  O550  1  0.38081615  0.94140004  0.35871955  1
  O2-  O551  1  0.34833745  0.97541438  0.67747789  1
  O2-  O552  1  0.58111399  0.16575161  0.02543927  1
  O2-  O553  1  0.58665041  0.17056528  0.35484318  1
  O2-  O554  1  0.56723304  0.15894785  0.68855896  1
  O2-  O555  1  0.55719841  0.35526357  0.03260421  1
  O2-  O556  1  0.56477368  0.41343903  0.36166448  1
  O2-  O557  1  0.58527444  0.41616109  0.68901217  1
  O2-  O558  1  0.58545681  0.67633649  0.01061376  1
  O2-  O559  1  0.59153395  0.67231248  0.34679167  1
  O2-  O560  1  0.56954079  0.65721981  0.67977464  1
  O2-  O561  1  0.57600240  0.90718327  0.01896512  1
  O2-  O562  1  0.58509684  0.92345950  0.35551026  1
  O2-  O563  1  0.57360818  0.91055593  0.68386848  1
  O2-  O564  1  0.86327171  0.18460855  0.02252633  1
  O2-  O565  1  0.82818123  0.17106730  0.35957339  1
  O2-  O566  1  0.90775401  0.19921797  0.70816796  1
  O2-  O567  1  0.82582619  0.41306790  -0.00277506  1
  O2-  O568  1  0.82920376  0.41206475  0.35014271  1
  O2-  O569  1  0.83375695  0.41782949  0.69060158  1
  O2-  O570  1  0.84278644  0.66981305  0.02819566  1
  O2-  O571  1  0.82158481  0.68939368  0.35965121  1
  O2-  O572  1  0.83370550  0.67589382  0.67897980  1
  O2-  O573  1  0.83509234  0.92024778  0.02435728  1
  O2-  O574  1  0.83250906  0.92874823  0.35405581  1
  O2-  O575  1  0.84879142  0.91891646  0.68711129  1
