# generated using pymatgen
data_H2O
_symmetry_space_group_name_H-M   'P 1'
_cell_length_a   18.00317048
_cell_length_b   17.99880980
_cell_length_c   22.01305873
_cell_angle_alpha   89.98617186
_cell_angle_beta   90.00182964
_cell_angle_gamma   120.00803030
_symmetry_Int_Tables_number   1
_chemical_formula_structural   H2O
_chemical_formula_sum   'H384 O192'
_cell_volume   6176.87257851
_cell_formula_units_Z   192
loop_
 _symmetry_equiv_pos_site_id
 _symmetry_equiv_pos_as_xyz
  1  'x, y, z'
loop_
 _atom_type_symbol
 _atom_type_oxidation_number
  H+  1.0
  O2-  -2.0
loop_
 _atom_site_type_symbol
 _atom_site_label
 _atom_site_symmetry_multiplicity
 _atom_site_fract_x
 _atom_site_fract_y
 _atom_site_fract_z
 _atom_site_occupancy
  H+  H0  1  0.10060294  0.08928888  0.49109848  1
  H+  H1  1  0.62871116  0.75940788  0.83311088  1
  H+  H2  1  0.17026648  0.02136270  0.98033407  1
  H+  H3  1  0.28391088  0.62932886  0.16225384  1
  H+  H4  1  0.04516712  0.88406214  0.15407223  1
  H+  H5  1  0.24177481  0.61826756  0.32113363  1
  H+  H6  1  0.71815502  0.86386731  0.32606791  1
  H+  H7  1  0.84484917  0.97614660  0.36570851  1
  H+  H8  1  0.73238254  0.11742459  0.81135869  1
  H+  H9  1  0.86296043  0.86059341  0.34186159  1
  H+  H10  1  0.38847675  0.36398533  0.50964510  1
  H+  H11  1  0.69014935  0.33329016  0.74537124  1
  H+  H12  1  0.53943638  0.89165816  0.99168504  1
  H+  H13  1  0.08970745  0.09743824  0.98771362  1
  H+  H14  1  0.13892113  1.03045801  0.16038203  1
  H+  H15  1  0.35513228  0.22160755  0.33586400  1
  H+  H16  1  0.65956317  0.58485892  0.90170116  1
  H+  H17  1  0.61301894  0.72916086  0.33368458  1
  H+  H18  1  0.62852779  0.27050141  0.32858700  1
  H+  H19  1  0.39126875  0.85752441  0.16053221  1
  H+  H20  1  0.66694213  0.84775715  0.22608743  1
  H+  H21  1  0.75355568  0.65085340  0.13601964  1
  H+  H22  1  0.85981467  0.88040901  0.18030324  1
  H+  H23  1  0.88921742  0.28052320  0.83756898  1
  H+  H24  1  0.61562460  0.14376262  0.49104147  1
  H+  H25  1  0.52799534  0.63855103  0.83531134  1
  H+  H26  1  0.03157048  0.63178104  0.67401607  1
  H+  H27  1  0.54771307  0.88221257  0.06130601  1
  H+  H28  1  0.09012550  0.42796737  0.42218960  1
  H+  H29  1  0.37931216  1.02002684  0.83806348  1
  H+  H30  1  0.28152049  0.39682373  0.49308300  1
  H+  H31  1  0.60573066  0.47846563  0.83465922  1
  H+  H32  1  0.13220806  0.29734523  1.05575993  1
  H+  H33  1  0.25343525  0.57430989  0.98961672  1
  H+  H34  1  0.34668632  0.67972550  0.38995427  1
  H+  H35  1  0.37334891  1.03708627  0.66357641  1
  H+  H36  1  0.86995739  0.38348465  0.01512295  1
  H+  H37  1  0.87454540  0.36993768  0.33052607  1
  H+  H38  1  0.79600587  0.90516867  0.00398912  1
  H+  H39  1  -0.01385817  0.61827586  -0.02080647  1
  H+  H40  1  0.60459317  0.88562719  0.49541879  1
  H+  H41  1  0.39535355  0.03718516  0.51821385  1
  H+  H42  1  0.51516746  0.37446493  0.65031485  1
  H+  H43  1  0.63696254  0.57435793  0.24445752  1
  H+  H44  1  0.46852948  0.10704870  0.84276361  1
  H+  H45  1  0.37340191  0.64401469  0.33143828  1
  H+  H46  1  0.12359653  0.63309221  0.83363769  1
  H+  H47  1  0.95067655  0.07024438  0.90906550  1
  H+  H48  1  0.84502945  0.13222501  0.46821199  1
  H+  H49  1  0.38319664  0.85710700  0.66066177  1
  H+  H50  1  0.11699237  0.84825342  0.50122571  1
  H+  H51  1  0.67599351  0.33688202  0.60704416  1
  H+  H52  1  0.89061270  0.35714320  0.66259688  1
  H+  H53  1  0.36252497  0.64243417  0.82832868  1
  H+  H54  1  0.83593996  0.61820440  0.18436021  1
  H+  H55  1  0.12372805  0.47902664  0.00655192  1
  H+  H56  1  0.38826241  0.53152133  0.50650824  1
  H+  H57  1  0.12436762  0.47633784  0.51808275  1
  H+  H58  1  0.36278573  0.48541938  0.34056349  1
  H+  H59  1  0.37107486  0.72100710  0.15590232  1
  H+  H60  1  0.43508470  0.34538005  0.60994545  1
  H+  H61  1  0.88128319  0.52420476  0.35664214  1
  H+  H62  1  0.87624288  0.34551706  0.17807975  1
  H+  H63  1  0.36129791  0.13681483  0.83068852  1
  H+  H64  1  0.14396440  0.59549470  0.32858262  1
  H+  H65  1  0.23420012  0.11908638  -0.00994545  1
  H+  H66  1  0.88116189  0.64774967  0.89718248  1
  H+  H67  1  0.46067696  0.12690163  0.66795711  1
  H+  H68  1  0.63478123  0.00337380  0.14679551  1
  H+  H69  1  0.11752664  0.69921257  0.33844976  1
  H+  H70  1  0.84920719  0.59412110  0.82124592  1
  H+  H71  1  0.13381538  0.28113141  0.27298750  1
  H+  H72  1  0.16464954  0.39796830  0.52430855  1
  H+  H73  1  0.36435303  0.73461423  0.48283803  1
  H+  H74  1  0.76470551  0.88222766  0.50177601  1
  H+  H75  1  0.80782936  0.75005210  0.15001939  1
  H+  H76  1  0.27301777  0.39137540  0.83900481  1
  H+  H77  1  0.16313011  0.08635614  0.22120556  1
  H+  H78  1  0.39985394  0.77268894  0.31299523  1
  H+  H79  1  0.79019479  0.39691988  0.67111694  1
  H+  H80  1  0.75035020  0.31965990  0.16122299  1
  H+  H81  1  0.63651283  0.54268223  0.99711833  1
  H+  H82  1  0.94971608  0.10605229  0.70951141  1
  H+  H83  1  0.59645713  0.47292832  0.16848387  1
  H+  H84  1  0.61273395  -0.02324536  0.34047710  1
  H+  H85  1  0.85916949  0.99898356  0.14335702  1
  H+  H86  1  0.47163985  0.36672555  0.84962994  1
  H+  H87  1  0.79031971  0.39896202  1.02674134  1
  H+  H88  1  0.60050612  0.38119228  0.34100050  1
  H+  H89  1  0.59085792  0.64042586  -0.00084706  1
  H+  H90  1  0.47303804  0.11029969  0.32934242  1
  H+  H91  1  0.86840633  0.09138401  0.67313858  1
  H+  H92  1  0.26777260  0.42518734  0.68796444  1
  H+  H93  1  0.89035883  0.17336222  0.06775133  1
  H+  H94  1  0.85471347  0.14348722  0.76583486  1
  H+  H95  1  0.87434685  0.81868733  0.82779901  1
  H+  H96  1  0.10119461  0.14174573  0.15282681  1
  H+  H97  1  0.85551262  0.60086894  0.16234376  1
  H+  H98  1  0.08851630  0.95613978  0.67379045  1
  H+  H99  1  0.61405011  0.26524592  0.17472371  1
  H+  H100  1  0.72207733  0.85169632  0.84837564  1
  H+  H101  1  0.27443263  0.88589229  0.82019502  1
  H+  H102  1  0.13021345  0.33078183  0.64761867  1
  H+  H103  1  0.13937390  0.16363653  0.31615523  1
  H+  H104  1  0.82921150  0.20697547  0.74105361  1
  H+  H105  1  0.85761625  0.94790853  0.85444631  1
  H+  H106  1  0.10606960  0.72867252  -0.00730451  1
  H+  H107  1  0.89508189  0.28084364  0.99819615  1
  H+  H108  1  0.64639923  0.75794077  0.66013057  1
  H+  H109  1  0.13642299  0.38911172  0.31882643  1
  H+  H110  1  0.13898294  0.27167783  0.84327549  1
  H+  H111  1  0.58055456  0.67189086  0.43014038  1
  H+  H112  1  0.62722952  0.51723157  0.33392978  1
  H+  H113  1  0.34728960  -0.03243175  1.00702192  1
  H+  H114  1  0.12098872  0.36576913  0.17279319  1
  H+  H115  1  0.95703933  0.11950175  0.44678195  1
  H+  H116  1  0.63676743  0.79318395  0.16426837  1
  H+  H117  1  0.37194140  0.97693296  0.33152198  1
  H+  H118  1  0.86894271  0.16057711  0.33447400  1
  H+  H119  1  0.10866465  0.38922132  0.83637784  1
  H+  H120  1  0.35955299  0.22536353  0.83333664  1
  H+  H121  1  0.98208554  0.38542638  0.18134821  1
  H+  H122  1  0.10973510  0.71955726  0.48965177  1
  H+  H123  1  0.86049075  0.47532302  0.49443534  1
  H+  H124  1  0.38557808  0.53676450  0.66216188  1
  H+  H125  1  0.85924083  0.38494566  0.49539531  1
  H+  H126  1  0.66119243  0.38386792  0.66453187  1
  H+  H127  1  0.61947474  -0.03272175  0.81885818  1
  H+  H128  1  0.45976450  0.11088919  -0.00511289  1
  H+  H129  1  0.87832760  0.27005973  0.49964996  1
  H+  H130  1  0.60090939  0.14979106  0.00938457  1
  H+  H131  1  0.38219333  0.36711886  0.85029509  1
  H+  H132  1  0.40903646  0.80187861  0.01495752  1
  H+  H133  1  0.60165063  0.23455059  0.67649395  1
  H+  H134  1  0.51253442  0.63591037  0.67081024  1
  H+  H135  1  0.84918346  0.19618495  0.63498519  1
  H+  H136  1  0.81901996  0.71705419  0.05344474  1
  H+  H137  1  0.52474907  0.88056506  0.82358483  1
  H+  H138  1  0.39299532  0.77892141  0.83048336  1
  H+  H139  1  0.60094201  0.85290175  0.67032739  1
  H+  H140  1  0.47114057  0.35468102  0.50731321  1
  H+  H141  1  0.22548633  0.10853600  0.83330718  1
  H+  H142  1  0.31049088  0.73286407  1.01270155  1
  H+  H143  1  0.62512441  0.36050139  0.17398733  1
  H+  H144  1  0.36201413  0.14390141  0.00501992  1
  H+  H145  1  0.11566733  0.70952370  0.14851977  1
  H+  H146  1  0.37343080  0.36034499  0.33084472  1
  H+  H147  1  0.96822930  0.85689361  0.50289196  1
  H+  H148  1  0.33057130  0.86959475  0.01423236  1
  H+  H149  1  0.09723480  0.17982917  0.46041352  1
  H+  H150  1  0.76354914  0.38084313  0.34472307  1
  H+  H151  1  0.36065891  0.47963495  0.84219896  1
  H+  H152  1  0.52910593  0.14659544  0.49776063  1
  H+  H153  1  -0.03338446  0.83208685  0.81387284  1
  H+  H154  1  0.86288973  0.81382968  0.65739869  1
  H+  H155  1  0.07247693  0.41053558  0.69083161  1
  H+  H156  1  0.37573371  0.10871048  0.17467634  1
  H+  H157  1  0.63958862  0.50142492  0.67740399  1
  H+  H158  1  0.15136778  0.83140519  0.59894570  1
  H+  H159  1  0.88139730  0.02628671  0.46828240  1
  H+  H160  1  1.00761122  0.18927926  0.28917922  1
  H+  H161  1  0.91297201  0.49533620  0.09918663  1
  H+  H162  1  0.66124128  0.08614816  0.26950421  1
  H+  H163  1  0.88622984  0.92305850  0.70485795  1
  H+  H164  1  0.63031890  0.86304992  0.32317920  1
  H+  H165  1  0.61106702  0.21759135  0.82290093  1
  H+  H166  1  0.86970372  0.69983047  0.68261741  1
  H+  H167  1  0.26669526  0.38756593  0.17068086  1
  H+  H168  1  0.72652351  0.13868571  0.17818160  1
  H+  H169  1  0.08002530  0.18355922  0.67550171  1
  H+  H170  1  0.50504759  0.12689978  0.16839370  1
  H+  H171  1  0.60033643  0.38802754  0.83478931  1
  H+  H172  1  0.41191776  0.07978451  0.26968838  1
  H+  H173  1  0.60751550  0.13655343  0.34250828  1
  H+  H174  1  0.55387289  0.55355566  0.20868488  1
  H+  H175  1  0.93967896  0.48486828  0.16463267  1
  H+  H176  1  0.70561673  -0.05776434  0.98765968  1
  H+  H177  1  0.61489544  0.63381400  0.82734750  1
  H+  H178  1  0.85821000  0.63472755  0.35585386  1
  H+  H179  1  0.66556826  0.34288261  1.08397734  1
  H+  H180  1  0.51245516  0.38195496  0.16408289  1
  H+  H181  1  0.14213184  0.85259897  0.16819921  1
  H+  H182  1  0.17267652  0.48381066  0.33911364  1
  H+  H183  1  0.63230615  0.37404313  1.02915450  1
  H+  H184  1  0.85340404  0.71930348  0.49621858  1
  H+  H185  1  0.33549811  0.13649173  0.67548477  1
  H+  H186  1  0.23540507  0.85169283  0.32476428  1
  H+  H187  1  0.03361682  0.13411259  0.83261354  1
  H+  H188  1  0.52356693  0.65364213  0.15381284  1
  H+  H189  1  0.73441841  0.84830671  0.66545914  1
  H+  H190  1  0.47050889  0.87227456  0.50436868  1
  H+  H191  1  0.47984902  0.61553199  0.32434364  1
  H+  H192  1  0.37957759  0.27093636  -0.00371314  1
  H+  H193  1  0.03930889  0.61215135  0.13313628  1
  H+  H194  1  0.35570753  0.89332139  0.49971257  1
  H+  H195  1  0.11266822  0.87870756  0.82444114  1
  H+  H196  1  0.91511926  0.32817977  0.55907205  1
  H+  H197  1  0.79573484  0.60531527  0.70017083  1
  H+  H198  1  0.61503114  0.66307192  0.14821045  1
  H+  H199  1  0.80825938  0.33788407  0.10332880  1
  H+  H200  1  0.40224152  0.07924448  0.93468853  1
  H+  H201  1  0.60837337  0.63742549  0.48793151  1
  H+  H202  1  0.20984738  0.85983624  0.51109537  1
  H+  H203  1  0.10358249  0.23086098  0.16156657  1
  H+  H204  1  0.09759642  0.26581413  0.45879145  1
  H+  H205  1  0.47614999  0.62042532  0.50510030  1
  H+  H206  1  0.46334975  0.36179725  0.33295443  1
  H+  H207  1  0.64432023  0.91989076  0.14343158  1
  H+  H208  1  0.72544909  0.60312589  0.84792384  1
  H+  H209  1  0.57773122  0.91477469  0.43449034  1
  H+  H210  1  0.36833683  0.64853024  0.48448894  1
  H+  H211  1  0.08226861  0.89307400  0.32057325  1
  H+  H212  1  0.76012306  0.13681842  0.48690165  1
  H+  H213  1  0.74394896  0.30383849  0.78219646  1
  H+  H214  1  0.39874053  0.86976401  0.82837039  1
  H+  H215  1  1.02385328  0.63061268  0.48620530  1
  H+  H216  1  0.97401814  0.60744756  0.35633658  1
  H+  H217  1  0.88615484  0.48220790  0.83218617  1
  H+  H218  1  0.88271661  0.60898537  0.50590559  1
  H+  H219  1  0.21272177  0.86799902  0.99266510  1
  H+  H220  1  0.63132845  0.77321964  0.50340533  1
  H+  H221  1  0.71664875  0.60814780  0.50332267  1
  H+  H222  1  0.60753195  0.47019080  0.49278760  1
  H+  H223  1  0.12738912  1.03178038  0.31803431  1
  H+  H224  1  0.20256269  0.08940681  0.66902455  1
  H+  H225  1  0.60858579  0.12841298  0.82215712  1
  H+  H226  1  0.65881345  0.08900654  0.56220077  1
  H+  H227  1  0.72261730  0.11722706  0.32677796  1
  H+  H228  1  0.13941020  0.52728455  0.84936268  1
  H+  H229  1  0.22940137  0.61622262  0.84204832  1
  H+  H230  1  0.71702380  0.63858219  0.98765207  1
  H+  H231  1  0.03575029  0.63547173  0.83323579  1
  H+  H232  1  0.09980466  0.38024482  0.00785227  1
  H+  H233  1  0.96234117  0.83793164  0.66338722  1
  H+  H234  1  0.91097152  0.33196531  0.90062780  1
  H+  H235  1  0.63840270  0.27557553  0.51317478  1
  H+  H236  1  0.86961209  0.69672031  0.82485822  1
  H+  H237  1  0.22516535  0.11100073  0.31748912  1
  H+  H238  1  0.91889151  0.35772612  0.26243995  1
  H+  H239  1  0.61968778  0.12473709  0.65308366  1
  H+  H240  1  0.87847546  0.27970447  0.32201874  1
  H+  H241  1  0.99574279  0.89059910  0.33549186  1
  H+  H242  1  0.13126815  0.53446645  0.67734861  1
  H+  H243  1  0.04436389  0.94711540  0.00482353  1
  H+  H244  1  0.35694780  0.72519898  0.67293185  1
  H+  H245  1  0.59816339  0.23400069  0.02630419  1
  H+  H246  1  0.62878682  1.02303628  0.50512381  1
  H+  H247  1  0.85973301  0.83492570  0.00039809  1
  H+  H248  1  0.52393831  0.40480146  0.01096434  1
  H+  H249  1  0.92687600  0.84911876  0.19046858  1
  H+  H250  1  0.79336307  0.43976325  0.80663116  1
  H+  H251  1  0.62872622  0.85730484  0.83370805  1
  H+  H252  1  0.39576852  0.52828893  0.17240884  1
  H+  H253  1  0.39886049  0.86003786  0.30310855  1
  H+  H254  1  0.34396001  0.22254666  0.49294653  1
  H+  H255  1  1.01098132  0.39808845  0.46828427  1
  H+  H256  1  0.93696729  0.02180624  1.00389943  1
  H+  H257  1  0.11524158  0.95700010  0.49478526  1
  H+  H258  1  0.14398924  0.82886087  0.34808901  1
  H+  H259  1  0.12548822  0.86020000  0.66037669  1
  H+  H260  1  0.11976218  0.86037220  0.98404295  1
  H+  H261  1  0.13595688  0.12907136  0.50628420  1
  H+  H262  1  0.52618858  0.88627826  0.33423294  1
  H+  H263  1  0.84872445  0.71971813  0.34672390  1
  H+  H264  1  0.36201831  0.63903598  0.67127353  1
  H+  H265  1  0.34449321  0.93108593  0.61985488  1
  H+  H266  1  0.39349403  0.61698842  0.17235958  1
  H+  H267  1  0.89873388  0.09375861  0.86358220  1
  H+  H268  1  0.26949511  0.14121908  0.15403832  1
  H+  H269  1  0.68384587  0.00653985  1.06051273  1
  H+  H270  1  0.36744191  0.36061586  -0.00162205  1
  H+  H271  1  0.71818027  0.16206917  0.64470140  1
  H+  H272  1  0.14426193  0.77244823  0.83710196  1
  H+  H273  1  0.85450985  0.88029741  0.50065595  1
  H+  H274  1  0.23480580  0.07786585  0.51257873  1
  H+  H275  1  0.91001930  0.61020778  0.66316777  1
  H+  H276  1  0.94844063  0.09203728  0.29375103  1
  H+  H277  1  0.71906046  0.60519666  0.33147423  1
  H+  H278  1  0.01890176  0.38958343  0.84107327  1
  H+  H279  1  0.35786256  0.13325861  0.33767113  1
  H+  H280  1  0.46293448  0.68451177  0.89279802  1
  H+  H281  1  0.72682382  0.36468021  0.51361195  1
  H+  H282  1  0.80849987  0.13578528  1.02748089  1
  H+  H283  1  -0.01608267  0.84889357  0.00581078  1
  H+  H284  1  0.37851268  0.35834560  0.17891474  1
  H+  H285  1  0.84437352  0.97908177  0.71519325  1
  H+  H286  1  0.25762643  0.36068620  0.01438837  1
  H+  H287  1  0.88212515  0.66934369  -0.02489560  1
  H+  H288  1  0.33417361  0.17596852  0.06571150  1
  H+  H289  1  0.66999377  0.04588934  0.99993360  1
  H+  H290  1  0.16025927  0.32634656  0.90379437  1
  H+  H291  1  0.61317174  0.63930377  0.33926687  1
  H+  H292  1  0.45527608  0.59152738  0.99918807  1
  H+  H293  1  0.17531254  0.03844705  0.57144453  1
  H+  H294  1  0.09097782  0.65124193  0.40309004  1
  H+  H295  1  0.66019201  0.33111213  0.26990132  1
  H+  H296  1  0.16632287  0.53046685  0.57982624  1
  H+  H297  1  0.06192923  0.89666840  0.73388439  1
  H+  H298  1  0.06924296  0.44479308  0.75471118  1
  H+  H299  1  0.26688594  0.41800850  0.35528000  1
  H+  H300  1  0.12306988  0.13721890  0.82697496  1
  H+  H301  1  0.42532861  0.10161795  0.57355466  1
  H+  H302  1  0.12849289  0.63297300  0.67479976  1
  H+  H303  1  0.22904631  0.61658839  0.66678756  1
  H+  H304  1  0.92463384  0.58558689  0.56175244  1
  H+  H305  1  0.18722083  0.58076777  0.94339579  1
  H+  H306  1  0.43185773  0.83159789  0.21377932  1
  H+  H307  1  0.41747594  0.59087379  0.91416884  1
  H+  H308  1  0.57095756  0.65627232  0.73230130  1
  H+  H309  1  0.57556175  0.43352441  0.07342041  1
  H+  H310  1  0.34380460  0.45680766  0.00843810  1
  H+  H311  1  0.16033936  0.81777578  0.23012493  1
  H+  H312  1  0.31958060  0.93675182  0.45245749  1
  H+  H313  1  0.66410337  0.82685719  0.56503398  1
  H+  H314  1  0.32520965  0.91813272  0.10285758  1
  H+  H315  1  0.57697308  0.88770304  0.72893909  1
  H+  H316  1  0.82066631  0.65800584  0.43839435  1
  H+  H317  1  0.97280192  0.13594797  0.13764852  1
  H+  H318  1  0.41000057  0.83607241  0.56288662  1
  H+  H319  1  0.88596663  0.12478608  0.58720625  1
  H+  H320  1  0.06963487  0.91375619  0.42978474  1
  H+  H321  1  0.61217602  0.38359943  0.49812078  1
  H+  H322  1  0.36600905  0.90413643  0.37755756  1
  H+  H323  1  0.87771409  0.82854180  0.27853904  1
  H+  H324  1  0.57375188  0.40847637  0.40254228  1
  H+  H325  1  0.63159677  0.12318600  0.17636486  1
  H+  H326  1  0.91384423  0.52519217  0.65248941  1
  H+  H327  1  0.40899585  0.33598730  0.93233886  1
  H+  H328  1  0.33249185  0.92146010  0.76100346  1
  H+  H329  1  0.25798668  0.88796348  0.65692137  1
  H+  H330  1  0.17296067  0.57664409  0.23011471  1
  H+  H331  1  0.08753754  0.66314712  0.04719306  1
  H+  H332  1  0.81283109  0.90445995  0.41421093  1
  H+  H333  1  0.37464724  1.01806870  0.17533682  1
  H+  H334  1  0.64754368  0.33301175  0.89672568  1
  H+  H335  1  0.10590209  0.96441022  0.82455948  1
  H+  H336  1  0.82385197  0.89833861  0.79266519  1
  H+  H337  1  0.07665140  0.41614303  0.10031534  1
  H+  H338  1  0.69129683  0.09059075  0.87639979  1
  H+  H339  1  0.89542290  0.08829079  0.58523618  1
  H+  H340  1  0.40912084  0.32928096  0.23776036  1
  H+  H341  1  0.07421240  0.15012447  0.74362722  1
  H+  H342  1  0.31988113  0.40592120  0.10946380  1
  H+  H343  1  0.82773266  0.18071277  0.39319294  1
  H+  H344  1  0.34107735  0.42790594  0.43544126  1
  H+  H345  1  0.97778100  0.37232697  0.99132000  1
  H+  H346  1  0.71544573  0.64127818  0.64059553  1
  H+  H347  1  0.16436980  0.31608154  0.54840455  1
  H+  H348  1  0.77040725  0.90805770  0.15485639  1
  H+  H349  1  0.36035710  0.22743717  0.16055583  1
  H+  H350  1  0.60554681  0.43905018  0.73580400  1
  H+  H351  1  0.16032325  0.42129895  0.61640572  1
  H+  H352  1  0.68359752  0.37808388  0.90269485  1
  H+  H353  1  0.16717483  0.07836282  0.89177223  1
  H+  H354  1  0.08886498  0.65744964  0.73974349  1
  H+  H355  1  0.84451550  0.91920471  0.06710131  1
  H+  H356  1  0.91178221  0.81944275  0.56360675  1
  H+  H357  1  0.64989431  0.57891477  0.55828263  1
  H+  H358  1  0.90137040  0.13997125  0.21483100  1
  H+  H359  1  0.56212206  0.67363263  0.05629225  1
  H+  H360  1  0.27412071  0.88051238  0.16420285  1
  H+  H361  1  0.11258847  0.23402657  1.00375742  1
  H+  H362  1  0.14940386  0.60759738  0.16668050  1
  H+  H363  1  0.33085031  0.66449417  0.76566284  1
  H+  H364  1  0.57906923  0.16943024  0.40144151  1
  H+  H365  1  0.42230328  0.58470496  0.26375700  1
  H+  H366  1  0.11068602  0.21203576  0.36524366  1
  H+  H367  1  0.10970174  0.07955285  0.65858791  1
  H+  H368  1  0.41695884  0.59255425  0.59880035  1
  H+  H369  1  0.65117766  0.84247167  0.99386197  1
  H+  H370  1  0.30489480  0.15722650  0.73682867  1
  H+  H371  1  0.85623902  0.44412739  0.72605564  1
  H+  H372  1  0.33488913  0.43954573  0.73987280  1
  H+  H373  1  0.56868615  0.16841412  0.73314049  1
  H+  H374  1  0.46916443  0.84885860  0.66007327  1
  H+  H375  1  0.93407914  0.56930101  0.24904337  1
  H+  H376  1  0.62002412  0.61481348  0.65686409  1
  H+  H377  1  0.96137950  0.61713162  0.24635801  1
  H+  H378  1  0.31389193  0.16548518  0.43247574  1
  H+  H379  1  0.08254415  0.90839422  0.08919656  1
  H+  H380  1  0.56226374  0.15674515  0.10791368  1
  H+  H381  1  0.16954783  0.83578178  0.89398318  1
  H+  H382  1  0.82243257  0.40552079  0.40573958  1
  H+  H383  1  0.11546934  0.47662042  0.15987461  1
  O2-  O384  1  0.07376851  0.17504350  0.13992410  1
  O2-  O385  1  0.07136257  0.20887283  0.43858124  1
  O2-  O386  1  0.09198735  0.16889592  0.81443954  1
  O2-  O387  1  0.07787159  0.41467670  0.14588476  1
  O2-  O388  1  0.06778808  0.44591552  0.45660277  1
  O2-  O389  1  0.08113689  0.42377126  0.82781622  1
  O2-  O390  1  0.10185633  0.65604936  0.12687708  1
  O2-  O391  1  0.08462945  0.66040629  0.47318087  1
  O2-  O392  1  0.09225381  0.66248160  0.81434216  1
  O2-  O393  1  0.09963785  0.91724040  0.13309882  1
  O2-  O394  1  0.06707049  0.90299733  0.47384691  1
  O2-  O395  1  0.07657093  0.90366683  0.81091072  1
  O2-  O396  1  0.33119514  0.16935055  0.14091432  1
  O2-  O397  1  0.29972614  0.16693797  0.47547231  1
  O2-  O398  1  0.32915225  0.16608288  0.81748515  1
  O2-  O399  1  0.32538007  0.41107426  0.15413140  1
  O2-  O400  1  0.34265271  0.42721046  0.48103753  1
  O2-  O401  1  0.33477977  0.42136722  0.82621276  1
  O2-  O402  1  0.34465673  0.65764948  0.14909294  1
  O2-  O403  1  0.34176185  0.67805624  0.46324013  1
  O2-  O404  1  0.32966791  0.66803196  0.81131607  1
  O2-  O405  1  0.33279107  0.91929339  0.14800450  1
  O2-  O406  1  0.32156398  0.92398230  0.49516624  1
  O2-  O407  1  0.33538492  0.92028550  0.80540243  1
  O2-  O408  1  0.56597296  0.16006402  0.15289984  1
  O2-  O409  1  0.58805985  0.17763865  0.47806873  1
  O2-  O410  1  0.57388506  0.15644282  0.81346888  1
  O2-  O411  1  0.57323218  0.41539681  0.14870399  1
  O2-  O412  1  0.57956535  0.40908074  0.47922744  1
  O2-  O413  1  0.57098570  0.41750155  0.81933630  1
  O2-  O414  1  0.58229132  0.69054437  0.13524809  1
  O2-  O415  1  0.58079436  0.67160484  0.47563701  1
  O2-  O416  1  0.58361000  0.66359424  0.81274156  1
  O2-  O417  1  0.63034861  0.95792375  0.11876862  1
  O2-  O418  1  0.57526604  0.91647009  0.47984575  1
  O2-  O419  1  0.58834848  0.90472965  0.81087155  1
  O2-  O420  1  0.87441986  0.14320690  0.17619415  1
  O2-  O421  1  0.81938901  0.17040881  0.46881737  1
  O2-  O422  1  0.82970751  0.17868970  0.77965540  1
  O2-  O423  1  0.78969576  0.30351688  0.14195720  1
  O2-  O424  1  0.82676481  0.41351360  0.48121149  1
  O2-  O425  1  0.85076912  0.49194481  0.80314411  1
  O2-  O426  1  0.77425006  0.70725482  0.11786644  1
  O2-  O427  1  0.82172761  0.65748420  0.48403067  1
  O2-  O428  1  0.84191190  0.63663613  0.84545706  1
  O2-  O429  1  0.83218930  0.93483489  0.14143159  1
  O2-  O430  1  0.82517856  0.91158655  0.48563888  1
  O2-  O431  1  0.81930597  0.88967858  0.83767931  1
  O2-  O432  1  0.16363335  0.08977662  0.17563964  1
  O2-  O433  1  0.19219543  0.02283720  0.53302645  1
  O2-  O434  1  0.16358027  0.07765594  0.84674003  1
  O2-  O435  1  0.15026255  0.33414323  0.19183918  1
  O2-  O436  1  0.16883247  0.34715626  0.51108104  1
  O2-  O437  1  0.16655291  0.33183689  0.85966584  1
  O2-  O438  1  0.17352435  0.57303250  0.18468239  1
  O2-  O439  1  0.16108446  0.48239445  0.55502879  1
  O2-  O440  1  0.17087241  0.58957142  0.86080412  1
  O2-  O441  1  0.16598016  0.81820551  0.18545181  1
  O2-  O442  1  0.14819790  0.82140517  0.52034728  1
  O2-  O443  1  0.17269787  0.83418384  0.84845750  1
  O2-  O444  1  0.40449548  0.07850477  0.19216996  1
  O2-  O445  1  0.43747872  0.09604965  0.53029211  1
  O2-  O446  1  0.40787123  0.07889475  0.85663458  1
  O2-  O447  1  0.41078064  0.32924634  0.19209005  1
  O2-  O448  1  0.41190441  0.32743002  0.52385948  1
  O2-  O449  1  0.41166031  0.33623352  0.86691831  1
  O2-  O450  1  0.42895048  0.58829097  0.18676166  1
  O2-  O451  1  0.41661076  0.59208221  0.52179116  1
  O2-  O452  1  0.43981803  0.62688702  0.87578149  1
  O2-  O453  1  0.42300294  0.82715690  0.16921904  1
  O2-  O454  1  0.40921171  0.84405766  0.51806833  1
  O2-  O455  1  0.43018067  0.84041946  0.84136696  1
  O2-  O456  1  0.66745087  0.09784703  0.19009638  1
  O2-  O457  1  0.66110499  0.08500713  0.51671138  1
  O2-  O458  1  0.67591932  0.08379409  0.83342652  1
  O2-  O459  1  0.65449667  0.32731252  0.18381432  1
  O2-  O460  1  0.66767777  0.33467118  0.53166499  1
  O2-  O461  1  0.70789037  0.32986792  0.78707845  1
  O2-  O462  1  0.61302178  0.56732074  0.20172747  1
  O2-  O463  1  0.65356456  0.57800465  0.51327200  1
  O2-  O464  1  0.66363358  0.58062525  0.85600588  1
  O2-  O465  1  0.67100821  0.85285012  0.18081643  1
  O2-  O466  1  0.66085009  0.83319201  0.52035327  1
  O2-  O467  1  0.65588566  0.82080527  0.85004526  1
  O2-  O468  1  0.90743739  0.10621247  0.13105069  1
  O2-  O469  1  0.89486776  0.07808834  0.44421540  1
  O2-  O470  1  0.93272972  0.06527458  0.86490609  1
  O2-  O471  1  0.93120566  0.38202045  0.20265294  1
  O2-  O472  1  0.91151562  0.33077701  0.51438355  1
  O2-  O473  1  0.91576231  0.33831057  0.85521231  1
  O2-  O474  1  0.94145999  0.52797751  0.13625018  1
  O2-  O475  1  0.91458363  0.57889946  0.51727223  1
  O2-  O476  1  0.91764404  0.66242997  0.94205736  1
  O2-  O477  1  0.86817162  0.83348976  0.20009715  1
  O2-  O478  1  0.90771153  0.82605425  0.51919821  1
  O2-  O479  1  0.90405128  0.79172157  0.80815536  1
  O2-  O480  1  0.16633048  0.08806306  0.29895186  1
  O2-  O481  1  0.14315494  0.05163893  0.64911352  1
  O2-  O482  1  0.17701924  0.07755715  0.97155251  1
  O2-  O483  1  0.11208401  0.31739472  0.25313062  1
  O2-  O484  1  0.16065502  0.39219447  0.65520164  1
  O2-  O485  1  0.14509065  0.29722463  1.01254364  1
  O2-  O486  1  0.18147247  0.57625483  0.30849364  1
  O2-  O487  1  0.16736888  0.58893303  0.65247018  1
  O2-  O488  1  0.19473000  0.56831740  0.98592621  1
  O2-  O489  1  0.17294479  0.81909165  0.31422191  1
  O2-  O490  1  0.16294009  0.83950916  0.64344815  1
  O2-  O491  1  0.15660897  0.83781777  0.96993312  1
  O2-  O492  1  0.41176899  0.07635372  0.31517703  1
  O2-  O493  1  0.40120789  0.09808112  0.65118869  1
  O2-  O494  1  0.39943299  0.08125550  0.98020025  1
  O2-  O495  1  0.40394163  0.33094204  0.31550110  1
  O2-  O496  1  0.45616080  0.36216392  0.65194881  1
  O2-  O497  1  0.40601405  0.33398367  0.98099777  1
  O2-  O498  1  0.41923932  0.58438813  0.30935287  1
  O2-  O499  1  0.41895600  0.59693265  0.64446001  1
  O2-  O500  1  0.39387205  0.55227606  0.98251134  1
  O2-  O501  1  0.43396777  0.83299953  0.29558953  1
  O2-  O502  1  0.40886647  0.82423783  0.64360054  1
  O2-  O503  1  0.35202984  0.79200093  1.00201697  1
  O2-  O504  1  0.66103683  0.08378266  0.31482872  1
  O2-  O505  1  0.66262962  0.11048776  0.63709567  1
  O2-  O506  1  0.71091882  0.03320890  1.01941439  1
  O2-  O507  1  0.65936373  0.33200987  0.31492829  1
  O2-  O508  1  0.68061704  0.34208628  0.65318141  1
  O2-  O509  1  0.65821165  0.33784285  1.03963149  1
  O2-  O510  1  0.65778597  0.57715233  0.31725935  1
  O2-  O511  1  0.65727154  0.59272195  0.63789821  1
  O2-  O512  1  0.65721282  0.59796714  0.97493349  1
  O2-  O513  1  0.66120133  0.83421724  0.30574539  1
  O2-  O514  1  0.68008268  0.81712667  0.64283877  1
  O2-  O515  1  0.70486084  0.88818230  0.97674407  1
  O2-  O516  1  0.94639172  0.14450379  0.28713952  1
  O2-  O517  1  0.88605376  0.08455864  0.71386952  1
  O2-  O518  1  0.97071121  0.07707160  0.98067556  1
  O2-  O519  1  0.90849688  0.34330268  0.31100345  1
  O2-  O520  1  0.90794883  0.31715617  0.64377548  1
  O2-  O521  1  0.91651914  0.33797210  0.97780643  1
  O2-  O522  1  0.91207120  0.58698591  0.36237201  1
  O2-  O523  1  0.94433280  0.58745624  0.64181135  1
  O2-  O524  1  0.92399495  0.58687090  0.95877383  1
  O2-  O525  1  0.89149666  0.83082776  0.32254117  1
  O2-  O526  1  0.90349094  0.79627060  0.64440910  1
  O2-  O527  1  0.88137163  0.79648445  0.98250564  1
  O2-  O528  1  0.05736977  0.12238284  0.00743783  1
  O2-  O529  1  0.12313122  0.20876827  0.32173527  1
  O2-  O530  1  0.05078597  0.13213762  0.70053649  1
  O2-  O531  1  0.07862644  0.41823148  0.02146677  1
  O2-  O532  1  0.16333528  0.42711939  0.35412714  1
  O2-  O533  1  0.05938139  0.45140042  0.71084289  1
  O2-  O534  1  0.07525706  0.66692872  0.00358315  1
  O2-  O535  1  0.08703428  0.64183161  0.35681046  1
  O2-  O536  1  0.09167867  0.66037819  0.69379115  1
  O2-  O537  1  0.04471224  0.89474548  0.01584541  1
  O2-  O538  1  0.05951006  0.92280172  0.34441692  1
  O2-  O539  1  0.05496756  0.89432924  0.68872630  1
  O2-  O540  1  0.33501290  0.17853525  0.01950528  1
  O2-  O541  1  0.32278904  0.16002064  0.34823506  1
  O2-  O542  1  0.29263241  0.15001479  0.69293762  1
  O2-  O543  1  0.32043992  0.39520080  0.02353532  1
  O2-  O544  1  0.32576551  0.42685472  0.35861748  1
  O2-  O545  1  0.32901616  0.44719049  0.69629394  1
  O2-  O546  1  0.35099734  0.59772528  0.00434350  1
  O2-  O547  1  0.34623406  0.67854959  0.34368364  1
  O2-  O548  1  0.32864171  0.66498204  0.68947302  1
  O2-  O549  1  0.30954334  0.91058595  0.02545089  1
  O2-  O550  1  0.34317905  0.91227471  0.33960486  1
  O2-  O551  1  0.32476437  0.91979252  0.66194108  1
  O2-  O552  1  0.56369707  0.16896701  0.02698121  1
  O2-  O553  1  0.57611408  0.16655092  0.35559389  1
  O2-  O554  1  0.56560617  0.17323997  0.68837364  1
  O2-  O555  1  0.58230722  0.43716151  0.02780785  1
  O2-  O556  1  0.57030904  0.41092410  0.35695455  1
  O2-  O557  1  0.64169502  0.45401461  0.69908681  1
  O2-  O558  1  0.55119425  0.66048617  0.01218606  1
  O2-  O559  1  0.58251622  0.67026960  0.35184346  1
  O2-  O560  1  0.57340854  0.65892536  0.68723822  1
  O2-  O561  1  0.52530719  0.84891209  0.02335734  1
  O2-  O562  1  0.58381727  0.91603888  0.35493014  1
  O2-  O563  1  0.56683984  0.87842788  0.68480406  1
  O2-  O564  1  0.86291078  0.18897651  0.03557297  1
  O2-  O565  1  0.83125747  0.18311438  0.34728654  1
  O2-  O566  1  0.83533600  0.23261288  0.66043917  1
  O2-  O567  1  0.84395952  0.40736812  0.04436563  1
  O2-  O568  1  0.82389470  0.40686736  0.35980301  1
  O2-  O569  1  0.85193674  0.42407715  0.68370833  1
  O2-  O570  1  0.82789856  0.71007480  0.00795084  1
  O2-  O571  1  0.81861897  0.65947183  0.36112505  1
  O2-  O572  1  0.85723441  0.64496018  0.70268651  1
  O2-  O573  1  0.85284969  0.91722789  0.02217869  1
  O2-  O574  1  0.81472318  0.91350451  0.36821716  1
  O2-  O575  1  0.83130562  0.91762108  0.71613432  1
