# generated using pymatgen
data_H2O
_symmetry_space_group_name_H-M   'P 1'
_cell_length_a   17.97510056
_cell_length_b   17.98070921
_cell_length_c   21.97786461
_cell_angle_alpha   90.00675405
_cell_angle_beta   90.00666216
_cell_angle_gamma   120.00974086
_symmetry_Int_Tables_number   1
_chemical_formula_structural   H2O
_chemical_formula_sum   'H384 O192'
_cell_volume   6151.08350577
_cell_formula_units_Z   192
loop_
 _symmetry_equiv_pos_site_id
 _symmetry_equiv_pos_as_xyz
  1  'x, y, z'
loop_
 _atom_type_symbol
 _atom_type_oxidation_number
  H+  1.0
  O2-  -2.0
loop_
 _atom_site_type_symbol
 _atom_site_label
 _atom_site_symmetry_multiplicity
 _atom_site_fract_x
 _atom_site_fract_y
 _atom_site_fract_z
 _atom_site_occupancy
  H+  H0  1  0.88268245  0.78500151  0.50706550  1
  H+  H1  1  0.48285791  0.08387519  0.94970312  1
  H+  H2  1  0.60538200  0.64004578  -0.00602842  1
  H+  H3  1  0.28387019  0.13980661  0.02365128  1
  H+  H4  1  0.05180446  0.89762619  0.13807603  1
  H+  H5  1  0.51911384  0.14426997  0.82494625  1
  H+  H6  1  0.38770358  0.52391751  0.51194197  1
  H+  H7  1  0.01184945  0.13514390  0.67205229  1
  H+  H8  1  0.11959719  0.63449548  0.16721920  1
  H+  H9  1  0.89112561  0.62591509  0.65480575  1
  H+  H10  1  0.62000516  0.37846695  0.48496821  1
  H+  H11  1  0.39943970  1.03845214  0.18680944  1
  H+  H12  1  0.01659156  0.89478012  0.67363496  1
  H+  H13  1  0.53709023  0.38655384  0.48880634  1
  H+  H14  1  0.84876099  0.89128926  0.49701994  1
  H+  H15  1  0.97532300  0.12022397  0.83603082  1
  H+  H16  1  0.87324346  0.76525889  0.32869093  1
  H+  H17  1  0.36103856  0.63539198  0.15653175  1
  H+  H18  1  0.74380955  0.19778067  0.28471413  1
  H+  H19  1  0.39514513  0.62444955  0.66549781  1
  H+  H20  1  0.62569407  0.47069143  0.27072305  1
  H+  H21  1  0.69731807  0.99992487  0.35480051  1
  H+  H22  1  0.09944924  0.38512586  0.18244960  1
  H+  H23  1  0.26598671  0.34172386  0.67258993  1
  H+  H24  1  0.73764699  0.13935479  0.51024136  1
  H+  H25  1  0.38197562  0.52285809  0.16667964  1
  H+  H26  1  0.47405308  0.10401107  0.50796070  1
  H+  H27  1  0.64312697  0.27904219  0.17293666  1
  H+  H28  1  -0.03520048  0.34341546  0.01917469  1
  H+  H29  1  -0.01466673  0.62070522  0.17637171  1
  H+  H30  1  0.36890233  0.22595880  0.50354166  1
  H+  H31  1  0.52514035  0.64476629  0.81549032  1
  H+  H32  1  0.87948509  0.86800650  0.67048495  1
  H+  H33  1  0.99403728  0.63371833  0.50327165  1
  H+  H34  1  0.82514376  0.43082910  0.06900844  1
  H+  H35  1  0.11738842  0.39588202  0.34569460  1
  H+  H36  1  0.59897851  0.38279373  0.81545443  1
  H+  H37  1  0.15245684  0.52139504  0.66272300  1
  H+  H38  1  0.68189331  0.30414403  0.33717630  1
  H+  H39  1  0.03090807  0.39785833  0.49985008  1
  H+  H40  1  0.85278295  0.72507412  0.82822131  1
  H+  H41  1  0.37010652  0.64315612  0.78430396  1
  H+  H42  1  0.39187094  0.60571219  0.32645157  1
  H+  H43  1  0.94063178  0.88322893  0.19383028  1
  H+  H44  1  0.13442730  0.32916787  0.99391332  1
  H+  H45  1  0.28885749  0.64075083  0.34344701  1
  H+  H46  1  0.90976073  0.64123359  0.17330512  1
  H+  H47  1  0.86364328  0.63230962  0.33956171  1
  H+  H48  1  0.38604940  0.52621164  0.82067509  1
  H+  H49  1  0.87943649  0.65826209  0.48947585  1
  H+  H50  1  0.65928762  0.34473543  0.89318711  1
  H+  H51  1  0.17377426  0.41772312  0.06628562  1
  H+  H52  1  0.88033752  0.13047889  0.34914459  1
  H+  H53  1  0.71525290  0.30498129  0.50819086  1
  H+  H54  1  0.02326846  0.62883886  0.01117829  1
  H+  H55  1  0.22872181  0.61086552  0.17393266  1
  H+  H56  1  0.64727105  0.03454569  0.65921639  1
  H+  H57  1  0.39539028  0.36497319  0.51255785  1
  H+  H58  1  0.38184907  0.35732240  0.83593660  1
  H+  H59  1  0.23873335  0.51362198  0.83030004  1
  H+  H60  1  0.21700462  0.87939130  0.33096806  1
  H+  H61  1  0.23467700  0.22697039  0.22015942  1
  H+  H62  1  0.73950410  0.61034443  0.50811830  1
  H+  H63  1  0.13111500  0.26674617  0.65796850  1
  H+  H64  1  0.22618388  0.11549086  0.50719975  1
  H+  H65  1  0.42596791  0.75234899  0.31976915  1
  H+  H66  1  0.11460856  0.74884192  0.66401219  1
  H+  H67  1  0.77636832  0.14838242  0.67707031  1
  H+  H68  1  0.31455805  0.81992821  0.30506605  1
  H+  H69  1  0.27951321  0.88178023  0.81052103  1
  H+  H70  1  0.98274020  0.63045378  0.65131105  1
  H+  H71  1  0.89487136  0.38416972  0.51038319  1
  H+  H72  1  0.23609730  0.84796425  -0.01291666  1
  H+  H73  1  0.13765846  0.27398525  0.33245899  1
  H+  H74  1  0.61610756  0.64833207  0.28855051  1
  H+  H75  1  0.75758012  0.13400129  0.00339520  1
  H+  H76  1  0.17569805  0.07581705  1.08129779  1
  H+  H77  1  0.58665021  0.17655976  0.73423523  1
  H+  H78  1  0.63374451  0.75932203  0.32181088  1
  H+  H79  1  0.11371076  0.37949145  0.67061777  1
  H+  H80  1  0.81903722  0.14877779  0.09897740  1
  H+  H81  1  0.86323508  0.64028048  1.00634128  1
  H+  H82  1  0.87581244  0.61970393  0.84067149  1
  H+  H83  1  0.64646910  0.12416961  0.66483242  1
  H+  H84  1  0.10096688  0.88926000  0.33520241  1
  H+  H85  1  0.66355654  0.77806019  0.82687468  1
  H+  H86  1  0.02885580  0.13196625  0.34411096  1
  H+  H87  1  0.62244052  0.25485908  0.00848101  1
  H+  H88  1  0.35945214  0.13236926  0.81684053  1
  H+  H89  1  0.88911467  0.01434944  0.32979359  1
  H+  H90  1  0.77693193  0.40391372  0.66259803  1
  H+  H91  1  0.37822027  0.76771362  0.16851070  1
  H+  H92  1  0.15153471  0.77112589  0.17546701  1
  H+  H93  1  0.36265872  0.96003744  0.34769932  1
  H+  H94  1  0.84184803  0.48449424  0.82248386  1
  H+  H95  1  0.62427462  0.35711619  0.64942395  1
  H+  H96  1  0.23988325  0.61131073  0.66898296  1
  H+  H97  1  0.86264845  0.49705308  0.16163171  1
  H+  H98  1  0.65267648  0.78397901  0.65541552  1
  H+  H99  1  0.27877275  0.38344435  0.82641940  1
  H+  H100  1  0.14240866  0.11442180  1.02656518  1
  H+  H101  1  0.46646451  0.60492063  0.97876473  1
  H+  H102  1  0.13747754  0.52342466  0.18419445  1
  H+  H103  1  0.36095883  0.97246067  0.50329133  1
  H+  H104  1  0.11863911  0.63609018  0.81143400  1
  H+  H105  1  0.84375341  0.21411132  0.15367340  1
  H+  H106  1  0.47911375  0.38882978  0.33130055  1
  H+  H107  1  0.51684788  0.64468720  0.14993525  1
  H+  H108  1  0.60873588  0.63529264  0.82087006  1
  H+  H109  1  0.98373256  0.62564119  0.33150104  1
  H+  H110  1  -0.02276459  0.37092667  0.66209938  1
  H+  H111  1  1.01197978  0.88916028  0.33621888  1
  H+  H112  1  0.79688319  0.37492748  0.41100352  1
  H+  H113  1  0.79775973  0.14101228  0.34174114  1
  H+  H114  1  0.10919017  0.98101319  0.49111634  1
  H+  H115  1  0.88763102  0.76601092  0.16331263  1
  H+  H116  1  0.06957357  0.11276968  -0.02871869  1
  H+  H117  1  0.72830131  0.37749751  0.99140111  1
  H+  H118  1  0.12891363  0.27823226  0.17445431  1
  H+  H119  1  0.57881534  0.57941028  0.33982209  1
  H+  H120  1  0.65925148  0.87342913  0.65547593  1
  H+  H121  1  0.83678500  0.88107577  0.16680664  1
  H+  H122  1  0.13837746  0.34246004  0.84202888  1
  H+  H123  1  0.38613128  0.36025431  0.98867659  1
  H+  H124  1  0.53197867  0.14070132  0.67287208  1
  H+  H125  1  0.53085478  0.14693216  0.16173648  1
  H+  H126  1  0.84771500  0.13007657  0.00347271  1
  H+  H127  1  0.85912386  0.98639886  0.70131924  1
  H+  H128  1  0.11826840  0.15741437  0.15479286  1
  H+  H129  1  0.60549726  0.86697682  0.48823556  1
  H+  H130  1  0.64148354  0.66786238  0.18851503  1
  H+  H131  1  0.87519613  0.24449442  0.49724780  1
  H+  H132  1  0.88102842  0.26932034  0.85090025  1
  H+  H133  1  0.62220930  0.11427932  0.34111660  1
  H+  H134  1  0.40464120  0.78307333  0.80765468  1
  H+  H135  1  0.13714005  0.84766820  0.16331821  1
  H+  H136  1  0.37261742  0.88747074  0.81439864  1
  H+  H137  1  0.68759228  0.96484630  0.37736977  1
  H+  H138  1  0.97146368  0.36923819  0.33924697  1
  H+  H139  1  0.13776959  0.88580145  0.66132350  1
  H+  H140  1  0.96853333  0.87444024  0.50892719  1
  H+  H141  1  0.87031313  0.25590898  1.02001306  1
  H+  H142  1  0.22796486  0.60373896  0.01126373  1
  H+  H143  1  1.03233635  0.56979803  0.77867772  1
  H+  H144  1  0.54036052  0.90065339  0.66804579  1
  H+  H145  1  0.68163172  0.86851913  0.98659860  1
  H+  H146  1  0.12154688  0.73745529  0.34205271  1
  H+  H147  1  0.83302225  0.17679340  0.76973156  1
  H+  H148  1  0.89047051  0.37783014  0.66204024  1
  H+  H149  1  0.08177553  1.01353878  0.16922526  1
  H+  H150  1  0.37790088  0.51547210  0.97943760  1
  H+  H151  1  0.84747415  0.97527073  0.16589827  1
  H+  H152  1  0.60925073  0.77210235  0.97459103  1
  H+  H153  1  0.42549045  0.36368768  0.67218797  1
  H+  H154  1  0.68934533  0.10695248  0.25364609  1
  H+  H155  1  0.65557967  0.31482919  0.26958764  1
  H+  H156  1  0.40748567  0.82414594  0.57653663  1
  H+  H157  1  0.46263202  0.95390417  0.04859889  1
  H+  H158  1  0.49955113  0.12108119  0.32931777  1
  H+  H159  1  0.71399880  0.37350119  0.83058581  1
  H+  H160  1  0.54303601  0.90555868  0.81108524  1
  H+  H161  1  0.61901222  0.77112280  0.48216998  1
  H+  H162  1  0.35929599  0.47344600  0.34268030  1
  H+  H163  1  0.62981382  0.10698586  0.16753453  1
  H+  H164  1  0.19668190  0.49750601  0.81403078  1
  H+  H165  1  0.61611202  0.39255629  0.19626333  1
  H+  H166  1  0.53217107  0.40209550  0.19927112  1
  H+  H167  1  0.32916815  0.40849013  0.05950142  1
  H+  H168  1  0.51749373  0.38900742  0.00259604  1
  H+  H169  1  0.88003678  0.11836775  0.66741848  1
  H+  H170  1  0.13798562  0.47076707  0.03155895  1
  H+  H171  1  0.14093989  0.36691894  0.50975478  1
  H+  H172  1  0.60572100  0.23770009  0.82654510  1
  H+  H173  1  0.28435650  0.89716811  0.16357304  1
  H+  H174  1  0.10264507  0.13446231  0.66816768  1
  H+  H175  1  0.86523264  0.23851466  0.67678941  1
  H+  H176  1  0.13695631  0.11698590  0.50597726  1
  H+  H177  1  0.41648656  0.02663411  0.99919574  1
  H+  H178  1  0.64486648  0.14016358  -0.00801038  1
  H+  H179  1  0.51042119  0.87752154  0.14986871  1
  H+  H180  1  0.48052768  0.61913555  0.65793110  1
  H+  H181  1  0.41130012  0.23655715  0.67182780  1
  H+  H182  1  0.28668822  0.78328798  0.28431903  1
  H+  H183  1  0.95917545  0.85477117  0.83513379  1
  H+  H184  1  0.82756507  0.66579282  0.76743697  1
  H+  H185  1  0.37042737  0.89371452  0.17158603  1
  H+  H186  1  0.95553603  0.35838604  0.16526844  1
  H+  H187  1  0.22675547  0.36301293  0.33208025  1
  H+  H188  1  0.21901722  0.11187006  0.82450735  1
  H+  H189  1  0.76525667  0.88146237  0.33951191  1
  H+  H190  1  0.28513389  0.27615658  0.70491036  1
  H+  H191  1  0.10522243  0.89263496  0.82111516  1
  H+  H192  1  0.40205421  0.28797712  0.33882087  1
  H+  H193  1  0.12297884  0.01267235  0.17444327  1
  H+  H194  1  0.59413557  0.20761215  0.48450999  1
  H+  H195  1  0.55582824  0.85824394  -0.03079118  1
  H+  H196  1  0.71809037  0.60869662  0.83197999  1
  H+  H197  1  0.92092542  0.07896521  0.27230786  1
  H+  H198  1  0.53310748  0.16618640  0.01410438  1
  H+  H199  1  0.66629889  0.10407666  0.93130184  1
  H+  H200  1  0.72729845  0.12881332  0.83952402  1
  H+  H201  1  0.12920853  0.97349526  0.00940252  1
  H+  H202  1  0.39550061  0.16358487  0.34576412  1
  H+  H203  1  0.73049649  0.71691131  0.22238610  1
  H+  H204  1  0.51404119  0.64035186  0.48391189  1
  H+  H205  1  0.61720990  0.63242001  0.66630037  1
  H+  H206  1  0.14740635  0.62173863  0.51234614  1
  H+  H207  1  0.63528806  0.53218139  0.98634035  1
  H+  H208  1  0.72735251  0.37440424  0.17456713  1
  H+  H209  1  0.12797207  0.65112922  0.34418440  1
  H+  H210  1  0.87734214  0.02749604  0.51050193  1
  H+  H211  1  0.01920349  0.13695987  0.50031609  1
  H+  H212  1  0.86643036  0.49362861  0.66336187  1
  H+  H213  1  0.33929345  -0.07476214  0.72613600  1
  H+  H214  1  0.82542498  0.33149551  0.36190751  1
  H+  H215  1  0.10669354  0.98249070  0.82562111  1
  H+  H216  1  0.65427535  0.51649210  0.50605391  1
  H+  H217  1  0.90036754  0.27170226  0.33989719  1
  H+  H218  1  0.26880786  0.36624774  0.00103058  1
  H+  H219  1  0.38738216  0.11135363  0.51252492  1
  H+  H220  1  0.15154220  0.81911631  0.76116456  1
  H+  H221  1  0.89417625  0.78221607  -0.01027826  1
  H+  H222  1  0.39060642  0.02118389  0.65910398  1
  H+  H223  1  0.39170054  0.86524451  0.66445134  1
  H+  H224  1  0.11668348  0.71234954  1.01181219  1
  H+  H225  1  0.11781309  0.22432040  0.82189407  1
  H+  H226  1  0.41850771  0.58936115  0.56887153  1
  H+  H227  1  0.81695022  0.43177882  0.75994998  1
  H+  H228  1  0.88701714  0.12099454  0.51429331  1
  H+  H229  1  0.12347001  0.73864117  0.49811986  1
  H+  H230  1  0.77628211  0.63422693  0.67148086  1
  H+  H231  1  0.39594815  0.28653702  0.18068447  1
  H+  H232  1  0.13295317  0.23679403  0.98963153  1
  H+  H233  1  0.63805432  0.12973163  0.83737272  1
  H+  H234  1  0.88703578  0.03405746  0.83023197  1
  H+  H235  1  0.17980505  0.58849103  0.56980919  1
  H+  H236  1  0.76635387  0.61141862  0.34129522  1
  H+  H237  1  0.12885905  0.03218768  0.66094042  1
  H+  H238  1  0.27747727  0.63712730  0.49494878  1
  H+  H239  1  0.13303264  0.87120893  0.50555592  1
  H+  H240  1  0.48925853  0.88634502  0.34999307  1
  H+  H241  1  0.52286701  0.98358884  0.37310827  1
  H+  H242  1  0.78753705  0.42811980  0.50259982  1
  H+  H243  1  0.88081188  0.50636006  0.49360301  1
  H+  H244  1  -0.00396563  0.79739288  0.12444254  1
  H+  H245  1  0.36452083  0.63082734  -0.00147351  1
  H+  H246  1  0.61843994  0.86249643  0.16873059  1
  H+  H247  1  0.50569085  0.87242159  0.50719108  1
  H+  H248  1  1.00662966  0.34153324  0.83145849  1
  H+  H249  1  0.27619133  0.90109540  0.66791879  1
  H+  H250  1  0.85861294  0.14002525  0.82795846  1
  H+  H251  1  0.37867867  0.76643140  0.51491137  1
  H+  H252  1  -0.03522962  0.11047194  -0.00587086  1
  H+  H253  1  0.36338427  0.22388698  0.81678183  1
  H+  H254  1  0.70954338  0.86603981  0.17274822  1
  H+  H255  1  0.35975527  0.38578343  0.34697531  1
  H+  H256  1  0.97050207  0.11511082  0.17318880  1
  H+  H257  1  0.14286414  0.02997843  0.32810111  1
  H+  H258  1  0.61045303  0.13028679  0.49817143  1
  H+  H259  1  -0.01535108  0.86508034  -0.02096793  1
  H+  H260  1  0.58992938  0.66593716  0.72471863  1
  H+  H261  1  0.92935537  0.60494534  0.56083050  1
  H+  H262  1  0.39198394  0.27412158  0.99077238  1
  H+  H263  1  0.57784628  0.42964048  0.06120103  1
  H+  H264  1  0.37092785  0.14011069  1.00619948  1
  H+  H265  1  0.14944992  0.53576988  0.33568672  1
  H+  H266  1  0.37861199  0.15057517  0.16700291  1
  H+  H267  1  0.85427939  0.38870031  0.01748104  1
  H+  H268  1  0.63903861  0.37797246  0.99177488  1
  H+  H269  1  0.79374217  0.89450599  0.80216465  1
  H+  H270  1  0.25622583  0.66409190  0.80893543  1
  H+  H271  1  0.41059723  0.34059897  0.24274598  1
  H+  H272  1  0.38194437  0.01740485  0.83036900  1
  H+  H273  1  0.22355500  0.87188635  0.50998093  1
  H+  H274  1  0.07655782  0.16790335  0.75997037  1
  H+  H275  1  0.81957827  -0.01932577  1.01045572  1
  H+  H276  1  0.59787897  0.96585193  0.15031021  1
  H+  H277  1  0.85201052  0.87655887  0.34229083  1
  H+  H278  1  0.63716130  0.51336953  0.65607003  1
  H+  H279  1  0.20876655  0.62607920  0.87119392  1
  H+  H280  1  0.88590175  0.52676376  0.99435768  1
  H+  H281  1  0.89979597  0.33154674  1.10565377  1
  H+  H282  1  0.91121393  0.08733356  0.93182561  1
  H+  H283  1  0.35975996  0.38878503  0.16118796  1
  H+  H284  1  0.27846794  0.38480857  0.50022028  1
  H+  H285  1  0.40439866  0.85767462  0.97555619  1
  H+  H286  1  0.13612426  0.27503598  0.50863501  1
  H+  H287  1  0.63714728  0.27656646  0.65895483  1
  H+  H288  1  0.04358098  0.49111004  0.90623495  1
  H+  H289  1  0.39568132  0.13023617  0.66503016  1
  H+  H290  1  0.36637733  0.63620843  0.49753000  1
  H+  H291  1  0.67996007  0.10817173  0.57071963  1
  H+  H292  1  0.29750227  0.14530086  0.34771858  1
  H+  H293  1  0.15220985  0.85592558  0.98833461  1
  H+  H294  1  0.17466215  0.31728103  0.90109129  1
  H+  H295  1  0.35486812  0.88026166  0.50149706  1
  H+  H296  1  0.31635087  0.92891616  0.41075168  1
  H+  H297  1  0.91776667  0.32208788  0.91202039  1
  H+  H298  1  0.70984304  0.86651035  0.49148657  1
  H+  H299  1  0.15962114  0.08862748  0.60092424  1
  H+  H300  1  0.34455635  0.16992990  0.44322584  1
  H+  H301  1  0.50820547  0.37871801  0.81858359  1
  H+  H302  1  0.56669768  0.66094568  0.42159188  1
  H+  H303  1  0.16765918  0.85473639  0.60174394  1
  H+  H304  1  0.35506421  0.18190660  0.10494781  1
  H+  H305  1  0.33405176  0.66533390  0.09589042  1
  H+  H306  1  0.66651578  0.31948020  0.56389680  1
  H+  H307  1  0.41263116  0.32540331  0.89432519  1
  H+  H308  1  0.59191602  0.18138768  0.10230317  1
  H+  H309  1  0.18050036  0.59298118  0.27532502  1
  H+  H310  1  0.68875823  0.84334057  0.88109832  1
  H+  H311  1  0.96227291  0.61366574  0.83836394  1
  H+  H312  1  0.89209148  0.82590575  0.26951820  1
  H+  H313  1  0.83704679  0.67583901  0.43168096  1
  H+  H314  1  0.84750713  0.17807367  0.44096578  1
  H+  H315  1  0.16619872  0.84123363  0.26772349  1
  H+  H316  1  0.40581415  0.58675334  0.87743712  1
  H+  H317  1  0.08041462  0.41403548  0.12088728  1
  H+  H318  1  0.87066029  0.70676395  0.09971879  1
  H+  H319  1  0.02414363  0.27976867  0.79103220  1
  H+  H320  1  0.08786105  0.66115787  0.10652148  1
  H+  H321  1  0.57207123  0.66931952  0.05190428  1
  H+  H322  1  0.33014532  0.39498197  0.76494111  1
  H+  H323  1  0.13424455  0.59336552  0.01708941  1
  H+  H324  1  0.52407463  0.80260937  0.29780401  1
  H+  H325  1  0.07855582  0.16645516  0.44002505  1
  H+  H326  1  0.07441875  0.92549994  0.73381413  1
  H+  H327  1  0.90634784  0.82565130  0.89663361  1
  H+  H328  1  0.37422991  0.72356690  -0.00113804  1
  H+  H329  1  0.34816919  0.66740777  0.40291853  1
  H+  H330  1  0.60386725  0.93780835  0.72492078  1
  H+  H331  1  0.41066568  0.57871132  0.22768246  1
  H+  H332  1  0.17142253  0.33098520  0.60077313  1
  H+  H333  1  0.42294708  0.08268464  0.59704539  1
  H+  H334  1  0.78575169  0.92275011  0.06956518  1
  H+  H335  1  0.35743321  0.16974988  0.72859783  1
  H+  H336  1  0.09294849  0.42775806  0.40615955  1
  H+  H337  1  0.08681545  0.67580578  0.71533737  1
  H+  H338  1  0.59952757  0.73879507  0.14841460  1
  H+  H339  1  0.53212783  0.21295944  0.30759468  1
  H+  H340  1  0.07488973  0.16003387  0.09232246  1
  H+  H341  1  0.54232548  0.91010988  0.44184852  1
  H+  H342  1  0.16389815  0.33084342  0.23803108  1
  H+  H343  1  0.39337328  0.77715457  0.67490369  1
  H+  H344  1  0.47625359  0.59707310  0.31420082  1
  H+  H345  1  0.54802519  0.39470665  0.72503540  1
  H+  H346  1  0.71350314  0.09753502  0.16417502  1
  H+  H347  1  0.91999893  0.34916790  0.56933981  1
  H+  H348  1  0.25991692  0.16916229  0.18262701  1
  H+  H349  1  0.65353794  0.82148810  0.26497943  1
  H+  H350  1  0.62706654  0.52030324  0.82927725  1
  H+  H351  1  0.63288438  0.53545064  0.12822992  1
  H+  H352  1  0.85782638  0.40471276  0.15536954  1
  H+  H353  1  0.12208400  0.48443517  0.50041804  1
  H+  H354  1  0.07589275  0.39416969  0.73113732  1
  H+  H355  1  0.07499577  0.92080975  0.43204956  1
  H+  H356  1  0.65614999  0.57194460  0.10617555  1
  H+  H357  1  0.77697377  0.64534445  0.00439724  1
  H+  H358  1  0.13716662  0.77025311  0.82171229  1
  H+  H359  1  0.39829004  0.07299759  0.89056709  1
  H+  H360  1  0.06138714  0.53867719  0.90894422  1
  H+  H361  1  0.12177072  0.14015886  0.34890516  1
  H+  H362  1  0.13136300  0.11256172  0.82882941  1
  H+  H363  1  0.37854008  0.93801302  0.08213080  1
  H+  H364  1  0.90477139  0.84425393  0.60583148  1
  H+  H365  1  0.42925801  0.81978596  0.22738344  1
  H+  H366  1  0.92632287  0.59757698  0.27166638  1
  H+  H367  1  0.09956403  0.68053774  0.43773742  1
  H+  H368  1  0.67985744  0.57137763  0.59640331  1
  H+  H369  1  0.26974320  0.38666279  0.15942262  1
  H+  H370  1  0.91576647  0.58781291  0.93572007  1
  H+  H371  1  0.18572420  0.10582586  0.27795266  1
  H+  H372  1  0.90268856  0.07852781  0.60974658  1
  H+  H373  1  0.57532630  0.11700940  0.40377058  1
  H+  H374  1  0.43951916  0.34387515  0.56830689  1
  H+  H375  1  0.62427710  0.99812908  0.81852227  1
  H+  H376  1  0.08228228  0.88737601  0.04686682  1
  H+  H377  1  0.85879344  0.72970223  0.67344751  1
  H+  H378  1  0.33767195  0.41632080  0.44145659  1
  H+  H379  1  0.82413142  0.91946555  0.43490523  1
  H+  H380  1  0.88101954  0.11327215  0.17750531  1
  H+  H381  1  0.44413364  0.11491855  0.23830069  1
  H+  H382  1  0.66357586  0.58705654  0.92556089  1
  H+  H383  1  0.42880362  0.82785799  0.87363095  1
  O2-  O384  1  0.07609747  0.17097426  0.13658568  1
  O2-  O385  1  0.08007460  0.16797764  0.48552337  1
  O2-  O386  1  0.07538372  0.16624015  0.80598493  1
  O2-  O387  1  0.06997041  0.41512257  0.16540867  1
  O2-  O388  1  0.09147090  0.42343943  0.48530361  1
  O2-  O389  1  0.05162413  0.33949677  0.80445047  1
  O2-  O390  1  0.09095804  0.66654732  0.15204102  1
  O2-  O391  1  0.09785244  0.67810491  0.48340000  1
  O2-  O392  1  0.06283951  0.62854704  0.79409583  1
  O2-  O393  1  0.05665546  0.85105133  0.11936911  1
  O2-  O394  1  0.07635895  0.91967657  0.47741220  1
  O2-  O395  1  0.07287905  0.92122571  0.80989563  1
  O2-  O396  1  0.35120901  0.18318224  0.15010080  1
  O2-  O397  1  0.33781706  0.16521622  0.48853004  1
  O2-  O398  1  0.33595552  0.16607360  0.79634939  1
  O2-  O399  1  0.32811167  0.41485118  0.14086723  1
  O2-  O400  1  0.33984123  0.41490557  0.48689696  1
  O2-  O401  1  0.33806868  0.41328487  0.80826788  1
  O2-  O402  1  0.32932861  0.66456786  0.14122617  1
  O2-  O403  1  0.33862788  0.66856165  0.48034033  1
  O2-  O404  1  0.34690403  0.68116449  0.77167247  1
  O2-  O405  1  0.34754454  0.93032436  0.15487009  1
  O2-  O406  1  0.32636954  0.91285428  0.48705719  1
  O2-  O407  1  0.34182387  0.91925680  0.80226020  1
  O2-  O408  1  0.59182217  0.17414692  0.14745784  1
  O2-  O409  1  0.56810739  0.14534293  0.47692104  1
  O2-  O410  1  0.57942943  0.17694604  0.81065352  1
  O2-  O411  1  0.59533623  0.43396557  0.20359980  1
  O2-  O412  1  0.59733839  0.41651026  0.47502117  1
  O2-  O413  1  0.56540014  0.40860803  0.79735721  1
  O2-  O414  1  0.57538381  0.67852550  0.13218500  1
  O2-  O415  1  0.57178883  0.67523028  0.46475586  1
  O2-  O416  1  0.58630738  0.67141573  0.80323122  1
  O2-  O417  1  0.57026961  0.90637218  0.13426769  1
  O2-  O418  1  0.56154863  0.90219434  0.48392435  1
  O2-  O419  1  0.60311957  0.94193364  0.79798721  1
  O2-  O420  1  0.81989481  0.15199541  0.14473028  1
  O2-  O421  1  0.84525432  0.18231236  0.48624859  1
  O2-  O422  1  0.83034992  0.17353057  0.81551709  1
  O2-  O423  1  0.82833529  0.43725023  0.14435043  1
  O2-  O424  1  0.84352902  0.44229415  0.48594993  1
  O2-  O425  1  0.80707597  0.42635770  0.80455678  1
  O2-  O426  1  0.90345039  0.72511746  0.13841500  1
  O2-  O427  1  0.84396127  0.68415747  0.47669169  1
  O2-  O428  1  0.82208422  0.66226580  0.81271983  1
  O2-  O429  1  0.81129420  0.91636270  0.14969347  1
  O2-  O430  1  0.81895553  0.92126543  0.48014559  1
  O2-  O431  1  0.85156717  0.93979639  0.78407359  1
  O2-  O432  1  0.21017588  0.16896454  0.20384430  1
  O2-  O433  1  0.16472108  0.08369764  0.51995577  1
  O2-  O434  1  0.16215446  0.08326131  0.84413343  1
  O2-  O435  1  0.16330477  0.33639306  0.19231763  1
  O2-  O436  1  0.17066026  0.33540925  0.52384077  1
  O2-  O437  1  0.17964730  0.32398495  0.85547203  1
  O2-  O438  1  0.17212247  0.58540055  0.19553830  1
  O2-  O439  1  0.17603598  0.58845262  0.52400330  1
  O2-  O440  1  0.21220504  0.66294626  0.83758244  1
  O2-  O441  1  0.17672722  0.83366113  0.18581109  1
  O2-  O442  1  0.16271929  0.84279462  0.52518266  1
  O2-  O443  1  0.16589445  0.82808823  0.80446775  1
  O2-  O444  1  0.43048557  0.10161546  0.19367852  1
  O2-  O445  1  0.41531329  0.07835294  0.52790903  1
  O2-  O446  1  0.40602025  0.07793148  0.84607713  1
  O2-  O447  1  0.41335057  0.34463869  0.19707147  1
  O2-  O448  1  0.42591022  0.33334454  0.52471061  1
  O2-  O449  1  0.40983495  0.32322243  0.84884889  1
  O2-  O450  1  0.41088186  0.58305140  0.18211912  1
  O2-  O451  1  0.41643158  0.58598105  0.52275727  1
  O2-  O452  1  0.41047207  0.58761726  0.83243845  1
  O2-  O453  1  0.41033489  0.82694075  0.18626477  1
  O2-  O454  1  0.40461505  0.82655197  0.53100632  1
  O2-  O455  1  0.42812169  0.83890659  0.82960543  1
  O2-  O456  1  0.65478661  0.07150533  0.18253483  1
  O2-  O457  1  0.67800210  0.11436182  0.52578923  1
  O2-  O458  1  0.66661201  0.09928665  0.85473379  1
  O2-  O459  1  0.66867181  0.33727254  0.19157535  1
  O2-  O460  1  0.66787047  0.31463511  0.51822914  1
  O2-  O461  1  0.65294035  0.33968325  0.84818924  1
  O2-  O462  1  0.67338622  0.66653678  0.22518877  1
  O2-  O463  1  0.68279046  0.57326067  0.52724260  1
  O2-  O464  1  0.65688588  0.57869523  0.84724024  1
  O2-  O465  1  0.64812000  0.83206673  0.18686527  1
  O2-  O466  1  0.64602864  0.83320226  0.49746144  1
  O2-  O467  1  0.71046808  0.83326179  0.84269160  1
  O2-  O468  1  0.91370782  0.08592996  0.19364663  1
  O2-  O469  1  0.91268487  0.08584631  0.52881827  1
  O2-  O470  1  0.91460631  0.09033088  0.85153359  1
  O2-  O471  1  0.89487279  0.33008333  0.15070794  1
  O2-  O472  1  0.92324144  0.35140933  0.52376683  1
  O2-  O473  1  0.92232535  0.32752929  0.86789148  1
  O2-  O474  1  0.92418440  0.59771504  0.18901112  1
  O2-  O475  1  0.93173584  0.60594328  0.51508023  1
  O2-  O476  1  0.90517727  0.58809803  0.85741513  1
  O2-  O477  1  0.88330197  0.83363812  0.19846357  1
  O2-  O478  1  0.90828593  0.84460487  0.52423233  1
  O2-  O479  1  0.90072744  0.81794959  0.85118931  1
  O2-  O480  1  0.18185943  0.09321647  0.32198544  1
  O2-  O481  1  0.15670976  0.09246401  0.64590680  1
  O2-  O482  1  0.18060890  0.08513778  1.03742864  1
  O2-  O483  1  0.16679535  0.33316660  0.31489038  1
  O2-  O484  1  0.17122944  0.32857535  0.64648671  1
  O2-  O485  1  0.16610060  0.30280344  0.97635067  1
  O2-  O486  1  0.18288339  0.59661378  0.32066095  1
  O2-  O487  1  0.18567034  0.57962032  0.64539543  1
  O2-  O488  1  0.16557227  0.56187329  1.00830151  1
  O2-  O489  1  0.15886431  0.84106482  0.31263956  1
  O2-  O490  1  0.17200920  0.85834029  0.64750367  1
  O2-  O491  1  0.17423468  0.81527694  0.98131503  1
  O2-  O492  1  0.47659547  0.15532968  0.30876849  1
  O2-  O493  1  0.42508372  0.08394619  0.64420182  1
  O2-  O494  1  0.43380352  0.07886380  0.97253807  1
  O2-  O495  1  0.41862934  0.34437703  0.31948148  1
  O2-  O496  1  0.46246974  0.34218023  0.65432864  1
  O2-  O497  1  0.42012238  0.33339695  0.97325931  1
  O2-  O498  1  0.41289421  0.57029678  0.30539060  1
  O2-  O499  1  0.41958925  0.59295620  0.64410518  1
  O2-  O500  1  0.40535819  0.57513192  0.96365196  1
  O2-  O501  1  0.47008077  0.80406515  0.29683595  1
  O2-  O502  1  0.42240077  0.83456562  0.65283862  1
  O2-  O503  1  0.43204963  0.82698511  0.95794290  1
  O2-  O504  1  0.71278504  0.13654170  0.29407145  1
  O2-  O505  1  0.67981899  0.09827814  0.64830013  1
  O2-  O506  1  0.66795214  0.10406988  0.97686761  1
  O2-  O507  1  0.63248192  0.29238822  0.31058730  1
  O2-  O508  1  0.66253592  0.33437754  0.63871109  1
  O2-  O509  1  0.66779203  0.34709527  0.97525676  1
  O2-  O510  1  0.64489267  0.49312031  0.31442172  1
  O2-  O511  1  0.67628126  0.57269495  0.64337197  1
  O2-  O512  1  0.66598890  0.59199754  0.97103672  1
  O2-  O513  1  0.65125916  0.81877104  0.31060795  1
  O2-  O514  1  0.69082770  0.84414817  0.64347509  1
  O2-  O515  1  0.63041704  0.83169120  0.96013668  1
  O2-  O516  1  0.92538726  0.07617095  0.31751445  1
  O2-  O517  1  0.90516431  0.08183985  0.65517598  1
  O2-  O518  1  0.90641922  0.08711969  0.97709525  1
  O2-  O519  1  0.91168640  0.32921282  0.32668763  1
  O2-  O520  1  0.91639115  0.34301444  0.64757525  1
  O2-  O521  1  0.90339718  0.32250278  1.02263704  1
  O2-  O522  1  0.92366597  0.59665480  0.31673097  1
  O2-  O523  1  0.92081374  0.59609618  0.63714234  1
  O2-  O524  1  0.91956635  0.58800431  0.98118955  1
  O2-  O525  1  0.90144298  0.82657503  0.31588861  1
  O2-  O526  1  0.90889492  0.84014197  0.65092723  1
  O2-  O527  1  0.92266738  0.84009024  0.97102274  1
  O2-  O528  1  0.08706085  0.14701464  0.00854618  1
  O2-  O529  1  0.08800771  0.16803711  0.36133593  1
  O2-  O530  1  0.07379954  0.16706427  0.68484884  1
  O2-  O531  1  0.12077207  0.41060237  0.04862138  1
  O2-  O532  1  0.09236952  0.43070005  0.36068142  1
  O2-  O533  1  0.08233655  0.40803893  0.68711039  1
  O2-  O534  1  0.08218284  0.65325120  0.02906823  1
  O2-  O535  1  0.09555608  0.67872160  0.36006258  1
  O2-  O536  1  0.08202328  0.68605748  0.67197285  1
  O2-  O537  1  0.09910249  0.91014314  0.00452134  1
  O2-  O538  1  0.07327993  0.92241415  0.34987537  1
  O2-  O539  1  0.07758068  0.92584435  0.68803588  1
  O2-  O540  1  0.34901900  0.17500144  0.02467321  1
  O2-  O541  1  0.35592587  0.18115064  0.36488477  1
  O2-  O542  1  0.37166540  0.17463710  0.68259313  1
  O2-  O543  1  0.32977504  0.40598907  0.01416715  1
  O2-  O544  1  0.32804319  0.41503835  0.36188544  1
  O2-  O545  1  0.31327633  0.33695450  0.69423701  1
  O2-  O546  1  0.34126796  0.66597974  0.01755393  1
  O2-  O547  1  0.34972913  0.66406862  0.35728473  1
  O2-  O548  1  0.34364734  0.67792985  0.70427539  1
  O2-  O549  1  0.40528360  0.94511100  0.04040624  1
  O2-  O550  1  0.30940011  0.94551625  0.36862449  1
  O2-  O551  1  0.33815531  0.92724870  0.68047732  1
  O2-  O552  1  0.59364968  0.19499128  0.02679898  1
  O2-  O553  1  0.56600292  0.09050718  0.36236045  1
  O2-  O554  1  0.59127343  0.17688770  0.68859947  1
  O2-  O555  1  0.57913342  0.42318024  0.01722063  1
  O2-  O556  1  0.57220769  0.48372234  0.34396064  1
  O2-  O557  1  0.55024850  0.39728317  0.67789817  1
  O2-  O558  1  0.56814874  0.66405682  0.00650861  1
  O2-  O559  1  0.58082212  0.63459427  0.32701659  1
  O2-  O560  1  0.58704731  0.66305270  0.67933643  1
  O2-  O561  1  0.52074962  0.88778910  -0.02190832  1
  O2-  O562  1  0.49403099  0.92210791  0.38565802  1
  O2-  O563  1  0.60186872  0.93623353  0.67867964  1
  O2-  O564  1  0.81779036  0.15843363  0.02281986  1
  O2-  O565  1  0.85247489  0.16323880  0.36438061  1
  O2-  O566  1  0.83712495  0.17896012  0.69368412  1
  O2-  O567  1  0.82630450  0.42364420  0.02340483  1
  O2-  O568  1  0.77368171  0.32545737  0.38333296  1
  O2-  O569  1  0.83572950  0.43321380  0.67984336  1
  O2-  O570  1  0.83603411  0.67345794  0.02134383  1
  O2-  O571  1  0.82461389  0.65543987  0.35321574  1
  O2-  O572  1  0.83631916  0.66957953  0.68779504  1
  O2-  O573  1  0.76856412  0.93209031  0.02878620  1
  O2-  O574  1  0.82491516  0.91153260  0.35578014  1
  O2-  O575  1  0.83868866  0.92754046  0.71836831  1
