# generated using pymatgen
data_H2O
_symmetry_space_group_name_H-M   'P 1'
_cell_length_a   17.99771384
_cell_length_b   17.99706962
_cell_length_c   22.00500281
_cell_angle_alpha   89.97925274
_cell_angle_beta   89.99596370
_cell_angle_gamma   120.00958344
_symmetry_Int_Tables_number   1
_chemical_formula_structural   H2O
_chemical_formula_sum   'H384 O192'
_cell_volume   6172.04672026
_cell_formula_units_Z   192
loop_
 _symmetry_equiv_pos_site_id
 _symmetry_equiv_pos_as_xyz
  1  'x, y, z'
loop_
 _atom_type_symbol
 _atom_type_oxidation_number
  H+  1.0
  O2-  -2.0
loop_
 _atom_site_type_symbol
 _atom_site_label
 _atom_site_symmetry_multiplicity
 _atom_site_fract_x
 _atom_site_fract_y
 _atom_site_fract_z
 _atom_site_occupancy
  H+  H0  1  0.17195348  0.86155651  0.48775618  1
  H+  H1  1  0.76645544  0.64094742  0.00101519  1
  H+  H2  1  0.61450506  0.88227912  0.82174931  1
  H+  H3  1  0.26573490  0.19806227  0.02146604  1
  H+  H4  1  0.62262500  0.24250241  0.68727505  1
  H+  H5  1  0.87663391  0.88268612  0.33243183  1
  H+  H6  1  0.12372051  0.02488892  0.51951300  1
  H+  H7  1  0.11650449  0.47784634  0.33959654  1
  H+  H8  1  0.08109475  0.41423379  0.20049494  1
  H+  H9  1  0.24042025  0.58122547  0.31719974  1
  H+  H10  1  0.62922312  0.16858726  0.72322276  1
  H+  H11  1  0.40845050  0.14297382  1.00751367  1
  H+  H12  1  0.84184663  0.66750722  0.44345952  1
  H+  H13  1  0.65416667  0.12714026  0.00423867  1
  H+  H14  1  0.60830927  0.21897870  0.33163297  1
  H+  H15  1  0.88155432  0.24859458  0.48470091  1
  H+  H16  1  0.37136179  0.14040647  0.34277153  1
  H+  H17  1  0.59428824  0.45093177  0.15298480  1
  H+  H18  1  0.64538772  0.60908420  0.51013993  1
  H+  H19  1  0.48130155  0.11241460  0.31617436  1
  H+  H20  1  0.63995672  0.77648756  0.84757442  1
  H+  H21  1  0.65356788  0.78655005  0.98872668  1
  H+  H22  1  0.04035800  0.76966840  0.87746432  1
  H+  H23  1  0.37264563  0.73523986  0.48745738  1
  H+  H24  1  0.88960925  0.27143388  0.99347035  1
  H+  H25  1  0.86949836  0.12898514  0.46497916  1
  H+  H26  1  0.35674241  0.74467941  0.38405536  1
  H+  H27  1  0.17627633  0.03064221  0.32915298  1
  H+  H28  1  0.62456676  0.48312897  0.49199662  1
  H+  H29  1  0.88582341  0.11089410  0.32479968  1
  H+  H30  1  0.13655870  0.72443880  0.33488736  1
  H+  H31  1  0.37720280  0.59389320  0.96449862  1
  H+  H32  1  0.88965528  0.36368351  0.31885645  1
  H+  H33  1  0.76574324  0.87081100  0.66524987  1
  H+  H34  1  0.46407446  0.35041347  0.17253273  1
  H+  H35  1  0.13106775  0.60622295  0.83542663  1
  H+  H36  1  0.11459286  0.71961688  0.15648088  1
  H+  H37  1  0.33223825  0.41368164  0.43883779  1
  H+  H38  1  0.85722524  0.16202299  0.70219717  1
  H+  H39  1  0.58641550  0.91544871  0.73267164  1
  H+  H40  1  -0.02506114  0.35826222  0.32079915  1
  H+  H41  1  0.13887176  0.52859132  0.16505073  1
  H+  H42  1  0.39096283  0.27772589  0.65352552  1
  H+  H43  1  0.29610085  0.87905167  0.49724080  1
  H+  H44  1  1.00108083  0.11372619  0.67924028  1
  H+  H45  1  0.08280720  0.41578759  0.39806309  1
  H+  H46  1  0.75348240  0.37595257  0.15769965  1
  H+  H47  1  0.37632221  0.72309571  -0.03635683  1
  H+  H48  1  0.61358999  0.88209715  0.15822354  1
  H+  H49  1  0.88355026  1.01283856  0.47765555  1
  H+  H50  1  0.84234418  0.22016507  0.14906601  1
  H+  H51  1  0.13537024  0.29729584  0.90647693  1
  H+  H52  1  0.39125542  -0.02980634  1.00458530  1
  H+  H53  1  0.12817058  0.12470759  0.15978315  1
  H+  H54  1  0.07258304  0.87251988  0.53184757  1
  H+  H55  1  0.10893012  0.13680905  0.83030990  1
  H+  H56  1  0.09545673  0.17546573  0.43097256  1
  H+  H57  1  0.72624836  0.14286759  0.85084691  1
  H+  H58  1  0.36640754  0.88533837  0.82228497  1
  H+  H59  1  0.84802926  0.46736470  0.15928420  1
  H+  H60  1  0.38274065  0.61869753  0.66161024  1
  H+  H61  1  0.77489653  0.63418014  0.50108406  1
  H+  H62  1  0.52746874  0.13686220  0.48647974  1
  H+  H63  1  0.36680596  0.73426915  0.18480262  1
  H+  H64  1  0.09899085  0.66764065  0.43168509  1
  H+  H65  1  0.40394304  0.02349761  0.51642635  1
  H+  H66  1  0.39031195  0.16896801  0.02121206  1
  H+  H67  1  0.37874941  0.60847675  0.18814011  1
  H+  H68  1  0.36762892  0.99389454  0.33570664  1
  H+  H69  1  0.33276558  0.46566186  1.00700333  1
  H+  H70  1  0.16467567  0.15740469  0.68511769  1
  H+  H71  1  0.01206565  0.37270866  0.01147723  1
  H+  H72  1  0.14962968  0.36553018  0.66993044  1
  H+  H73  1  0.75751235  0.11980731  0.32674440  1
  H+  H74  1  0.02786526  0.86012295  0.35881812  1
  H+  H75  1  0.62274240  0.56653331  0.64906940  1
  H+  H76  1  0.61847169  0.38741069  -0.00047325  1
  H+  H77  1  1.00027293  0.61649029  0.32601087  1
  H+  H78  1  0.61459502  -0.02874907  0.16647599  1
  H+  H79  1  0.52487384  0.63980489  0.99450845  1
  H+  H80  1  0.89555427  0.29427998  0.66312111  1
  H+  H81  1  0.90317021  0.77775417  0.18614436  1
  H+  H82  1  0.63882654  0.10433284  0.18071771  1
  H+  H83  1  0.27462989  0.38121866  0.49966309  1
  H+  H84  1  0.87566384  0.52406512  0.46543786  1
  H+  H85  1  0.67450966  0.59068893  0.30835801  1
  H+  H86  1  0.48482768  0.87326079  0.33686591  1
  H+  H87  1  0.36465594  0.73110119  0.67566836  1
  H+  H88  1  0.58006900  0.61216062  0.32651339  1
  H+  H89  1  0.61439290  0.47071822  0.81259505  1
  H+  H90  1  0.84779208  0.91710997  0.10328332  1
  H+  H91  1  0.27165175  0.38707885  0.34717872  1
  H+  H92  1  0.78250042  0.87333434  0.33035838  1
  H+  H93  1  0.38767740  0.77472320  0.83816210  1
  H+  H94  1  0.09938431  0.46578363  0.83546484  1
  H+  H95  1  0.35392563  0.39023788  0.82974508  1
  H+  H96  1  0.53928861  0.14341417  0.16732552  1
  H+  H97  1  0.12144324  0.63402575  0.49278680  1
  H+  H98  1  0.08618081  0.66843624  0.76489055  1
  H+  H99  1  0.81606670  0.65716725  0.22830143  1
  H+  H100  1  0.88341551  0.52872626  0.99654478  1
  H+  H101  1  0.80186425  0.63249442  0.34842450  1
  H+  H102  1  0.58726335  0.41437164  0.75186572  1
  H+  H103  1  0.87609235  0.41117745  0.66134512  1
  H+  H104  1  0.39675011  0.36596010  0.50531034  1
  H+  H105  1  0.48674080  -0.00337284  0.99962711  1
  H+  H106  1  0.88291457  0.75836030  0.99212369  1
  H+  H107  1  0.63380193  0.87047639  0.65313000  1
  H+  H108  1  0.63319583  0.35620255  0.65433451  1
  H+  H109  1  0.86959535  0.38986581  1.00845750  1
  H+  H110  1  0.87468224  0.14228614  1.00300951  1
  H+  H111  1  0.15496079  0.76693228  0.49963059  1
  H+  H112  1  0.60276419  0.71363805  0.17143395  1
  H+  H113  1  0.69968057  0.58878111  0.17337631  1
  H+  H114  1  0.12809012  0.17110721  0.32625452  1
  H+  H115  1  0.60625234  0.71281500  0.49245892  1
  H+  H116  1  0.10677926  0.50675884  0.99153531  1
  H+  H117  1  0.36866559  0.38841633  0.66762100  1
  H+  H118  1  0.52485589  0.63389941  0.82608945  1
  H+  H119  1  0.52009063  0.62286646  0.49704332  1
  H+  H120  1  0.27382450  0.64192527  0.67434227  1
  H+  H121  1  0.48848632  0.11895532  0.67335518  1
  H+  H122  1  0.10114367  0.66691298  0.09686900  1
  H+  H123  1  0.84545259  -0.04179496  0.65314458  1
  H+  H124  1  0.73552603  0.85950200  0.17129172  1
  H+  H125  1  0.89642997  -0.00596576  1.00470049  1
  H+  H126  1  0.86157592  0.72843197  0.82270416  1
  H+  H127  1  0.23685940  0.86574735  0.31717142  1
  H+  H128  1  0.59411259  0.47004998  0.32810357  1
  H+  H129  1  0.27530268  0.64670122  0.18350072  1
  H+  H130  1  0.87339849  0.88643809  0.16314987  1
  H+  H131  1  0.89288449  0.63888179  0.34223056  1
  H+  H132  1  0.70573604  0.64649798  0.40029617  1
  H+  H133  1  0.60517917  -0.00479685  1.01456511  1
  H+  H134  1  0.71924338  0.85427726  0.49795984  1
  H+  H135  1  0.03758853  0.39651458  0.68421088  1
  H+  H136  1  0.88306728  0.86805249  0.84024282  1
  H+  H137  1  0.13687777  0.27051573  0.51038757  1
  H+  H138  1  0.48132227  0.86510484  0.66381147  1
  H+  H139  1  0.36829430  0.88794338  0.66927661  1
  H+  H140  1  0.75070847  0.35232177  0.47792815  1
  H+  H141  1  0.90610706  0.77335304  0.32987826  1
  H+  H142  1  0.61160796  0.63788569  -0.00960975  1
  H+  H143  1  0.63635530  0.36764858  0.50402302  1
  H+  H144  1  0.35749286  0.63291303  0.81930786  1
  H+  H145  1  0.73765772  0.11751529  -0.00539759  1
  H+  H146  1  0.11984501  0.73129688  0.66901056  1
  H+  H147  1  0.40758814  0.28137574  0.50643012  1
  H+  H148  1  0.11322094  0.37986491  0.49761569  1
  H+  H149  1  0.97863180  0.80585663  0.96792992  1
  H+  H150  1  1.03496256  0.89812915  0.66790030  1
  H+  H151  1  0.35262757  0.99434153  0.16106680  1
  H+  H152  1  0.89908665  0.87115474  0.66270334  1
  H+  H153  1  0.38907975  0.00191447  0.84733196  1
  H+  H154  1  0.67277750  0.82982914  0.38191255  1
  H+  H155  1  0.22232502  0.86730816  -0.00766557  1
  H+  H156  1  0.91554772  0.66078615  0.52039774  1
  H+  H157  1  0.14319184  0.52573052  0.66632358  1
  H+  H158  1  0.88042633  0.50732202  0.49559473  1
  H+  H159  1  0.11920291  0.93775815  0.37342379  1
  H+  H160  1  0.53882274  0.13110897  0.02078182  1
  H+  H161  1  0.10010669  0.89150424  0.82736546  1
  H+  H162  1  0.73681654  0.36671139  0.99226028  1
  H+  H163  1  0.72916864  0.61054899  0.83795286  1
  H+  H164  1  1.01780665  0.16571787  0.17969199  1
  H+  H165  1  0.72846368  0.36824434  0.65576831  1
  H+  H166  1  0.12898238  0.61136775  0.17143281  1
  H+  H167  1  0.12603650  0.32984528  0.17534386  1
  H+  H168  1  0.52427502  0.37764894  0.66042795  1
  H+  H169  1  0.77413286  0.88941264  0.83707317  1
  H+  H170  1  0.61525131  0.98043312  0.67412758  1
  H+  H171  1  0.88583657  0.61624859  0.83700099  1
  H+  H172  1  -0.00345058  0.15330233  0.68005233  1
  H+  H173  1  0.48774794  0.38103946  0.97084618  1
  H+  H174  1  0.39762097  0.87522413  0.33635770  1
  H+  H175  1  0.02953476  0.14537218  0.33924926  1
  H+  H176  1  0.26488965  0.23452552  0.28012087  1
  H+  H177  1  0.75133845  0.09715511  0.50223910  1
  H+  H178  1  0.64890361  0.27766834  0.99294186  1
  H+  H179  1  0.37959228  0.51128179  0.50969749  1
  H+  H180  1  0.27571672  0.14597673  0.82849997  1
  H+  H181  1  0.40790519  0.07746202  0.26158315  1
  H+  H182  1  0.02365704  0.37808243  0.49408934  1
  H+  H183  1  0.68469745  0.33445426  0.38201002  1
  H+  H184  1  0.14085147  0.84407968  0.32220633  1
  H+  H185  1  0.10836692  0.33661112  1.02013287  1
  H+  H186  1  0.99287772  0.62272172  0.66335329  1
  H+  H187  1  1.00491251  0.65707534  0.51583400  1
  H+  H188  1  0.39150556  0.15133859  0.50049961  1
  H+  H189  1  0.37424555  0.84379885  -0.01077069  1
  H+  H190  1  0.28113538  0.89170963  0.66915936  1
  H+  H191  1  0.36215426  0.39154872  0.34539714  1
  H+  H192  1  0.80426950  0.05795569  0.59606449  1
  H+  H193  1  0.22879817  0.60928065  0.50112384  1
  H+  H194  1  0.21879097  0.60425571  0.83763439  1
  H+  H195  1  0.89507666  1.02678076  0.32135638  1
  H+  H196  1  0.14220276  0.86892657  0.65740312  1
  H+  H197  1  0.62454601  0.77836169  0.65556168  1
  H+  H198  1  0.03216430  0.91463885  0.01169643  1
  H+  H199  1  0.14360748  0.21817896  0.15904150  1
  H+  H200  1  0.90683916  0.53028838  0.32451199  1
  H+  H201  1  0.10776043  0.22673803  0.82911929  1
  H+  H202  1  0.13670511  0.64562365  0.00628299  1
  H+  H203  1  0.14034529  0.37276969  0.32699253  1
  H+  H204  1  0.60819125  0.15206500  0.84972843  1
  H+  H205  1  0.86841511  0.77110370  0.50861226  1
  H+  H206  1  0.13831202  0.63697002  0.34144167  1
  H+  H207  1  0.26163870  0.38444463  0.84368011  1
  H+  H208  1  0.63443311  0.36764770  0.34132020  1
  H+  H209  1  0.14504243  0.88957520  -0.00497888  1
  H+  H210  1  0.48308098  0.86883493  0.18012615  1
  H+  H211  1  0.77276835  0.15665385  0.67422472  1
  H+  H212  1  0.62796613  0.75062501  0.33785246  1
  H+  H213  1  0.88504688  0.12776825  0.84184500  1
  H+  H214  1  0.27155314  0.39048790  0.16233432  1
  H+  H215  1  0.63942862  0.60832174  0.83813557  1
  H+  H216  1  0.31763068  0.65691763  -0.08564433  1
  H+  H217  1  0.00668762  0.38087511  0.83607113  1
  H+  H218  1  0.64043110  0.11691756  0.63672677  1
  H+  H219  1  0.52565765  0.88234493  0.81866323  1
  H+  H220  1  0.37137563  0.51391046  0.82208174  1
  H+  H221  1  0.14552489  1.04267052  0.34370439  1
  H+  H222  1  0.38611844  0.36790590  0.17527870  1
  H+  H223  1  0.68829608  0.59912150  0.40392091  1
  H+  H224  1  1.01679531  0.89715772  0.82116180  1
  H+  H225  1  0.60959815  0.22797748  0.48089908  1
  H+  H226  1  0.40126155  0.02804557  0.66517338  1
  H+  H227  1  0.14237306  0.03190866  0.66461352  1
  H+  H228  1  0.10264053  0.71879990  0.82831569  1
  H+  H229  1  0.83525123  0.41020311  0.38530548  1
  H+  H230  1  0.86751860  0.35759826  0.16820588  1
  H+  H231  1  0.61119482  0.88922688  0.33854351  1
  H+  H232  1  0.35895238  0.48479131  0.16301418  1
  H+  H233  1  0.13450008  0.06926104  1.00359193  1
  H+  H234  1  0.83252145  0.33971635  0.46831653  1
  H+  H235  1  0.25975011  0.07777645  0.18190908  1
  H+  H236  1  0.37645893  0.14554629  0.66233175  1
  H+  H237  1  0.31520321  0.42069336  0.08065230  1
  H+  H238  1  0.74534447  0.87183416  -0.00949487  1
  H+  H239  1  0.49072910  0.85650059  0.50737051  1
  H+  H240  1  0.97764206  0.60984267  0.16424819  1
  H+  H241  1  0.42333006  0.34211918  0.59680197  1
  H+  H242  1  0.75421195  0.60878416  0.67281413  1
  H+  H243  1  0.24342256  0.37322199  0.66180802  1
  H+  H244  1  0.36808851  0.47743742  0.66989845  1
  H+  H245  1  0.12987463  0.02994308  0.84491819  1
  H+  H246  1  0.31437734  0.25898466  0.07661886  1
  H+  H247  1  0.47240605  0.86695216  0.99123105  1
  H+  H248  1  0.89271860  0.90423822  0.00212734  1
  H+  H249  1  0.61309331  0.87834006  0.48663521  1
  H+  H250  1  0.28629495  0.14282080  0.66244157  1
  H+  H251  1  0.64181758  0.10146631  0.32177830  1
  H+  H252  1  0.63479620  0.52031539  0.99120809  1
  H+  H253  1  0.60913918  0.65668158  0.67155674  1
  H+  H254  1  0.33491127  0.52601570  0.33954309  1
  H+  H255  1  0.86161583  0.97965382  0.83749207  1
  H+  H256  1  0.78576614  0.40137530  0.32635312  1
  H+  H257  1  0.38898723  0.32025444  0.97877369  1
  H+  H258  1  0.12342574  0.87972348  0.15111188  1
  H+  H259  1  0.16576037  0.25534837  0.68691794  1
  H+  H260  1  0.85260470  0.63268338  0.67650149  1
  H+  H261  1  0.84788340  0.87905553  0.48523827  1
  H+  H262  1  0.89828919  0.32322258  0.22588184  1
  H+  H263  1  0.41447435  0.57820337  0.76648412  1
  H+  H264  1  0.13772790  0.28335230  0.33051144  1
  H+  H265  1  0.13277312  0.73342575  0.00930026  1
  H+  H266  1  0.87665453  0.48940508  0.81491342  1
  H+  H267  1  0.53240240  0.39592717  0.49271843  1
  H+  H268  1  0.62531035  0.98860946  0.33470108  1
  H+  H269  1  0.14189833  0.51839145  0.50553526  1
  H+  H270  1  0.11582995  0.34853732  0.85256959  1
  H+  H271  1  0.95322392  0.86305256  0.50999398  1
  H+  H272  1  0.85200045  0.21454792  0.32603221  1
  H+  H273  1  0.36551753  0.22513769  0.34523961  1
  H+  H274  1  -0.02924373  0.12146643  0.83254042  1
  H+  H275  1  0.68840115  0.08120729  0.59454093  1
  H+  H276  1  0.86735858  0.25040655  0.84317217  1
  H+  H277  1  0.42575169  0.82843441  0.60334815  1
  H+  H278  1  1.02587140  0.13585376  0.48311017  1
  H+  H279  1  0.89446067  0.52639556  0.65554933  1
  H+  H280  1  0.91661893  0.83088213  0.89369661  1
  H+  H281  1  0.29947866  0.95462317  0.38797503  1
  H+  H282  1  0.36628539  0.88432132  0.15416007  1
  H+  H283  1  0.67373135  0.84303050  0.90364719  1
  H+  H284  1  0.85040588  0.33342593  0.87428961  1
  H+  H285  1  0.23357001  0.85322555  0.15910858  1
  H+  H286  1  0.85278546  0.44214736  0.72410174  1
  H+  H287  1  0.86437927  0.63447606  0.17950936  1
  H+  H288  1  0.56336000  0.93261923  0.07256196  1
  H+  H289  1  0.94541214  0.83869299  0.27294609  1
  H+  H290  1  0.43049692  0.03574817  0.91721161  1
  H+  H291  1  0.66313079  0.33276094  0.22013204  1
  H+  H292  1  0.66423032  0.57523177  0.92978378  1
  H+  H293  1  0.46835119  0.35890581  0.32792321  1
  H+  H294  1  0.82886966  0.15802900  0.40947676  1
  H+  H295  1  0.83169752  0.16535630  0.06023473  1
  H+  H296  1  0.48727642  0.10695940  0.85749222  1
  H+  H297  1  0.66404998  0.33059214  0.56193534  1
  H+  H298  1  0.67893043  0.83833181  0.23078285  1
  H+  H299  1  0.43746657  0.08708734  0.57347942  1
  H+  H300  1  0.32296499  0.65397405  0.06792842  1
  H+  H301  1  0.12994926  0.97030421  0.16204715  1
  H+  H302  1  0.32458013  0.67076661  0.76938566  1
  H+  H303  1  0.08856233  0.41808724  0.74589476  1
  H+  H304  1  0.56548686  0.64350871  0.39145992  1
  H+  H305  1  0.40375711  0.85782958  0.51289755  1
  H+  H306  1  0.36328152  0.91475696  0.44283843  1
  H+  H307  1  0.26551934  0.80306885  0.03064125  1
  H+  H308  1  0.38307760  0.60097932  0.50192773  1
  H+  H309  1  0.20634426  0.15128634  0.24245156  1
  H+  H310  1  0.66056141  0.82825228  0.55880390  1
  H+  H311  1  -0.00436891  0.36403245  0.16412474  1
  H+  H312  1  0.16783013  0.32954581  0.57112854  1
  H+  H313  1  0.67428438  0.57268601  0.57108298  1
  H+  H314  1  0.32355859  0.89062851  0.08662523  1
  H+  H315  1  0.94165866  0.61715606  0.59790257  1
  H+  H316  1  0.58762945  0.91964351  0.43034008  1
  H+  H317  1  0.93110129  0.58417709  0.22847496  1
  H+  H318  1  0.42214761  0.83913413  0.89442080  1
  H+  H319  1  0.88454636  0.40453481  0.80907557  1
  H+  H320  1  0.97372662  0.61286018  0.83719701  1
  H+  H321  1  0.59817508  0.17382025  0.07867971  1
  H+  H322  1  0.57705420  0.40453739  0.05841343  1
  H+  H323  1  1.00150938  0.15145709  0.98026774  1
  H+  H324  1  0.90233914  0.06978936  0.53553854  1
  H+  H325  1  0.42172313  0.34791637  0.87496138  1
  H+  H326  1  0.89499806  0.10168400  0.63050776  1
  H+  H327  1  0.41069576  0.33424649  0.26792919  1
  H+  H328  1  0.12801338  0.18915357  0.75118723  1
  H+  H329  1  0.94887915  0.35400608  0.60696375  1
  H+  H330  1  0.09189833  0.92504741  0.72848359  1
  H+  H331  1  0.13279069  0.56103210  0.92987489  1
  H+  H332  1  0.37087066  0.67565917  0.06969967  1
  H+  H333  1  0.19224435  0.03524054  0.23971961  1
  H+  H334  1  0.46438958  0.60243566  0.18961361  1
  H+  H335  1  0.17622879  0.82731743  0.22001007  1
  H+  H336  1  0.90866903  0.58411603  0.93673900  1
  H+  H337  1  0.76025732  0.12626686  0.15165504  1
  H+  H338  1  0.41184109  0.58592801  0.60239215  1
  H+  H339  1  0.13996694  0.15956219  0.98474693  1
  H+  H340  1  0.16326823  0.09187037  0.60428972  1
  H+  H341  1  0.47410231  0.37274010  0.81341453  1
  H+  H342  1  0.34164568  0.92456530  0.76633429  1
  H+  H343  1  0.83216490  0.41376184  0.06683407  1
  H+  H344  1  0.59281653  0.62073153  0.16630640  1
  H+  H345  1  0.16106486  0.09552319  0.90290444  1
  H+  H346  1  0.06918091  0.88719119  0.45940701  1
  H+  H347  1  0.57546727  0.15926716  0.38924336  1
  H+  H348  1  0.99490500  0.86427164  0.17631210  1
  H+  H349  1  0.66363990  1.00718734  0.51172346  1
  H+  H350  1  0.51457768  0.64350415  0.67271683  1
  H+  H351  1  0.13220239  0.11660388  0.51144547  1
  H+  H352  1  0.57942136  0.42050814  0.39470144  1
  H+  H353  1  0.06818286  0.40478326  0.07334984  1
  H+  H354  1  0.62827726  0.55167464  0.22786991  1
  H+  H355  1  0.09345169  0.93816878  0.06844261  1
  H+  H356  1  0.17365502  0.57674769  0.26778058  1
  H+  H357  1  0.62770682  0.23966244  0.16530045  1
  H+  H358  1  0.85326483  0.63717995  0.00498346  1
  H+  H359  1  0.82432938  0.18829001  0.78377764  1
  H+  H360  1  0.56384890  0.18331227  0.79826476  1
  H+  H361  1  0.92296500  0.33588571  0.93550275  1
  H+  H362  1  0.62022635  0.46293326  0.65398146  1
  H+  H363  1  0.35931291  0.17764035  0.44076232  1
  H+  H364  1  0.58911968  0.67397017  0.77269425  1
  H+  H365  1  0.11955165  0.64069134  0.66978791  1
  H+  H366  1  0.17352793  0.83691066  0.59895166  1
  H+  H367  1  0.40532540  0.53193574  0.93278988  1
  H+  H368  1  0.16984292  0.57822687  0.60271404  1
  H+  H369  1  0.66781753  0.06956266  0.23945507  1
  H+  H370  1  0.35946850  0.57667341  0.27905614  1
  H+  H371  1  0.82746785  0.90598024  0.41971762  1
  H+  H372  1  0.17255699  0.32862284  0.23581006  1
  H+  H373  1  0.96518171  0.14616425  0.23941486  1
  H+  H374  1  0.36240545  0.22814844  0.81516951  1
  H+  H375  1  0.23714069  0.36904213  1.02297084  1
  H+  H376  1  0.42511338  0.84769448  0.24051144  1
  H+  H377  1  0.66681405  0.10430104  0.90853465  1
  H+  H378  1  0.13092896  0.82275655  0.90859138  1
  H+  H379  1  0.60092556  0.36512301  0.15247397  1
  H+  H380  1  0.82477579  0.65982572  0.76680245  1
  H+  H381  1  0.93162473  0.09951920  0.92999064  1
  H+  H382  1  0.92185421  0.84155036  0.60273144  1
  H+  H383  1  0.86730068  0.28756469  0.54419635  1
  O2-  O384  1  0.11053701  0.16138462  0.13928019  1
  O2-  O385  1  0.08907172  0.17188167  0.47643546  1
  O2-  O386  1  0.08357079  0.16895681  0.80800591  1
  O2-  O387  1  0.06117643  0.39454780  0.15929221  1
  O2-  O388  1  0.08433335  0.41146163  0.48152892  1
  O2-  O389  1  0.06737345  0.40455048  0.82171270  1
  O2-  O390  1  0.08294477  0.65893634  0.14123636  1
  O2-  O391  1  0.09760919  0.67018209  0.47728441  1
  O2-  O392  1  0.08227009  0.66125267  0.80980435  1
  O2-  O393  1  0.09351974  0.91306801  0.14218673  1
  O2-  O394  1  0.06315138  0.90591700  0.50106680  1
  O2-  O395  1  0.07931209  0.92812708  0.80910822  1
  O2-  O396  1  0.33899046  0.09714943  0.15666175  1
  O2-  O397  1  0.36707489  0.18635053  0.48562895  1
  O2-  O398  1  0.33443888  0.16473063  0.81512513  1
  O2-  O399  1  0.32955113  0.42502540  0.14248531  1
  O2-  O400  1  0.33505551  0.41390684  0.48493885  1
  O2-  O401  1  0.32406429  0.42385843  0.83909313  1
  O2-  O402  1  0.33779939  0.67089811  0.18090918  1
  O2-  O403  1  0.33471616  0.68187489  0.46229206  1
  O2-  O404  1  0.32531882  0.66516821  0.81468546  1
  O2-  O405  1  0.33006620  0.90526236  0.13467621  1
  O2-  O406  1  0.35871754  0.91314386  0.48740068  1
  O2-  O407  1  0.33872969  0.91974170  0.81122465  1
  O2-  O408  1  0.59888291  0.17112152  0.15404980  1
  O2-  O409  1  0.58192922  0.16954896  0.46323420  1
  O2-  O410  1  0.56146839  0.16871864  0.84148438  1
  O2-  O411  1  0.56503465  0.39066775  0.13745654  1
  O2-  O412  1  0.59219733  0.42314564  0.47517352  1
  O2-  O413  1  0.57809857  0.41210320  0.79642539  1
  O2-  O414  1  0.56171341  0.65312059  0.16208198  1
  O2-  O415  1  0.57925566  0.65137927  0.48040629  1
  O2-  O416  1  0.58730041  0.66672429  0.81732158  1
  O2-  O417  1  0.58065410  0.91140929  0.14855956  1
  O2-  O418  1  0.58737297  0.91502730  0.47630371  1
  O2-  O419  1  0.58368067  0.90786480  0.80025378  1
  O2-  O420  1  0.81375821  0.16355798  0.12862476  1
  O2-  O421  1  0.83632589  0.15901821  0.45666028  1
  O2-  O422  1  0.83348448  0.18341743  0.82703219  1
  O2-  O423  1  0.81905272  0.40784926  0.14400419  1
  O2-  O424  1  0.79490285  0.35710095  0.44803381  1
  O2-  O425  1  0.86103069  0.43786890  0.78892179  1
  O2-  O426  1  0.83115798  0.66554128  0.18543783  1
  O2-  O427  1  0.83824779  0.67161293  0.48793872  1
  O2-  O428  1  0.83315693  0.66609395  0.81267341  1
  O2-  O429  1  0.83685444  0.90852260  0.14751132  1
  O2-  O430  1  0.81969403  0.90896998  0.46465517  1
  O2-  O431  1  0.83639933  0.91846960  0.82658837  1
  O2-  O432  1  0.19696256  0.06199330  0.20027513  1
  O2-  O433  1  0.15571760  0.08452111  0.53354093  1
  O2-  O434  1  0.15658767  0.09108504  0.85778158  1
  O2-  O435  1  0.17574587  0.32653120  0.19041606  1
  O2-  O436  1  0.16661662  0.33119356  0.52573770  1
  O2-  O437  1  0.14778963  0.31811952  0.86276986  1
  O2-  O438  1  0.15897904  0.58097592  0.18907389  1
  O2-  O439  1  0.17162565  0.57889930  0.52091332  1
  O2-  O440  1  0.15780138  0.57296070  0.85127705  1
  O2-  O441  1  0.17201464  0.82460687  0.17507984  1
  O2-  O442  1  0.18854270  0.82917354  0.51453062  1
  O2-  O443  1  0.10125683  0.80262859  0.86746479  1
  O2-  O444  1  0.36799929  0.04784846  0.18707160  1
  O2-  O445  1  0.43391438  0.08464553  0.52797212  1
  O2-  O446  1  0.42274545  0.05445038  0.87576549  1
  O2-  O447  1  0.40794290  0.33227564  0.19309762  1
  O2-  O448  1  0.43407238  0.34393462  0.52058226  1
  O2-  O449  1  0.41360964  0.34495941  0.82968935  1
  O2-  O450  1  0.40108697  0.56927318  0.20017285  1
  O2-  O451  1  0.40970498  0.57344338  0.52429100  1
  O2-  O452  1  0.40979281  0.57911412  0.81056617  1
  O2-  O453  1  0.42267920  0.84561080  0.19550588  1
  O2-  O454  1  0.43108007  0.82334679  0.52520873  1
  O2-  O455  1  0.42061413  0.83665777  0.84862487  1
  O2-  O456  1  0.66429161  0.06840844  0.19246265  1
  O2-  O457  1  0.71178584  0.05656321  0.53394631  1
  O2-  O458  1  0.66527246  0.11544598  0.86415914  1
  O2-  O459  1  0.66318426  0.32682857  0.17624506  1
  O2-  O460  1  0.66300228  0.33233924  0.51673399  1
  O2-  O461  1  0.73332971  0.30795771  0.88925716  1
  O2-  O462  1  0.63779623  0.55476181  0.18062657  1
  O2-  O463  1  0.67996625  0.58238870  0.52224080  1
  O2-  O464  1  0.66789906  0.57587652  0.85129809  1
  O2-  O465  1  0.67447445  0.83231854  0.18674263  1
  O2-  O466  1  0.65880435  0.82262817  0.51322061  1
  O2-  O467  1  0.66814343  0.83837988  0.85744629  1
  O2-  O468  1  0.98949052  0.18815887  0.20623856  1
  O2-  O469  1  0.91700038  0.07442751  0.49168899  1
  O2-  O470  1  0.91447472  0.09472403  0.85344479  1
  O2-  O471  1  0.89732895  0.32479253  0.18068137  1
  O2-  O472  1  0.90364735  0.30586563  0.50822911  1
  O2-  O473  1  0.90400429  0.33517507  0.86224254  1
  O2-  O474  1  0.91978397  0.58265827  0.18420925  1
  O2-  O475  1  0.96456452  0.66273352  0.54369390  1
  O2-  O476  1  0.91392282  0.58374122  0.85269289  1
  O2-  O477  1  0.93848004  0.83920455  0.19818227  1
  O2-  O478  1  0.89162879  0.83258972  0.52135303  1
  O2-  O479  1  0.91582187  0.83575972  0.84883339  1
  O2-  O480  1  0.20526399  0.19168096  0.27241090  1
  O2-  O481  1  0.17111789  0.09312422  0.65042185  1
  O2-  O482  1  0.16787152  0.12378045  0.98129650  1
  O2-  O483  1  0.17210800  0.34301861  0.31394137  1
  O2-  O484  1  0.17842223  0.33648580  0.65098825  1
  O2-  O485  1  0.14102282  0.30343483  1.02250803  1
  O2-  O486  1  0.18224016  0.57611311  0.31244572  1
  O2-  O487  1  0.16918210  0.58439036  0.64773616  1
  O2-  O488  1  0.11119108  0.55794127  0.97168635  1
  O2-  O489  1  0.17788871  0.82603820  0.30149922  1
  O2-  O490  1  0.17023977  0.83499482  0.64377373  1
  O2-  O491  1  0.16248802  0.85012685  0.97694271  1
  O2-  O492  1  0.41740299  0.08142041  0.30615230  1
  O2-  O493  1  0.43435318  0.08840276  0.64994960  1
  O2-  O494  1  0.44698617  0.01791975  0.98996244  1
  O2-  O495  1  0.40720136  0.33171276  0.31394857  1
  O2-  O496  1  0.42119817  0.34125743  0.64232865  1
  O2-  O497  1  0.43191065  0.36457490  0.95141023  1
  O2-  O498  1  0.33211983  0.57303626  0.31879605  1
  O2-  O499  1  0.41603942  0.59059678  0.64777469  1
  O2-  O500  1  0.39751468  0.55115366  0.97251734  1
  O2-  O501  1  0.42165140  0.83879667  0.32589333  1
  O2-  O502  1  0.42051719  0.83207776  0.64835810  1
  O2-  O503  1  0.41683284  0.82939598  0.96953770  1
  O2-  O504  1  0.67110442  0.06999719  0.30967898  1
  O2-  O505  1  0.67882574  0.09335331  0.63876902  1
  O2-  O506  1  0.67484655  0.09073303  0.98449153  1
  O2-  O507  1  0.67099753  0.33874141  0.33963789  1
  O2-  O508  1  0.66904270  0.32723395  0.64325520  1
  O2-  O509  1  0.67656743  0.33649981  0.97568137  1
  O2-  O510  1  0.61606352  0.55131954  0.29581518  1
  O2-  O511  1  0.66770550  0.55691991  0.63373654  1
  O2-  O512  1  0.66356700  0.58047775  0.97500011  1
  O2-  O513  1  0.66774480  0.81722432  0.33851267  1
  O2-  O514  1  0.65791255  0.83526251  0.63556595  1
  O2-  O515  1  0.68606909  0.84785787  0.97582307  1
  O2-  O516  1  0.92624217  0.08941754  0.31487341  1
  O2-  O517  1  0.85452247  0.05251367  0.60643291  1
  O2-  O518  1  0.94174078  0.10296217  0.97506689  1
  O2-  O519  1  0.91508790  0.32852227  0.30499047  1
  O2-  O520  1  0.93319242  0.35513809  0.64923422  1
  O2-  O521  1  0.92263600  0.33412363  0.98189874  1
  O2-  O522  1  0.93988119  0.59233105  0.31144624  1
  O2-  O523  1  0.93249819  0.59475099  0.64451477  1
  O2-  O524  1  0.90772954  0.58857017  0.98151600  1
  O2-  O525  1  0.94103049  0.83529058  0.31901700  1
  O2-  O526  1  0.93921028  0.85309651  0.64569189  1
  O2-  O527  1  0.93229417  0.81823677  0.97411677  1
  O2-  O528  1  0.11151040  0.24268211  -0.02875596  1
  O2-  O529  1  0.08997135  0.17993687  0.35470361  1
  O2-  O530  1  0.16676440  0.20748295  0.71147910  1
  O2-  O531  1  0.07324461  0.40062926  0.02916638  1
  O2-  O532  1  0.08098944  0.41617197  0.35297859  1
  O2-  O533  1  0.09678429  0.42406695  0.70037966  1
  O2-  O534  1  0.14994461  0.69754562  0.03213118  1
  O2-  O535  1  0.10599390  0.66636919  0.35397098  1
  O2-  O536  1  0.08844387  0.67052549  0.68454100  1
  O2-  O537  1  0.09272561  0.94982088  0.02382738  1
  O2-  O538  1  0.08263256  0.87636047  0.38226126  1
  O2-  O539  1  0.09685420  0.92562953  0.68327945  1
  O2-  O540  1  0.32294999  0.24189607  0.03658126  1
  O2-  O541  1  0.34243900  0.16741736  0.36380858  1
  O2-  O542  1  0.34852112  0.18024411  0.66817371  1
  O2-  O543  1  0.30115668  0.41083173  0.03233283  1
  O2-  O544  1  0.33079374  0.41809720  0.36490200  1
  O2-  O545  1  0.33545862  0.41666184  0.68205555  1
  O2-  O546  1  0.34401148  0.66031223  -0.04651359  1
  O2-  O547  1  0.30731574  0.71789152  0.41259357  1
  O2-  O548  1  0.33331998  0.67031030  0.69132270  1
  O2-  O549  1  0.30548132  0.86488414  0.02434359  1
  O2-  O550  1  0.32908083  0.93712418  0.35921793  1
  O2-  O551  1  0.34138901  0.92161287  0.68387434  1
  O2-  O552  1  0.59762109  0.17382140  0.03268504  1
  O2-  O553  1  0.57606055  0.15760181  0.34308384  1
  O2-  O554  1  0.58880794  0.18645708  0.71049789  1
  O2-  O555  1  0.58614085  0.41567581  0.01366379  1
  O2-  O556  1  0.57522631  0.41080344  0.34993943  1
  O2-  O557  1  0.58623421  0.40180630  0.67211868  1
  O2-  O558  1  0.58722214  0.67614443  -0.00253214  1
  O2-  O559  1  0.56671929  0.65442062  0.34746649  1
  O2-  O560  1  0.57458563  0.67824712  0.69019515  1
  O2-  O561  1  0.55127251  0.94538853  0.03088992  1
  O2-  O562  1  0.58728199  0.92389730  0.35459906  1
  O2-  O563  1  0.58508329  0.91922708  0.68526659  1
  O2-  O564  1  0.84013816  0.16940569  0.01405767  1
  O2-  O565  1  0.82393707  0.15500907  0.34185803  1
  O2-  O566  1  0.82998402  0.19599847  0.69374679  1
  O2-  O567  1  0.83774780  0.41920346  0.02152219  1
  O2-  O568  1  0.84599963  0.42720103  0.34098655  1
  O2-  O569  1  0.84768747  0.44305707  0.67582533  1
  O2-  O570  1  0.82679882  0.67287133  0.01662996  1
  O2-  O571  1  0.86205348  0.66920910  0.35899327  1
  O2-  O572  1  0.81025284  0.64362737  0.69582147  1
  O2-  O573  1  0.86483634  0.93387387  0.01994102  1
  O2-  O574  1  0.84296461  0.91091186  0.34356885  1
  O2-  O575  1  0.82733871  0.90495456  0.67566432  1
