# generated using pymatgen
data_H2O
_symmetry_space_group_name_H-M   'P 1'
_cell_length_a   17.99352521
_cell_length_b   17.98849301
_cell_length_c   22.00351645
_cell_angle_alpha   90.00167320
_cell_angle_beta   89.99244576
_cell_angle_gamma   119.98403817
_symmetry_Int_Tables_number   1
_chemical_formula_structural   H2O
_chemical_formula_sum   'H384 O192'
_cell_volume   6168.84116831
_cell_formula_units_Z   192
loop_
 _symmetry_equiv_pos_site_id
 _symmetry_equiv_pos_as_xyz
  1  'x, y, z'
loop_
 _atom_type_symbol
 _atom_type_oxidation_number
  H+  1.0
  O2-  -2.0
loop_
 _atom_site_type_symbol
 _atom_site_label
 _atom_site_symmetry_multiplicity
 _atom_site_fract_x
 _atom_site_fract_y
 _atom_site_fract_z
 _atom_site_occupancy
  H+  H0  1  0.64066681  0.11667746  0.83585692  1
  H+  H1  1  0.39551259  0.12259346  0.82651274  1
  H+  H2  1  0.36229581  0.89479119  0.82583857  1
  H+  H3  1  0.35335868  0.97506622  0.66818237  1
  H+  H4  1  0.85783848  0.13719401  0.17898859  1
  H+  H5  1  0.13540765  0.85685724  0.32734109  1
  H+  H6  1  -0.00672768  0.35135272  0.67187893  1
  H+  H7  1  0.64819930  0.62371690  0.51300910  1
  H+  H8  1  0.20308267  0.83249444  0.51091826  1
  H+  H9  1  0.87488096  0.63953960  0.82104736  1
  H+  H10  1  0.12308782  0.27343349  0.98698302  1
  H+  H11  1  0.04404997  0.39409026  0.33192363  1
  H+  H12  1  0.89989571  0.03018456  0.33686098  1
  H+  H13  1  0.36842445  0.65350149  0.70615103  1
  H+  H14  1  0.30979778  0.40052174  0.68751997  1
  H+  H15  1  0.77775455  0.64676668  0.34191493  1
  H+  H16  1  0.86531648  0.38959642  1.00439854  1
  H+  H17  1  0.22548234  0.62000618  0.16361940  1
  H+  H18  1  0.10819651  1.03893453  0.67712917  1
  H+  H19  1  0.86565161  0.70489417  0.52926594  1
  H+  H20  1  0.61234652  -0.00060136  1.01914747  1
  H+  H21  1  0.63425762  0.86526712  0.51009688  1
  H+  H22  1  0.83584740  0.36939081  0.36359911  1
  H+  H23  1  0.08867769  0.86016717  0.14623440  1
  H+  H24  1  0.88436377  0.52585584  0.33167065  1
  H+  H25  1  0.48682710  0.87260089  0.51476230  1
  H+  H26  1  0.36965586  0.23696596  1.01861935  1
  H+  H27  1  0.66846072  0.36403777  0.82924589  1
  H+  H28  1  0.86601361  0.64754760  0.33900850  1
  H+  H29  1  0.46183031  0.62147651  0.84147871  1
  H+  H30  1  0.09855401  0.36140902  0.82133442  1
  H+  H31  1  0.22354402  0.63323575  0.85429167  1
  H+  H32  1  0.50749806  0.14362004  0.99667466  1
  H+  H33  1  0.97094979  0.86424054  0.98571080  1
  H+  H34  1  0.51797071  0.38014523  0.66846351  1
  H+  H35  1  0.17750265  0.38782173  0.54468586  1
  H+  H36  1  0.63191310  0.36686241  0.17332363  1
  H+  H37  1  0.52899763  0.89980920  0.16962904  1
  H+  H38  1  0.10007350  0.96216172  0.33711898  1
  H+  H39  1  0.12832185  0.01303648  0.50288609  1
  H+  H40  1  0.21194274  0.36481839  0.83912586  1
  H+  H41  1  0.54125717  0.19609644  0.05780638  1
  H+  H42  1  0.61704515  0.72705217  0.19790660  1
  H+  H43  1  0.71903837  0.85077685  0.99591150  1
  H+  H44  1  0.58464871  0.41943444  0.10044828  1
  H+  H45  1  0.09641168  0.18429263  0.66398103  1
  H+  H46  1  0.62847912  0.73801798  0.16509405  1
  H+  H47  1  0.62508327  0.14568778  0.35573038  1
  H+  H48  1  0.56526335  0.37991218  0.82037210  1
  H+  H49  1  0.11677619  0.39382918  0.00570112  1
  H+  H50  1  0.61974751  0.23149211  0.35017581  1
  H+  H51  1  0.89501922  0.27422852  0.18486258  1
  H+  H52  1  0.23006572  0.86873223  0.83925946  1
  H+  H53  1  0.02017764  0.89693567  0.67730234  1
  H+  H54  1  0.13904248  0.77990946  0.84470160  1
  H+  H55  1  0.60183400  0.62131889  0.00287494  1
  H+  H56  1  0.76171225  0.11852094  0.66188902  1
  H+  H57  1  0.36145124  0.37382641  0.80950645  1
  H+  H58  1  0.50065707  0.34360202  0.49524880  1
  H+  H59  1  0.36822753  0.13618091  0.50271521  1
  H+  H60  1  0.11394235  0.12797161  0.49422808  1
  H+  H61  1  0.58680321  0.94081022  0.10912320  1
  H+  H62  1  0.28315073  0.89041080  0.14993943  1
  H+  H63  1  0.87985560  0.85868703  0.66644226  1
  H+  H64  1  0.08012235  0.67432673  0.78156927  1
  H+  H65  1  0.47223998  0.87137302  0.85094865  1
  H+  H66  1  0.38109148  0.51975132  0.33676586  1
  H+  H67  1  0.46849721  0.61670576  -0.00298137  1
  H+  H68  1  0.13546728  0.62332207  -0.00010553  1
  H+  H69  1  0.32797813  0.94203051  0.52213252  1
  H+  H70  1  0.44950585  0.37754685  0.80197085  1
  H+  H71  1  0.23305818  0.07980819  0.17571144  1
  H+  H72  1  0.30833121  0.65474260  0.65520233  1
  H+  H73  1  0.64395890  0.11148305  0.64970062  1
  H+  H74  1  0.11314411  0.63423752  0.33476944  1
  H+  H75  1  0.14488208  0.57277341  0.63735318  1
  H+  H76  1  0.35617049  0.48202602  0.00869885  1
  H+  H77  1  0.71033595  0.85614864  0.84343000  1
  H+  H78  1  0.36041850  0.87714349  0.50534424  1
  H+  H79  1  0.37356337  0.33577687  0.65451504  1
  H+  H80  1  0.31811258  0.15173274  0.75797095  1
  H+  H81  1  0.23656246  0.30055032  0.66638974  1
  H+  H82  1  0.53333800  0.64738085  0.66895793  1
  H+  H83  1  0.40208879  0.11996865  0.32588042  1
  H+  H84  1  0.91613335  0.25801878  1.03333742  1
  H+  H85  1  0.61691594  0.23786327  0.16642873  1
  H+  H86  1  0.27151249  0.88532937  0.34506001  1
  H+  H87  1  0.90634869  0.25185088  0.36451260  1
  H+  H88  1  0.89354898  0.52313702  0.84164431  1
  H+  H89  1  0.23017267  0.85947347  0.98943429  1
  H+  H90  1  0.98549222  0.09309240  0.85931813  1
  H+  H91  1  0.86243750  0.73451265  0.67753179  1
  H+  H92  1  0.87231353  0.18698421  0.42170471  1
  H+  H93  1  0.52627160  0.89617706  0.67718254  1
  H+  H94  1  0.91102435  0.83893031  0.26854598  1
  H+  H95  1  0.96454316  0.61482375  0.67401817  1
  H+  H96  1  0.39201281  0.86565864  0.17331059  1
  H+  H97  1  0.89242031  0.36069038  0.84406075  1
  H+  H98  1  0.35590679  0.64172706  0.16255209  1
  H+  H99  1  0.36570315  0.13824155  0.15695197  1
  H+  H100  1  0.16809998  0.53680324  0.43328134  1
  H+  H101  1  0.18199832  0.58258995  0.70311699  1
  H+  H102  1  0.73880959  0.61411472  0.84092027  1
  H+  H103  1  0.61746352  0.98139166  0.67304426  1
  H+  H104  1  0.25813668  0.37065148  0.49692683  1
  H+  H105  1  0.40932232  0.07693129  0.22440199  1
  H+  H106  1  0.52605923  0.13976825  0.66174818  1
  H+  H107  1  0.00636510  0.13586363  -0.02520753  1
  H+  H108  1  0.37029161  0.34715681  0.50898415  1
  H+  H109  1  0.61117527  0.58529789  0.17354621  1
  H+  H110  1  0.58451475  0.66760466  0.40298593  1
  H+  H111  1  0.13845342  0.28447763  0.16122737  1
  H+  H112  1  0.87909831  0.85338609  0.51198076  1
  H+  H113  1  0.76909789  0.64343030  0.68240570  1
  H+  H114  1  0.37841236  0.77323019  0.32673607  1
  H+  H115  1  0.61700087  0.73478803  0.48918784  1
  H+  H116  1  0.79433203  0.38596191  0.83218216  1
  H+  H117  1  0.85843684  0.12400958  0.50335871  1
  H+  H118  1  0.25296307  0.12855502  0.67176024  1
  H+  H119  1  0.63553933  0.53049729  0.66985972  1
  H+  H120  1  0.97464028  0.62980481  0.17463190  1
  H+  H121  1  0.14171577  0.52267526  0.31277806  1
  H+  H122  1  0.14008189  0.77045198  0.32317354  1
  H+  H123  1  0.76510648  0.11926249  0.50240379  1
  H+  H124  1  0.08563378  0.43743365  0.67808835  1
  H+  H125  1  0.39397283  0.03357800  0.82890924  1
  H+  H126  1  0.94701602  0.42258496  0.31447311  1
  H+  H127  1  0.87962927  0.25805803  0.51497130  1
  H+  H128  1  0.12156637  -0.01502005  0.82698134  1
  H+  H129  1  0.14766785  0.36186402  0.31873479  1
  H+  H130  1  0.30450864  0.35622167  0.16933136  1
  H+  H131  1  0.41328055  0.25685405  0.35377864  1
  H+  H132  1  0.88494794  0.52401061  -0.00555986  1
  H+  H133  1  0.27311224  0.38346115  0.33883580  1
  H+  H134  1  0.61959310  0.48459110  0.00720510  1
  H+  H135  1  0.76666966  0.64083349  0.16284755  1
  H+  H136  1  0.27178837  0.39077059  1.00713628  1
  H+  H137  1  0.62789470  0.22752396  0.81735404  1
  H+  H138  1  0.53513399  0.59897134  0.09033306  1
  H+  H139  1  0.47353697  0.50899992  0.12249646  1
  H+  H140  1  0.19761489  0.93465217  0.19530843  1
  H+  H141  1  0.35181917  0.22772208  0.80399715  1
  H+  H142  1  0.39072775  0.41544993  0.72579341  1
  H+  H143  1  0.12017274  0.13940761  0.83584914  1
  H+  H144  1  0.61805193  0.73737649  0.67757221  1
  H+  H145  1  0.12769502  0.87224180  0.66268403  1
  H+  H146  1  0.60233649  0.97060526  0.35145515  1
  H+  H147  1  0.88686984  0.26687626  0.85568243  1
  H+  H148  1  0.91641162  0.12724356  0.34224544  1
  H+  H149  1  0.72395461  0.86433982  0.50791699  1
  H+  H150  1  0.38522122  0.74030287  0.50242992  1
  H+  H151  1  0.64816685  1.10420708  0.51263225  1
  H+  H152  1  0.85868961  0.64597644  0.16468737  1
  H+  H153  1  0.38607290  0.36826853  1.02317891  1
  H+  H154  1  0.60872046  0.62600388  0.33961194  1
  H+  H155  1  0.41706448  0.83718291  0.23612169  1
  H+  H156  1  0.23257634  0.12080317  0.84425984  1
  H+  H157  1  0.41189622  0.52774358  0.65193805  1
  H+  H158  1  0.63774428  0.51734228  0.18129753  1
  H+  H159  1  0.62545231  0.86379458  0.84636552  1
  H+  H160  1  0.63465107  0.23858409  0.51238634  1
  H+  H161  1  0.40990075  0.33691720  0.26972475  1
  H+  H162  1  0.60599700  0.17109686  0.11284489  1
  H+  H163  1  0.42513034  1.04734731  0.49068551  1
  H+  H164  1  0.16953339  0.10257033  1.03562035  1
  H+  H165  1  0.86628876  0.47235177  0.68313426  1
  H+  H166  1  0.37017347  0.27258090  0.16568646  1
  H+  H167  1  0.12149631  0.73668262  0.15942630  1
  H+  H168  1  0.16118035  0.04102270  0.22904614  1
  H+  H169  1  -0.03177335  0.85459971  0.51207916  1
  H+  H170  1  0.26158722  0.88720956  0.67152865  1
  H+  H171  1  0.74210477  0.90370040  0.17888048  1
  H+  H172  1  1.01914848  0.63917269  0.84018201  1
  H+  H173  1  0.88147077  0.77774993  0.99473032  1
  H+  H174  1  0.97688668  0.61031892  0.32645695  1
  H+  H175  1  0.39699938  0.60185404  0.62772412  1
  H+  H176  1  0.12767873  0.39485226  0.16046440  1
  H+  H177  1  0.58880373  0.72622355  0.83272248  1
  H+  H178  1  0.12735927  0.62780334  0.85307383  1
  H+  H179  1  0.26449234  0.14404817  0.33200518  1
  H+  H180  1  0.63299188  0.27818305  0.62724122  1
  H+  H181  1  0.35484798  0.74350855  0.84166313  1
  H+  H182  1  0.01459449  0.28619421  0.43582545  1
  H+  H183  1  0.72760672  0.61618964  0.99491632  1
  H+  H184  1  0.00425389  0.36235203  0.82551272  1
  H+  H185  1  0.86296700  0.64211484  0.00945568  1
  H+  H186  1  0.88460944  0.77725076  0.32762289  1
  H+  H187  1  0.35923510  0.64870044  0.00793174  1
  H+  H188  1  0.10753080  0.09730187  0.31564008  1
  H+  H189  1  0.25283105  0.11267798  0.35772859  1
  H+  H190  1  0.72276800  0.10829808  0.85549777  1
  H+  H191  1  -0.03712815  0.85975660  0.17011352  1
  H+  H192  1  0.44301682  0.58838620  0.17163762  1
  H+  H193  1  0.14695005  0.27203990  0.32407303  1
  H+  H194  1  0.12967662  0.26659347  0.83782601  1
  H+  H195  1  0.10182017  0.95067355  0.14896405  1
  H+  H196  1  0.47773390  0.11383707  0.17051454  1
  H+  H197  1  0.63212580  0.27924194  0.98872585  1
  H+  H198  1  0.00391550  0.22108762  0.09946480  1
  H+  H199  1  0.65726868  0.90989752  0.18631337  1
  H+  H200  1  0.62407716  0.35018212  0.52894361  1
  H+  H201  1  0.09447177  0.64263688  0.69161809  1
  H+  H202  1  0.11321203  0.88799892  -0.00355108  1
  H+  H203  1  0.53165163  0.64017755  0.48535149  1
  H+  H204  1  0.85857829  0.36553944  0.16038373  1
  H+  H205  1  0.12359996  0.89805549  0.82391318  1
  H+  H206  1  0.97145872  0.33888026  0.50961086  1
  H+  H207  1  0.77243533  0.62235923  0.53148192  1
  H+  H208  1  0.52130791  0.40025669  0.34261428  1
  H+  H209  1  0.36193799  0.73389407  0.16182291  1
  H+  H210  1  0.13750027  0.52776937  0.16239165  1
  H+  H211  1  0.83500391  0.91490588  0.43745772  1
  H+  H212  1  0.10088860  0.33489630  0.47969961  1
  H+  H213  1  0.21803333  0.09974607  0.50004722  1
  H+  H214  1  0.06095626  0.18246847  0.08587894  1
  H+  H215  1  0.37780956  0.02182624  0.32383132  1
  H+  H216  1  0.98761811  0.38116281  0.99918750  1
  H+  H217  1  0.77948942  0.30105268  0.12400101  1
  H+  H218  1  0.37156715  0.62150279  0.84877320  1
  H+  H219  1  0.10329213  0.73650393  0.68646379  1
  H+  H220  1  0.51126419  0.62569857  0.34470539  1
  H+  H221  1  0.65881926  0.52187651  0.83890471  1
  H+  H222  1  0.37083804  0.89383321  0.06024483  1
  H+  H223  1  0.26869909  0.63582441  0.31544102  1
  H+  H224  1  0.76635626  0.87960548  0.67608450  1
  H+  H225  1  0.97396831  0.61340146  0.99399871  1
  H+  H226  1  0.72204346  0.09552158  0.33784644  1
  H+  H227  1  0.09216676  0.39667398  0.39185609  1
  H+  H228  1  0.86038340  0.83902805  0.83833693  1
  H+  H229  1  0.62009730  0.98223414  0.50588947  1
  H+  H230  1  0.38281215  0.36769042  0.33013361  1
  H+  H231  1  0.24409631  0.61603593  0.46717410  1
  H+  H232  1  0.67126839  0.07349210  0.58864860  1
  H+  H233  1  0.09776249  0.87011585  0.49371705  1
  H+  H234  1  0.34607802  0.77495541  1.00120892  1
  H+  H235  1  0.60576967  0.97915198  0.83374377  1
  H+  H236  1  0.97265232  0.13239962  0.17381263  1
  H+  H237  1  0.86376450  0.38219630  0.68056502  1
  H+  H238  1  0.63527816  0.86770167  0.66194130  1
  H+  H239  1  -0.00031783  0.61017051  0.47607247  1
  H+  H240  1  0.50593224  0.13372472  0.51096081  1
  H+  H241  1  0.32870736  0.91553952  0.40528895  1
  H+  H242  1  0.38890602  0.12139123  0.98146949  1
  H+  H243  1  0.86488178  0.89970284  0.14917903  1
  H+  H244  1  0.11218366  0.73157466  0.00362821  1
  H+  H245  1  0.40715890  0.59309216  0.93930163  1
  H+  H246  1  0.21916295  0.30362527  0.69721738  1
  H+  H247  1  0.12053998  0.48551463  0.00935815  1
  H+  H248  1  0.39820080  0.61009113  0.49827205  1
  H+  H249  1  0.47694915  0.36933841  1.02083679  1
  H+  H250  1  0.86049041  0.12703752  0.89169690  1
  H+  H251  1  0.22785935  0.62477431  -0.00089124  1
  H+  H252  1  0.88610484  0.10035408  0.66263657  1
  H+  H253  1  0.86832185  0.73329347  0.82777614  1
  H+  H254  1  0.87466748  0.99204584  0.15250358  1
  H+  H255  1  0.51916389  0.38700126  0.15704647  1
  H+  H256  1  0.34784915  0.49395621  0.84136224  1
  H+  H257  1  0.85532103  0.95477212  0.83520546  1
  H+  H258  1  0.28448429  0.14778474  -0.00069637  1
  H+  H259  1  0.59312401  0.17732031  0.71537609  1
  H+  H260  1  0.38879025  0.78888548  0.67316216  1
  H+  H261  1  -0.01385916  0.36353712  0.17588414  1
  H+  H262  1  0.11791039  0.21899570  0.49775344  1
  H+  H263  1  0.71934313  0.36150809  0.17573259  1
  H+  H264  1  0.53515773  0.14329130  0.81349295  1
  H+  H265  1  0.38068251  0.87202506  0.66425316  1
  H+  H266  1  0.37498894  0.10163271  0.65162005  1
  H+  H267  1  0.38131002  0.60977099  0.33534512  1
  H+  H268  1  0.12642130  1.01540351  -0.00087351  1
  H+  H269  1  0.08169578  0.29624141  0.64552272  1
  H+  H270  1  0.60772500  0.39633520  0.34257093  1
  H+  H271  1  0.37028627  0.25670159  0.51118863  1
  H+  H272  1  0.51589423  0.88066053  0.34989953  1
  H+  H273  1  0.86451102  0.89996829  0.99405315  1
  H+  H274  1  0.34834669  0.20705371  0.66534037  1
  H+  H275  1  0.63208089  0.52760603  0.33425956  1
  H+  H276  1  0.86500092  0.96989740  0.49804369  1
  H+  H277  1  0.88002000  0.02145750  0.95787526  1
  H+  H278  1  0.35291057  0.45745042  0.49001397  1
  H+  H279  1  0.87201219  0.25618312  0.65684168  1
  H+  H280  1  0.63375108  0.03066179  0.18545929  1
  H+  H281  1  0.38394337  0.86455429  0.33200723  1
  H+  H282  1  0.77001409  0.14102005  0.17889672  1
  H+  H283  1  0.62838778  0.12735930  -0.00035099  1
  H+  H284  1  0.37172397  0.97556918  0.14656800  1
  H+  H285  1  0.65129862  0.87481348  0.34423773  1
  H+  H286  1  0.63764867  0.62150447  0.67530338  1
  H+  H287  1  0.03591580  0.14437436  0.34442200  1
  H+  H288  1  0.05625098  0.37811603  0.75468514  1
  H+  H289  1  0.11551278  0.64541693  0.15628520  1
  H+  H290  1  0.56182908  0.66995006  0.77210102  1
  H+  H291  1  0.60903993  0.39151450  0.65445604  1
  H+  H292  1  0.91608220  0.59500019  0.23345071  1
  H+  H293  1  0.85727799  0.96608969  0.67803150  1
  H+  H294  1  0.86306709  0.58872381  0.50438226  1
  H+  H295  1  0.92094537  0.07207084  0.56934706  1
  H+  H296  1  0.57905941  0.91644749  0.44666473  1
  H+  H297  1  0.91260926  0.83092949  0.60674813  1
  H+  H298  1  0.38058803  0.32168755  0.90729541  1
  H+  H299  1  0.60331736  0.41289748  0.75414702  1
  H+  H300  1  0.57086999  0.38745276  0.44344802  1
  H+  H301  1  0.09331279  0.61793646  0.47727699  1
  H+  H302  1  0.92465152  0.33840352  0.94270310  1
  H+  H303  1  0.43254851  0.57104661  0.54833880  1
  H+  H304  1  0.32461771  0.40557688  0.40277652  1
  H+  H305  1  0.08973281  0.41741278  0.10198486  1
  H+  H306  1  0.17803923  0.32896721  0.22531086  1
  H+  H307  1  0.28217065  0.64998540  0.38245747  1
  H+  H308  1  0.82127987  0.42420299  0.41381813  1
  H+  H309  1  0.63870122  0.12247290  0.19207059  1
  H+  H310  1  0.91008646  0.32106090  0.59959006  1
  H+  H311  1  0.87490902  0.19674175  0.09043958  1
  H+  H312  1  0.71203510  0.36664968  0.33410721  1
  H+  H313  1  0.67907582  0.33212769  0.89500419  1
  H+  H314  1  0.32854185  0.16133853  0.09895803  1
  H+  H315  1  0.87202980  0.77676225  0.17455466  1
  H+  H316  1  0.31771322  0.44835924  0.77804417  1
  H+  H317  1  0.78361514  0.90078236  0.34696607  1
  H+  H318  1  0.11123484  0.74891551  0.50871821  1
  H+  H319  1  0.17883392  0.09514880  0.90689774  1
  H+  H320  1  0.08657237  0.93061591  0.73382446  1
  H+  H321  1  0.80079594  0.45288411  0.51643175  1
  H+  H322  1  0.03751400  0.01890281  0.27892656  1
  H+  H323  1  0.66299515  0.83508233  0.60185473  1
  H+  H324  1  0.82085972  0.90545531  0.77117940  1
  H+  H325  1  0.17288535  0.83935258  0.93022997  1
  H+  H326  1  0.65604342  0.09504456  0.94222242  1
  H+  H327  1  0.81710542  0.14937147  0.72301851  1
  H+  H328  1  0.57630949  0.92075527  0.77391788  1
  H+  H329  1  0.93151409  0.35135778  0.26636829  1
  H+  H330  1  0.51839902  0.92184629  0.02869624  1
  H+  H331  1  0.01673324  0.87380549  0.33810987  1
  H+  H332  1  0.82611918  0.40881092  0.06224930  1
  H+  H333  1  0.20387610  0.60949103  0.56619543  1
  H+  H334  1  0.38279561  0.69734419  0.43992089  1
  H+  H335  1  0.40583779  0.58848269  0.23696980  1
  H+  H336  1  0.60771559  0.18630245  0.44850327  1
  H+  H337  1  0.31290872  0.68372107  0.78331878  1
  H+  H338  1  0.16344710  0.59852923  0.91978231  1
  H+  H339  1  0.60514109  0.71034531  0.01256531  1
  H+  H340  1  0.89745470  0.81686576  0.89818684  1
  H+  H341  1  0.84338137  0.94341517  0.04902906  1
  H+  H342  1  0.61721774  0.39415375  0.00554074  1
  H+  H343  1  0.36278838  0.17788458  0.44179861  1
  H+  H344  1  0.42286929  0.83924381  0.57350447  1
  H+  H345  1  0.48255855  0.24337158  0.38755701  1
  H+  H346  1  0.66575058  0.08060905  0.27840566  1
  H+  H347  1  0.66233679  0.59272772  0.57752740  1
  H+  H348  1  0.32804233  0.67483616  0.06907676  1
  H+  H349  1  0.83122513  0.67157056  0.06848427  1
  H+  H350  1  0.15869013  0.58026481  0.25180693  1
  H+  H351  1  0.84044466  0.67281172  0.75192267  1
  H+  H352  1  0.16602733  0.61689769  0.56272816  1
  H+  H353  1  -0.01903502  0.10716617  0.51009657  1
  H+  H354  1  0.65718900  0.33877626  0.27239997  1
  H+  H355  1  0.41731498  0.07886704  0.59554843  1
  H+  H356  1  0.08368015  0.15373788  0.77416754  1
  H+  H357  1  0.07114193  0.90392158  0.05530482  1
  H+  H358  1  0.92795942  0.09238464  0.23932162  1
  H+  H359  1  0.40285296  0.84598836  0.90681548  1
  H+  H360  1  0.42380159  0.32484793  0.90421863  1
  H+  H361  1  0.67330992  0.58074800  0.93323305  1
  H+  H362  1  0.72610520  0.36409954  0.98954718  1
  H+  H363  1  0.08290283  0.67613091  0.06507571  1
  H+  H364  1  0.91276250  0.58277350  0.90114091  1
  H+  H365  1  0.85566024  0.12923362  0.82194401  1
  H+  H366  1  0.65797009  0.58499987  0.27279220  1
  H+  H367  1  0.87656233  0.60111411  0.65109431  1
  H+  H368  1  0.14600884  0.82604782  0.60651034  1
  H+  H369  1  0.40741693  0.31477523  0.59475535  1
  H+  H370  1  0.11948519  0.27863919  0.58488555  1
  H+  H371  1  0.18298371  0.85601339  0.23559397  1
  H+  H372  1  0.85342032  0.41793019  0.77223209  1
  H+  H373  1  0.65410678  0.81505179  0.94165163  1
  H+  H374  1  0.97121006  0.09170439  0.66696373  1
  H+  H375  1  0.09054541  0.13109525  0.98824937  1
  H+  H376  1  0.07109439  0.90140727  0.43380801  1
  H+  H377  1  0.68805885  0.86775621  0.28080315  1
  H+  H378  1  0.09810940  0.16983233  0.40169774  1
  H+  H379  1  0.42402947  0.09685290  0.92154813  1
  H+  H380  1  0.32926339  0.91901068  0.76456849  1
  H+  H381  1  0.87081886  0.89495921  0.34660537  1
  H+  H382  1  0.07925181  0.66287106  0.39350910  1
  H+  H383  1  0.15814420  0.33754935  0.93208490  1
  O2-  O384  1  0.04510195  0.20671438  0.12033157  1
  O2-  O385  1  0.08548298  0.16162831  0.47939306  1
  O2-  O386  1  0.08397216  0.16290424  0.81880278  1
  O2-  O387  1  0.09062051  0.41885708  0.14754258  1
  O2-  O388  1  0.05667905  0.34222716  0.45331602  1
  O2-  O389  1  0.06275541  0.38680617  0.80271561  1
  O2-  O390  1  0.08716082  0.67887405  0.14274162  1
  O2-  O391  1  0.06331699  0.65008324  0.47032790  1
  O2-  O392  1  0.08188015  0.67109206  0.82737131  1
  O2-  O393  1  0.06174245  0.89285774  0.13110727  1
  O2-  O394  1  0.07015167  0.90272381  0.47915267  1
  O2-  O395  1  0.09685913  0.92938887  0.80577784  1
  O2-  O396  1  0.32870489  0.16286834  0.14449555  1
  O2-  O397  1  0.33612857  0.16124472  0.48322442  1
  O2-  O398  1  0.32696140  0.16498259  0.80270902  1
  O2-  O399  1  0.36464327  0.37960869  0.15440273  1
  O2-  O400  1  0.32013399  0.39586049  0.47912140  1
  O2-  O401  1  0.31390758  0.43408904  0.82147858  1
  O2-  O402  1  0.32868362  0.67452473  0.14435352  1
  O2-  O403  1  0.36269480  0.68220574  0.48178393  1
  O2-  O404  1  0.31770589  0.68137782  0.82749797  1
  O2-  O405  1  0.34226436  0.91393007  0.13374189  1
  O2-  O406  1  0.32150909  0.89966917  0.49175495  1
  O2-  O407  1  0.33133045  0.92372317  0.80990307  1
  O2-  O408  1  0.59082956  0.17494910  0.15492391  1
  O2-  O409  1  0.60287207  0.18053186  0.49429723  1
  O2-  O410  1  0.59561340  0.16918172  0.79866224  1
  O2-  O411  1  0.58062802  0.41453427  0.14628256  1
  O2-  O412  1  0.55339253  0.34704737  0.47790669  1
  O2-  O413  1  0.61835718  0.41703047  0.79876514  1
  O2-  O414  1  0.51675912  0.56882338  0.13072958  1
  O2-  O415  1  0.59225110  0.67542592  0.47109740  1
  O2-  O416  1  0.55071908  0.66709693  0.81636594  1
  O2-  O417  1  0.58860022  0.93998849  0.15570508  1
  O2-  O418  1  0.58127796  0.91674150  0.49212978  1
  O2-  O419  1  0.57173291  0.91818685  0.81919050  1
  O2-  O420  1  0.83168827  0.17258697  0.16607050  1
  O2-  O421  1  0.82912008  0.15497290  0.48852973  1
  O2-  O422  1  0.84145860  0.15086517  0.85810110  1
  O2-  O423  1  0.80791527  0.36071610  0.13753139  1
  O2-  O424  1  0.84531571  0.46597213  0.48539412  1
  O2-  O425  1  0.85607098  0.41876134  0.81938755  1
  O2-  O426  1  0.82621808  0.67381961  0.14722753  1
  O2-  O427  1  0.83544491  0.64219571  0.53629681  1
  O2-  O428  1  0.84525524  0.67032205  0.80494792  1
  O2-  O429  1  0.84421944  0.93644593  0.13043524  1
  O2-  O430  1  0.83027129  0.90943126  0.48311837  1
  O2-  O431  1  0.81544690  0.89861836  0.81651406  1
  O2-  O432  1  0.18340588  0.02625370  0.19244254  1
  O2-  O433  1  0.15877056  0.07429645  0.51531124  1
  O2-  O434  1  0.17374439  0.09386092  0.86247786  1
  O2-  O435  1  0.18518254  0.33730286  0.18043824  1
  O2-  O436  1  0.16783037  0.33635319  0.52306526  1
  O2-  O437  1  0.15022060  0.32760232  0.85101324  1
  O2-  O438  1  0.16305329  0.58880907  0.17618872  1
  O2-  O439  1  0.19333137  0.59820971  0.44088637  1
  O2-  O440  1  0.16208522  0.60009016  0.87031395  1
  O2-  O441  1  0.18880036  0.87534536  0.19209040  1
  O2-  O442  1  0.14363119  0.80822655  0.52584178  1
  O2-  O443  1  0.17130323  0.84107401  0.85788897  1
  O2-  O444  1  0.41523436  0.08045887  0.17863666  1
  O2-  O445  1  0.44086953  0.09495867  0.51869219  1
  O2-  O446  1  0.42878839  0.09536860  0.84055299  1
  O2-  O447  1  0.39977300  0.33114923  0.18523808  1
  O2-  O448  1  0.40152340  0.31821737  0.52589405  1
  O2-  O449  1  0.39172738  0.34948826  0.78514224  1
  O2-  O450  1  0.39416738  0.58754390  0.19323621  1
  O2-  O451  1  0.42475293  0.57331533  0.50389700  1
  O2-  O452  1  0.40034107  0.58904776  0.86042511  1
  O2-  O453  1  0.42063277  0.83526524  0.19085090  1
  O2-  O454  1  0.42315822  0.83789047  0.52819417  1
  O2-  O455  1  0.40957245  0.84168778  0.86241102  1
  O2-  O456  1  0.66722162  0.09011900  0.20540969  1
  O2-  O457  1  0.67394576  0.07020479  0.52668147  1
  O2-  O458  1  0.65995807  0.08178063  0.85970798  1
  O2-  O459  1  0.66013391  0.33593321  0.19199834  1
  O2-  O460  1  0.67059317  0.34256708  0.54930517  1
  O2-  O461  1  0.68886323  0.32868236  0.85030681  1
  O2-  O462  1  0.65613641  0.57723808  0.19401406  1
  O2-  O463  1  0.66870237  0.58842280  0.53317741  1
  O2-  O464  1  0.68112539  0.57829156  0.85832707  1
  O2-  O465  1  0.69856500  0.89822976  0.20835720  1
  O2-  O466  1  0.66325120  0.83204509  0.52313835  1
  O2-  O467  1  0.65076446  0.82840002  0.85975647  1
  O2-  O468  1  0.91824710  0.09077308  0.19461006  1
  O2-  O469  1  0.92004496  0.07451152  0.52425092  1
  O2-  O470  1  0.93356802  0.04279582  0.87750493  1
  O2-  O471  1  0.92737766  0.33784033  0.19423138  1
  O2-  O472  1  0.91511441  0.31908007  0.52881163  1
  O2-  O473  1  0.92311215  0.32985672  0.86100237  1
  O2-  O474  1  0.91467896  0.60219093  0.18875954  1
  O2-  O475  1  0.89177076  0.55968987  0.47794019  1
  O2-  O476  1  0.91750041  0.58436301  0.85547628  1
  O2-  O477  1  0.90518661  0.83817357  0.18830927  1
  O2-  O478  1  0.90998076  0.82576421  0.53090059  1
  O2-  O479  1  0.89194118  0.80973889  0.85296506  1
  O2-  O480  1  0.09775920  0.04607826  0.29070347  1
  O2-  O481  1  0.13995616  0.10298965  0.66907514  1
  O2-  O482  1  0.15704999  0.08065364  0.99405803  1
  O2-  O483  1  0.17765318  0.33059015  0.30507018  1
  O2-  O484  1  0.08670517  0.25134604  0.62366230  1
  O2-  O485  1  0.15772791  0.33597009  0.97711200  1
  O2-  O486  1  0.16308194  0.58186015  0.29747386  1
  O2-  O487  1  0.12824656  0.55880610  0.68027673  1
  O2-  O488  1  0.16653091  0.59407721  0.98243213  1
  O2-  O489  1  0.17122526  0.83267670  0.31152100  1
  O2-  O490  1  0.15322139  0.83552405  0.65127094  1
  O2-  O491  1  0.17067789  0.83685181  0.97653670  1
  O2-  O492  1  0.39591465  0.07361302  0.29873949  1
  O2-  O493  1  0.41017646  0.07500861  0.64062430  1
  O2-  O494  1  0.42181831  0.09393187  0.96665384  1
  O2-  O495  1  0.41719982  0.34142174  0.31436366  1
  O2-  O496  1  0.40909455  0.31179245  0.64168496  1
  O2-  O497  1  0.41413922  0.33235831  1.02534132  1
  O2-  O498  1  0.41488157  0.58180020  0.32385137  1
  O2-  O499  1  0.43821543  0.58182591  0.62727352  1
  O2-  O500  1  0.40719945  0.59464495  0.98455532  1
  O2-  O501  1  0.41371819  0.83466619  0.31508568  1
  O2-  O502  1  0.41608375  0.84472233  0.65262496  1
  O2-  O503  1  0.34593446  0.82666654  0.98320181  1
  O2-  O504  1  0.66361149  0.07625226  0.32453040  1
  O2-  O505  1  0.67057469  0.07647638  0.63920936  1
  O2-  O506  1  0.66182263  0.10056028  0.98698253  1
  O2-  O507  1  0.65262161  0.33770296  0.31755626  1
  O2-  O508  1  0.65277217  0.33876417  0.61490237  1
  O2-  O509  1  0.66713775  0.33849735  0.97177656  1
  O2-  O510  1  0.65956436  0.58859344  0.31831646  1
  O2-  O511  1  0.66933416  0.59254728  0.65999318  1
  O2-  O512  1  0.66798799  0.58159762  0.97883801  1
  O2-  O513  1  0.68811745  0.85517231  0.32520606  1
  O2-  O514  1  0.66406737  0.83553009  0.64749904  1
  O2-  O515  1  0.65931610  0.80820647  0.98581673  1
  O2-  O516  1  0.93416201  0.09044773  0.31982379  1
  O2-  O517  1  0.91267555  0.06557891  0.64988254  1
  O2-  O518  1  0.91099873  0.07604498  0.93131995  1
  O2-  O519  1  0.93732091  0.36429302  0.31176081  1
  O2-  O520  1  0.90594628  0.31828622  0.64624364  1
  O2-  O521  1  0.92544117  0.34629165  0.98733443  1
  O2-  O522  1  0.91569631  0.58322898  0.31302476  1
  O2-  O523  1  0.91189190  0.57376561  0.65226559  1
  O2-  O524  1  0.91381525  0.58423709  0.97856484  1
  O2-  O525  1  0.91732090  0.83964000  0.31368438  1
  O2-  O526  1  0.91284289  0.83026225  0.65271235  1
  O2-  O527  1  0.90901712  0.83550410  0.97481284  1
  O2-  O528  1  0.06185003  0.16436849  -0.00290361  1
  O2-  O529  1  0.09824156  0.17228080  0.35598998  1
  O2-  O530  1  0.08424750  0.13454579  0.69341271  1
  O2-  O531  1  0.08912832  0.42544587  0.02417579  1
  O2-  O532  1  0.10335962  0.41983132  0.34838109  1
  O2-  O533  1  0.05549244  0.37613093  0.68939397  1
  O2-  O534  1  0.08209045  0.67146800  0.01959545  1
  O2-  O535  1  0.08365200  0.66585770  0.34805528  1
  O2-  O536  1  0.07244893  0.67918576  0.70743183  1
  O2-  O537  1  0.07865729  0.91435592  0.01026475  1
  O2-  O538  1  0.07790343  0.90346720  0.35353087  1
  O2-  O539  1  0.08210533  0.93373532  0.68779157  1
  O2-  O540  1  0.33978758  0.17038994  0.02012089  1
  O2-  O541  1  0.42181711  0.21341480  0.37646823  1
  O2-  O542  1  0.31374001  0.14677935  0.68086398  1
  O2-  O543  1  0.33097995  0.42193611  0.02285937  1
  O2-  O544  1  0.33209320  0.41581246  0.35762356  1
  O2-  O545  1  0.36798364  0.44510380  0.69960502  1
  O2-  O546  1  0.32469797  0.67532965  0.02317659  1
  O2-  O547  1  0.31769056  0.66277699  0.34530710  1
  O2-  O548  1  0.32515055  0.66988054  0.69777947  1
  O2-  O549  1  0.40445432  0.89765750  0.02293368  1
  O2-  O550  1  0.33201385  0.91626490  0.36056918  1
  O2-  O551  1  0.32272501  0.91515305  0.68543416  1
  O2-  O552  1  0.56345955  0.18111323  0.02226264  1
  O2-  O553  1  0.60082495  0.17885703  0.37450444  1
  O2-  O554  1  0.58836891  0.17524163  0.67024343  1
  O2-  O555  1  0.59050967  0.42482405  0.02525577  1
  O2-  O556  1  0.58048938  0.42850041  0.36005873  1
  O2-  O557  1  0.57945349  0.41419998  0.68059288  1
  O2-  O558  1  0.56911442  0.64676911  0.02161332  1
  O2-  O559  1  0.57501589  0.65596208  0.35650746  1
  O2-  O560  1  0.58663084  0.67645971  0.69315653  1
  O2-  O561  1  0.57878230  0.94137181  0.03821170  1
  O2-  O562  1  0.57391754  0.91165587  0.36885455  1
  O2-  O563  1  0.58612087  0.92220952  0.69217758  1
  O2-  O564  1  0.92042579  0.21553089  0.05938766  1
  O2-  O565  1  0.91350054  0.20822945  0.38596799  1
  O2-  O566  1  0.82434911  0.14863603  0.67928513  1
  O2-  O567  1  0.83066528  0.41698727  0.01756426  1
  O2-  O568  1  0.81470130  0.40955051  0.36931053  1
  O2-  O569  1  0.84202040  0.41497361  0.70316598  1
  O2-  O570  1  0.83316779  0.67329108  0.02294033  1
  O2-  O571  1  0.83896908  0.68088646  0.35273517  1
  O2-  O572  1  0.83167132  0.67361433  0.69528355  1
  O2-  O573  1  0.83991802  0.93755184  0.00380142  1
  O2-  O574  1  0.84585623  0.92981250  0.36249305  1
  O2-  O575  1  0.82532368  0.90570088  0.69400447  1
