# generated using pymatgen
data_H2O
_symmetry_space_group_name_H-M   'P 1'
_cell_length_a   17.98859003
_cell_length_b   17.99525046
_cell_length_c   22.00699016
_cell_angle_alpha   89.98867026
_cell_angle_beta   90.03781441
_cell_angle_gamma   119.99343541
_symmetry_Int_Tables_number   1
_chemical_formula_structural   H2O
_chemical_formula_sum   'H384 O192'
_cell_volume   6169.85454407
_cell_formula_units_Z   192
loop_
 _symmetry_equiv_pos_site_id
 _symmetry_equiv_pos_as_xyz
  1  'x, y, z'
loop_
 _atom_type_symbol
 _atom_type_oxidation_number
  H+  1.0
  O2-  -2.0
loop_
 _atom_site_type_symbol
 _atom_site_label
 _atom_site_symmetry_multiplicity
 _atom_site_fract_x
 _atom_site_fract_y
 _atom_site_fract_z
 _atom_site_occupancy
  H+  H0  1  0.23047185  0.85923117  0.51008996  1
  H+  H1  1  0.89553196  0.88994313  0.82004688  1
  H+  H2  1  0.85791178  0.97442807  0.66976212  1
  H+  H3  1  0.30795295  0.39492465  0.15430046  1
  H+  H4  1  0.37328067  0.65258291  0.16039423  1
  H+  H5  1  0.11079506  0.21299352  0.83049378  1
  H+  H6  1  0.52456097  0.39122979  0.82905872  1
  H+  H7  1  0.39181869  0.61433099  0.66065629  1
  H+  H8  1  0.48259059  0.34924670  0.32932494  1
  H+  H9  1  0.87357065  0.85663356  0.33669091  1
  H+  H10  1  -0.02813430  0.36404220  -0.00032251  1
  H+  H11  1  0.09144989  0.24384107  0.01298286  1
  H+  H12  1  0.10306593  0.11326146  0.67870566  1
  H+  H13  1  0.60255850  0.89188781  0.67930314  1
  H+  H14  1  0.45306510  0.61307873  0.83504947  1
  H+  H15  1  0.83874915  0.91605198  0.72875069  1
  H+  H16  1  0.12925031  0.73391433  -0.00775547  1
  H+  H17  1  0.70186609  0.60158336  0.17684563  1
  H+  H18  1  0.14218690  0.03760403  0.50591271  1
  H+  H19  1  0.97139532  0.62653625  0.15351436  1
  H+  H20  1  0.90270316  0.60944761  0.66889152  1
  H+  H21  1  0.24124692  0.38526126  0.32171607  1
  H+  H22  1  0.63722186  0.79247421  0.82754688  1
  H+  H23  1  0.36229338  0.65771644  0.34631414  1
  H+  H24  1  0.58172989  0.85805640  0.14785542  1
  H+  H25  1  0.42306922  0.06927110  0.63569529  1
  H+  H26  1  0.38488714  0.61241543  0.99426444  1
  H+  H27  1  0.60867148  0.98100052  0.33923374  1
  H+  H28  1  0.76621221  0.62990642  0.34598898  1
  H+  H29  1  0.64758011  0.37032289  0.99504430  1
  H+  H30  1  0.61434165  0.46020478  0.16448579  1
  H+  H31  1  0.63448095  0.78879528  0.66205667  1
  H+  H32  1  0.63221523  0.60738740  0.33502196  1
  H+  H33  1  0.33857961  0.85837218  0.67197095  1
  H+  H34  1  0.11533332  0.11409953  0.98563924  1
  H+  H35  1  0.72758194  0.61055465  0.51030907  1
  H+  H36  1  0.36809175  0.61639982  0.84074108  1
  H+  H37  1  0.39815659  0.26127534  0.16991096  1
  H+  H38  1  0.27921174  0.11828447  0.33287206  1
  H+  H39  1  0.18464563  0.83466032  0.85312423  1
  H+  H40  1  0.12007674  0.97631142  0.66322498  1
  H+  H41  1  0.60811717  -0.01754171  0.83037375  1
  H+  H42  1  0.15908556  0.75639114  0.14562040  1
  H+  H43  1  0.10595716  0.38702395  0.31413886  1
  H+  H44  1  0.86697463  0.13325532  0.83366302  1
  H+  H45  1  0.42960918  0.32045143  0.22964513  1
  H+  H46  1  0.12826330  0.47346324  0.66846303  1
  H+  H47  1  0.90146034  0.78462759  0.99580062  1
  H+  H48  1  0.11132838  0.48193521  0.00137151  1
  H+  H49  1  0.04345045  0.14975723  0.32898611  1
  H+  H50  1  0.63130582  0.86392314  0.50649639  1
  H+  H51  1  0.92572815  0.58059925  0.57310397  1
  H+  H52  1  0.10345284  0.49043081  0.82126812  1
  H+  H53  1  0.28176823  0.64475134  0.16076822  1
  H+  H54  1  0.94146308  0.59707995  0.88748872  1
  H+  H55  1  0.91457553  0.37263516  0.17561709  1
  H+  H56  1  0.60807621  0.71392022  0.01048649  1
  H+  H57  1  0.28647937  0.98060494  0.38362943  1
  H+  H58  1  0.04652456  0.91564108  0.14718821  1
  H+  H59  1  0.36288318  0.72310141  0.67427678  1
  H+  H60  1  0.61822289  0.47246213  0.67671494  1
  H+  H61  1  0.02543127  0.88846003  0.66495008  1
  H+  H62  1  0.46681938  0.87228219  0.32244737  1
  H+  H63  1  0.87777316  0.36296648  0.32837855  1
  H+  H64  1  0.79710472  0.36005340  0.17961036  1
  H+  H65  1  0.39182784  0.52076226  0.65390590  1
  H+  H66  1  0.41266105  0.82997995  0.60408617  1
  H+  H67  1  0.39291153  0.09870561  0.31655319  1
  H+  H68  1  0.13829728  0.61668185  0.51203183  1
  H+  H69  1  0.12950935  0.14358012  0.32350829  1
  H+  H70  1  0.12314975  0.34886999  0.83738171  1
  H+  H71  1  0.36839092  0.85540163  0.99509737  1
  H+  H72  1  0.79075600  0.45258351  0.18425943  1
  H+  H73  1  0.51895139  0.62733355  1.00041227  1
  H+  H74  1  0.18307216  0.13785499  0.50084825  1
  H+  H75  1  0.96136055  0.11918195  1.00379481  1
  H+  H76  1  0.02268019  0.12663297  0.83778356  1
  H+  H77  1  0.76811499  0.39056535  0.33800033  1
  H+  H78  1  0.06002560  0.38987414  0.16371865  1
  H+  H79  1  0.84646962  0.22242920  0.16467348  1
  H+  H80  1  0.35509517  -0.01932628  0.34166425  1
  H+  H81  1  0.32192809  0.85458784  0.83054994  1
  H+  H82  1  0.15517184  0.15654311  -0.02007132  1
  H+  H83  1  0.35804608  0.72495503  1.00290840  1
  H+  H84  1  0.00238289  0.87993168  -0.00241495  1
  H+  H85  1  0.26748315  0.37731458  0.83177835  1
  H+  H86  1  0.90057714  0.87803261  0.00195615  1
  H+  H87  1  0.98424162  0.61489903  0.98823962  1
  H+  H88  1  0.22609393  0.36715879  0.99028300  1
  H+  H89  1  0.38977864  0.44002903  0.33587053  1
  H+  H90  1  0.53941703  0.15043555  0.67979267  1
  H+  H91  1  1.10488259  0.63360265  0.33579746  1
  H+  H92  1  0.64286457  0.27109451  0.49443892  1
  H+  H93  1  0.14062018  0.37555373  -0.01001240  1
  H+  H94  1  0.71547002  0.10906233  0.50552762  1
  H+  H95  1  0.95824092  0.81019811  0.19892405  1
  H+  H96  1  0.73071546  0.10447422  0.84131303  1
  H+  H97  1  0.70160076  0.95207085  0.19678340  1
  H+  H98  1  0.63321437  0.36675660  0.84475465  1
  H+  H99  1  0.86984829  0.72538421  0.67277311  1
  H+  H100  1  0.84493943  0.36623606  0.82998981  1
  H+  H101  1  0.39279391  0.86521414  0.51073903  1
  H+  H102  1  0.03700804  0.47362903  0.77218982  1
  H+  H103  1  0.41267099  0.84217172  0.23106461  1
  H+  H104  1  0.36280415  0.11712346  0.80981182  1
  H+  H105  1  0.86539997  -0.02233750  1.00817586  1
  H+  H106  1  0.78004028  0.37993573  0.66601620  1
  H+  H107  1  0.20010771  0.84100496  0.65533980  1
  H+  H108  1  0.36471410  0.97595869  0.49926521  1
  H+  H109  1  0.72990846  0.11085099  0.32388891  1
  H+  H110  1  0.54558220  0.60501241  0.09033019  1
  H+  H111  1  0.36071936  0.89247272  0.15523565  1
  H+  H112  1  0.64154293  0.36075310  0.17021303  1
  H+  H113  1  0.59843995  0.88783164  0.33885322  1
  H+  H114  1  0.85306501  0.97343301  0.50119268  1
  H+  H115  1  0.58611082  0.64195986  0.89209795  1
  H+  H116  1  0.86507488  0.22138120  0.83258753  1
  H+  H117  1  1.03043679  0.38902334  0.50749593  1
  H+  H118  1  0.78602624  0.64766955  0.00001496  1
  H+  H119  1  0.61347217  0.14028852  0.48917891  1
  H+  H120  1  0.96763027  0.36706824  0.84206542  1
  H+  H121  1  0.38483442  0.78251587  0.17043250  1
  H+  H122  1  0.13538171  1.01853918  0.31830938  1
  H+  H123  1  0.72193496  0.36125514  0.84263803  1
  H+  H124  1  0.20220956  0.35691826  0.22510512  1
  H+  H125  1  0.22115405  0.61793436  0.33104053  1
  H+  H126  1  0.46553522  0.60115197  0.17549065  1
  H+  H127  1  0.52872195  0.36870199  0.15978181  1
  H+  H128  1  0.35839493  0.99840664  -0.01070327  1
  H+  H129  1  0.07709830  0.91408271  0.39234614  1
  H+  H130  1  0.58942757  0.66896284  0.41110607  1
  H+  H131  1  0.18557230  0.34232420  0.58989534  1
  H+  H132  1  0.33257308  0.66768955  0.06297148  1
  H+  H133  1  0.87151327  0.76476105  0.33728810  1
  H+  H134  1  0.60718280  0.23321972  0.83588575  1
  H+  H135  1  0.99354306  0.36506814  0.66605434  1
  H+  H136  1  0.36482224  0.22822446  0.66993148  1
  H+  H137  1  0.89699727  0.61651644  -0.01398015  1
  H+  H138  1  0.40226544  0.14405806  0.65212150  1
  H+  H139  1  0.86844476  0.10441941  -0.00288118  1
  H+  H140  1  0.34529475  0.43535884  0.43527122  1
  H+  H141  1  0.14137068  0.77081362  0.50418588  1
  H+  H142  1  0.95585561  0.11405861  0.51990103  1
  H+  H143  1  0.76043283  0.70634622  0.11570972  1
  H+  H144  1  0.06856658  0.14262401  0.47004696  1
  H+  H145  1  0.15219700  0.53394301  0.17102488  1
  H+  H146  1  0.16015464  0.28991239  0.31450238  1
  H+  H147  1  0.88126854  0.52573333  0.32813315  1
  H+  H148  1  0.64966097  0.07490505  0.56237558  1
  H+  H149  1  0.61332405  0.22315241  0.33410143  1
  H+  H150  1  0.61775129  0.13640923  0.33413695  1
  H+  H151  1  0.77051913  0.37906966  0.49115249  1
  H+  H152  1  0.39329942  0.36383258  -0.00565933  1
  H+  H153  1  0.77259798  0.92464248  0.19216721  1
  H+  H154  1  0.60385506  0.68442110  0.61865160  1
  H+  H155  1  0.76455686  0.13851676  0.01007630  1
  H+  H156  1  0.32034259  0.04702070  0.95379614  1
  H+  H157  1  0.37214262  0.13231758  0.16176220  1
  H+  H158  1  0.51446225  0.13813564  0.98884412  1
  H+  H159  1  0.96968997  0.09498895  0.66346829  1
  H+  H160  1  0.89813228  1.03208538  0.33090865  1
  H+  H161  1  0.15347317  0.28968707  0.49091599  1
  H+  H162  1  0.61504513  1.01471912  0.65445509  1
  H+  H163  1  0.16846565  0.29438056  0.16811358  1
  H+  H164  1  0.37222733  0.19923615  0.33669842  1
  H+  H165  1  0.39322469  0.36990944  0.50842016  1
  H+  H166  1  0.88281783  0.90239890  0.16662025  1
  H+  H167  1  0.47845521  0.36223522  0.66080619  1
  H+  H168  1  0.85786849  0.63515924  0.34358351  1
  H+  H169  1  0.87967043  0.63901820  0.82380514  1
  H+  H170  1  0.62215819  0.77376170  0.14046954  1
  H+  H171  1  0.60225458  0.56881951  0.17390553  1
  H+  H172  1  0.89692565  0.02214789  0.84575774  1
  H+  H173  1  0.11868719  0.86851991  0.65204564  1
  H+  H174  1  0.15514261  0.04207350  0.16513773  1
  H+  H175  1  0.77250654  0.89512551  0.34645401  1
  H+  H176  1  0.38194618  0.31959951  0.32877277  1
  H+  H177  1  0.85761420  0.22473271  0.50120501  1
  H+  H178  1  0.88118621  0.27381135  1.00099088  1
  H+  H179  1  0.23388248  0.11137134  0.66187481  1
  H+  H180  1  0.76402730  0.88484006  0.49864245  1
  H+  H181  1  0.16220604  0.62853136  0.16574578  1
  H+  H182  1  0.55603324  0.59936805  0.87747729  1
  H+  H183  1  0.88084466  0.22403149  0.68023606  1
  H+  H184  1  0.60684204  0.46913120  0.34231537  1
  H+  H185  1  0.94716925  0.97602460  0.78151304  1
  H+  H186  1  0.88444668  0.76735214  0.83425710  1
  H+  H187  1  0.04349722  0.15873182  0.16937876  1
  H+  H188  1  0.72539829  0.87465113  0.66423863  1
  H+  H189  1  0.24451027  0.12726495  0.17223172  1
  H+  H190  1  0.72609780  0.87742601  0.83886564  1
  H+  H191  1  0.62817977  0.11062522  0.98997393  1
  H+  H192  1  0.61340885  0.35324124  0.65290237  1
  H+  H193  1  0.13276844  -0.03267303  0.98781787  1
  H+  H194  1  0.34249191  0.41472844  0.05963118  1
  H+  H195  1  0.60207464  0.75511056  0.17086165  1
  H+  H196  1  0.32759982  0.93830466  0.68967271  1
  H+  H197  1  0.59991050  0.89093005  0.82958811  1
  H+  H198  1  0.63387178  0.36065318  0.32891685  1
  H+  H199  1  0.82433133  0.58097226  0.18475264  1
  H+  H200  1  0.27677394  0.07686689  0.52536862  1
  H+  H201  1  0.47545901  0.51814131  0.12372978  1
  H+  H202  1  0.63042908  1.01739328  0.16940596  1
  H+  H203  1  0.21740738  0.86437163  0.32484543  1
  H+  H204  1  0.92870512  0.09474331  0.23529540  1
  H+  H205  1  0.46574498  0.86735627  0.84073841  1
  H+  H206  1  0.07949933  0.66250735  0.43250315  1
  H+  H207  1  0.02544017  0.63648280  0.49447585  1
  H+  H208  1  1.00971440  0.90102027  0.49100176  1
  H+  H209  1  0.60470655  0.22461428  0.99389115  1
  H+  H210  1  0.10218163  0.47332761  0.32002413  1
  H+  H211  1  0.89538127  0.36656487  0.53369336  1
  H+  H212  1  0.01083259  0.63607467  0.13575416  1
  H+  H213  1  0.86498586  0.48015205  -0.00739767  1
  H+  H214  1  0.47762695  0.11290255  0.83143112  1
  H+  H215  1  0.75349107  0.60777696  0.84081094  1
  H+  H216  1  0.11410140  0.62513745  0.79742679  1
  H+  H217  1  0.47702055  0.36236804  0.50662830  1
  H+  H218  1  0.12775466  0.90108555  0.15343833  1
  H+  H219  1  0.16601891  0.58606834  0.61077585  1
  H+  H220  1  0.90140334  0.36251160  0.66912725  1
  H+  H221  1  0.37587565  0.23136013  0.01053002  1
  H+  H222  1  0.48717977  0.63702998  0.33809371  1
  H+  H223  1  0.62117958  0.72681112  0.35028902  1
  H+  H224  1  0.48025613  0.86271938  0.51071444  1
  H+  H225  1  0.89780395  0.12308816  0.17591950  1
  H+  H226  1  0.34798191  0.47056809  0.83469795  1
  H+  H227  1  0.28111913  0.40008355  0.49156365  1
  H+  H228  1  0.01246959  0.87742505  0.33732436  1
  H+  H229  1  0.63018754  1.02275219  -0.00537121  1
  H+  H230  1  0.39094287  0.53114274  0.50586866  1
  H+  H231  1  0.22929432  0.61948255  0.83399194  1
  H+  H232  1  0.89260683  0.99620310  0.16139266  1
  H+  H233  1  0.23360695  0.87996318  0.16902288  1
  H+  H234  1  0.32472568  0.91439115  0.09275396  1
  H+  H235  1  0.50944443  0.88267087  0.15927263  1
  H+  H236  1  0.86520803  0.47058953  0.67336756  1
  H+  H237  1  0.22613847  0.61302371  0.98798355  1
  H+  H238  1  0.17601906  0.08836387  0.60303564  1
  H+  H239  1  0.58164540  0.65866948  0.79926978  1
  H+  H240  1  0.20048157  0.88858845  1.01841199  1
  H+  H241  1  0.48406335  0.36596286  -0.00254152  1
  H+  H242  1  0.61953160  0.38504701  0.48867644  1
  H+  H243  1  0.14306628  0.37415228  0.50020463  1
  H+  H244  1  0.62568757  0.47855023  0.00975625  1
  H+  H245  1  0.36019155  0.73291390  0.82713537  1
  H+  H246  1  0.38899045  0.38107268  0.15456013  1
  H+  H247  1  0.16679588  0.58975146  0.89227608  1
  H+  H248  1  0.64401962  0.60981550  -0.00785180  1
  H+  H249  1  0.51367167  0.63253031  0.65389065  1
  H+  H250  1  0.36262019  0.64134233  0.49504508  1
  H+  H251  1  0.13928089  0.61707793  -0.01550712  1
  H+  H252  1  0.52448268  0.12623980  0.15178028  1
  H+  H253  1  0.78355815  0.63421458  0.67189408  1
  H+  H254  1  0.90197194  0.82135384  0.24863840  1
  H+  H255  1  0.24917635  0.09737920  0.98299846  1
  H+  H256  1  0.60387642  0.88279532  0.00335078  1
  H+  H257  1  0.15599069  0.36311421  0.65205719  1
  H+  H258  1  0.87589792  0.85817271  0.50914051  1
  H+  H259  1  0.86099828  0.22481776  0.34071525  1
  H+  H260  1  0.62196266  0.47294105  0.82734716  1
  H+  H261  1  0.38907926  0.02348983  0.16435183  1
  H+  H262  1  0.15240683  0.40395256  0.15485323  1
  H+  H263  1  0.97061087  0.61473422  0.32148440  1
  H+  H264  1  0.11594293  0.47983672  0.50599230  1
  H+  H265  1  0.37788455  0.40008541  0.66218970  1
  H+  H266  1  0.46490682  0.86029505  0.66707669  1
  H+  H267  1  0.97442658  0.84977820  0.85316128  1
  H+  H268  1  -0.01180010  0.61696100  0.82219412  1
  H+  H269  1  0.36368624  0.73033797  0.49935796  1
  H+  H270  1  0.13814240  0.09836371  0.84008915  1
  H+  H271  1  0.52339263  0.63755547  0.49926233  1
  H+  H272  1  0.97611796  0.58234367  0.67994508  1
  H+  H273  1  0.22746676  0.61829806  0.51521131  1
  H+  H274  1  0.12704318  0.58500415  0.67918951  1
  H+  H275  1  0.10603368  0.72263536  0.33454859  1
  H+  H276  1  0.82888349  0.42700290  0.39649614  1
  H+  H277  1  0.36412706  0.47513871  0.00134343  1
  H+  H278  1  0.63251019  0.11000443  0.65562536  1
  H+  H279  1  0.12617212  0.85452094  0.31947033  1
  H+  H280  1  0.61003618  0.97643872  0.49342739  1
  H+  H281  1  0.85023785  0.13320426  0.50058105  1
  H+  H282  1  0.89314952  0.52365935  0.51303223  1
  H+  H283  1  0.84407895  0.67705877  0.05834308  1
  H+  H284  1  0.88443853  0.86151361  0.66098881  1
  H+  H285  1  0.64101419  0.60484803  0.66125545  1
  H+  H286  1  0.37230585  0.51543073  0.34339095  1
  H+  H287  1  0.83406129  0.73320367  0.16369891  1
  H+  H288  1  0.96497990  0.36055458  0.31270919  1
  H+  H289  1  -0.10251329  0.11995694  0.33115592  1
  H+  H290  1  0.66579367  0.60783519  0.84734094  1
  H+  H291  1  0.40561052  0.06215665  0.88053889  1
  H+  H292  1  0.84669559  0.36776340  0.46260166  1
  H+  H293  1  0.27402583  0.11874933  0.80934196  1
  H+  H294  1  0.92396278  0.32442092  0.58364393  1
  H+  H295  1  0.57773510  0.91590028  0.43457998  1
  H+  H296  1  0.67204070  0.34215101  0.92924534  1
  H+  H297  1  0.61734232  0.47315214  0.49294201  1
  H+  H298  1  0.91414509  0.83238267  0.60191208  1
  H+  H299  1  0.86703446  0.56086350  0.24349291  1
  H+  H300  1  0.37733890  0.78574307  0.32362434  1
  H+  H301  1  0.68342822  0.58027504  0.93705920  1
  H+  H302  1  0.42953280  0.34354811  0.89975390  1
  H+  H303  1  0.84396147  0.92082337  0.06812497  1
  H+  H304  1  0.40905866  0.58284474  0.93285962  1
  H+  H305  1  0.33486874  0.92003407  0.44033071  1
  H+  H306  1  0.58775698  0.17092888  0.42862062  1
  H+  H307  1  0.83383887  0.16723297  0.40100868  1
  H+  H308  1  0.76738662  0.12886575  0.16236666  1
  H+  H309  1  0.42097335  0.33413604  0.59961157  1
  H+  H310  1  0.56933027  0.91965191  0.73845964  1
  H+  H311  1  0.16289244  0.86672709  0.91194578  1
  H+  H312  1  0.66963210  0.08207126  0.26386200  1
  H+  H313  1  0.15391093  0.82780849  0.58807622  1
  H+  H314  1  0.58061539  0.40962354  0.40189755  1
  H+  H315  1  0.39551405  0.37501102  0.84366594  1
  H+  H316  1  0.86575512  0.63614843  0.50142620  1
  H+  H317  1  0.90099585  0.07510813  0.57988652  1
  H+  H318  1  0.67035983  0.07871775  0.90008142  1
  H+  H319  1  0.27608670  0.63238899  0.67753920  1
  H+  H320  1  0.15588368  0.32928481  0.89939676  1
  H+  H321  1  0.56588589  0.26533645  0.61799133  1
  H+  H322  1  0.16816172  0.84094085  0.22642636  1
  H+  H323  1  0.81937661  0.39746531  0.76988532  1
  H+  H324  1  0.33429492  0.67165739  0.76672753  1
  H+  H325  1  0.20364311  0.06417447  0.91683175  1
  H+  H326  1  0.22241192  0.74400064  0.10442767  1
  H+  H327  1  0.17065611  0.59243002  0.26801670  1
  H+  H328  1  0.65449076  0.57272751  0.27410372  1
  H+  H329  1  0.91176115  0.07612965  0.90834221  1
  H+  H330  1  0.59398780  0.41400136  0.06724546  1
  H+  H331  1  0.57179284  0.91187397  0.06107552  1
  H+  H332  1  0.17517848  0.08253660  0.26082304  1
  H+  H333  1  0.27586351  0.85881083  0.77108008  1
  H+  H334  1  0.09469215  0.41535640  0.72680560  1
  H+  H335  1  0.67489453  0.85959579  0.26911439  1
  H+  H336  1  0.82587361  0.16615950  0.06906076  1
  H+  H337  1  0.87678561  0.32946722  0.24059078  1
  H+  H338  1  0.32569579  0.67902975  0.40494574  1
  H+  H339  1  0.82688370  0.91795417  0.40742582  1
  H+  H340  1  0.06972043  0.13865667  0.73821618  1
  H+  H341  1  0.12220074  0.18622427  0.41181898  1
  H+  H342  1  0.28857884  0.39949359  0.65618768  1
  H+  H343  1  0.57940228  0.15261862  0.09126520  1
  H+  H344  1  0.09231294  0.42589505  0.06210070  1
  H+  H345  1  0.91423730  0.33054510  0.90459572  1
  H+  H346  1  0.83904607  0.66124377  0.76567678  1
  H+  H347  1  0.13664480  0.00712664  0.84319597  1
  H+  H348  1  0.72414098  0.85811904  0.99685837  1
  H+  H349  1  0.37343917  0.53324482  0.19284734  1
  H+  H350  1  0.83322972  0.66213481  0.44120941  1
  H+  H351  1  0.88627786  0.10933685  0.66715621  1
  H+  H352  1  0.40499158  0.83072635  0.89967758  1
  H+  H353  1  0.66245993  0.84220610  0.56902487  1
  H+  H354  1  0.42951615  0.61404343  0.27674156  1
  H+  H355  1  0.10711581  0.68265347  0.05266371  1
  H+  H356  1  0.61306184  0.72727958  0.50117768  1
  H+  H357  1  0.57500251  0.69956031  0.73961573  1
  H+  H358  1  0.07042665  0.19085241  0.07486877  1
  H+  H359  1  0.66566471  0.33095800  0.55457476  1
  H+  H360  1  0.88420928  0.77279515  0.50821162  1
  H+  H361  1  0.75886252  0.38304715  -0.00852942  1
  H+  H362  1  0.58243745  0.78216078  0.27984066  1
  H+  H363  1  0.63796179  0.60993300  0.51066393  1
  H+  H364  1  0.03217938  0.97810241  0.44841207  1
  H+  H365  1  0.48361957  0.10238126  0.31829970  1
  H+  H366  1  0.42279423  0.11505630  0.55248351  1
  H+  H367  1  0.66923487  0.33647912  0.26908014  1
  H+  H368  1  0.62793555  0.23109229  0.67834043  1
  H+  H369  1  0.37210179  0.13965241  0.01128617  1
  H+  H370  1  0.09887529  0.92938294  0.05556361  1
  H+  H371  1  0.33829621  0.15887373  0.72732955  1
  H+  H372  1  0.58532978  0.41087608  0.73585839  1
  H+  H373  1  0.34369111  0.16648381  0.10249936  1
  H+  H374  1  0.63255508  0.10695536  0.16505439  1
  H+  H375  1  0.67040624  0.57529294  0.60267569  1
  H+  H376  1  0.42443512  0.07714938  0.22622411  1
  H+  H377  1  0.46150088  0.86105550  0.99290393  1
  H+  H378  1  0.59193967  0.17582734  0.77721776  1
  H+  H379  1  0.86097172  0.38549821  0.99813223  1
  H+  H380  1  0.84542122  0.16262252  0.73787808  1
  H+  H381  1  0.41906195  0.59084842  0.56532664  1
  H+  H382  1  0.13048227  0.15503038  0.16266718  1
  H+  H383  1  0.66634618  0.83015498  0.93748236  1
  O2-  O384  1  0.10286029  0.18981199  0.15257102  1
  O2-  O385  1  0.12618739  0.18552656  0.45770282  1
  O2-  O386  1  0.08111073  0.15111397  0.81952428  1
  O2-  O387  1  0.11401363  0.42823549  0.14341947  1
  O2-  O388  1  0.08828981  0.42045938  0.48947060  1
  O2-  O389  1  0.05646278  0.44088744  0.79790585  1
  O2-  O390  1  0.16495687  0.71175287  0.12193254  1
  O2-  O391  1  0.08475560  0.66490701  0.47764561  1
  O2-  O392  1  0.07809797  0.63901225  0.77031365  1
  O2-  O393  1  0.10567351  0.93803618  0.13417015  1
  O2-  O394  1  0.05854026  0.94761794  0.46688067  1
  O2-  O395  1  0.08085519  0.89949985  0.85171463  1
  O2-  O396  1  0.34267235  0.16532244  0.14839442  1
  O2-  O397  1  0.30305446  0.04242392  0.53920795  1
  O2-  O398  1  0.33273227  0.14734645  0.79226237  1
  O2-  O399  1  0.36813140  0.41981780  0.13849479  1
  O2-  O400  1  0.34409446  0.43116321  0.48001573  1
  O2-  O401  1  0.32947115  0.41088069  0.82328563  1
  O2-  O402  1  0.34078574  0.67859229  0.14255839  1
  O2-  O403  1  0.33024192  0.67063076  0.48248823  1
  O2-  O404  1  0.32992223  0.67133500  0.81231463  1
  O2-  O405  1  0.32906097  0.92116645  0.13978959  1
  O2-  O406  1  0.34165880  0.91637316  0.48494526  1
  O2-  O407  1  0.27337182  0.86049893  0.81553387  1
  O2-  O408  1  0.58403536  0.15004641  0.13574068  1
  O2-  O409  1  0.59270645  0.17879885  0.47345629  1
  O2-  O410  1  0.57837096  0.17339545  0.82084573  1
  O2-  O411  1  0.59053947  0.40240025  0.14501139  1
  O2-  O412  1  0.58701531  0.41408553  0.47555382  1
  O2-  O413  1  0.58582895  0.41400001  0.81135317  1
  O2-  O414  1  0.52633532  0.57538498  0.13072336  1
  O2-  O415  1  0.58600088  0.66654275  0.48655970  1
  O2-  O416  1  0.56866847  0.70177357  0.78402493  1
  O2-  O417  1  0.57021555  0.90524940  0.14216151  1
  O2-  O418  1  0.58148884  0.91428735  0.47980134  1
  O2-  O419  1  0.56990080  0.92041012  0.81446156  1
  O2-  O420  1  0.82939476  0.16428415  0.14992521  1
  O2-  O421  1  0.82670160  0.16727149  0.48135234  1
  O2-  O422  1  0.83652142  0.16178651  0.81613992  1
  O2-  O423  1  0.76146241  0.38806835  0.16519165  1
  O2-  O424  1  0.83372929  0.41156825  0.47648062  1
  O2-  O425  1  0.81150462  0.39235527  0.81429355  1
  O2-  O426  1  0.79293728  0.68422964  0.13717998  1
  O2-  O427  1  0.83422537  0.66522404  0.48653503  1
  O2-  O428  1  0.83968635  0.66174181  0.81108565  1
  O2-  O429  1  0.85717785  0.93431646  0.14832686  1
  O2-  O430  1  0.82507187  0.91437796  0.48334746  1
  O2-  O431  1  0.89008619  0.93981378  0.79877832  1
  O2-  O432  1  0.18223225  0.09916749  0.18516629  1
  O2-  O433  1  0.18839037  0.09279571  0.52263794  1
  O2-  O434  1  0.17354639  0.07118798  0.84880897  1
  O2-  O435  1  0.20559227  0.35679663  0.17932326  1
  O2-  O436  1  0.17998192  0.34721495  0.50952781  1
  O2-  O437  1  0.15316083  0.32097034  0.85399657  1
  O2-  O438  1  0.18146507  0.59300672  0.18823426  1
  O2-  O439  1  0.16783799  0.58868253  0.53192969  1
  O2-  O440  1  0.16739792  0.58871821  0.84702883  1
  O2-  O441  1  0.17058100  0.84677770  0.18097388  1
  O2-  O442  1  0.16879486  0.82988517  0.52136390  1
  O2-  O443  1  0.13649825  0.81916271  0.88318951  1
  O2-  O444  1  0.42309154  0.08331697  0.18071440  1
  O2-  O445  1  0.39009636  0.08819912  0.51437180  1
  O2-  O446  1  0.41381485  0.07301750  0.83681885  1
  O2-  O447  1  0.43146230  0.32352486  0.18444792  1
  O2-  O448  1  0.41878441  0.33611270  0.52424583  1
  O2-  O449  1  0.43589861  0.35433506  0.85563219  1
  O2-  O450  1  0.41466063  0.59428019  0.19902623  1
  O2-  O451  1  0.42154311  0.59297376  0.51956890  1
  O2-  O452  1  0.39809367  0.58487533  0.85637283  1
  O2-  O453  1  0.41498080  0.84353454  0.18441965  1
  O2-  O454  1  0.42015355  0.83261634  0.52703153  1
  O2-  O455  1  0.40496210  0.83008706  0.85438471  1
  O2-  O456  1  0.66322842  0.07715672  0.18412010  1
  O2-  O457  1  0.65347100  0.07658214  0.51581851  1
  O2-  O458  1  0.67051839  0.07007269  0.85578652  1
  O2-  O459  1  0.67624664  0.33553446  0.19075896  1
  O2-  O460  1  0.67550857  0.33444628  0.50984416  1
  O2-  O461  1  0.66387487  0.33852718  0.86392457  1
  O2-  O462  1  0.64608857  0.55887417  0.19484703  1
  O2-  O463  1  0.66678759  0.57790302  0.52493974  1
  O2-  O464  1  0.69298812  0.57571707  0.86106352  1
  O2-  O465  1  0.73242735  0.93035325  0.22054476  1
  O2-  O466  1  0.66174546  0.83432550  0.52400742  1
  O2-  O467  1  0.66820464  0.84279680  0.85514547  1
  O2-  O468  1  0.93275831  0.09738438  0.18993076  1
  O2-  O469  1  0.89685187  0.07585833  0.53232844  1
  O2-  O470  1  0.91757108  0.08041469  0.86300052  1
  O2-  O471  1  0.86147057  0.32978034  0.19495021  1
  O2-  O472  1  0.91743532  0.32693285  0.53755232  1
  O2-  O473  1  0.91036995  0.32609232  0.85953096  1
  O2-  O474  1  0.83432019  0.53793630  0.20385518  1
  O2-  O475  1  0.92141671  0.58331419  0.52782357  1
  O2-  O476  1  0.93332536  0.59867400  0.84345896  1
  O2-  O477  1  0.90946073  0.81962569  0.20244715  1
  O2-  O478  1  0.91258677  0.83385712  0.52237532  1
  O2-  O479  1  0.91022783  0.82629541  0.85158387  1
  O2-  O480  1  0.17104559  0.07976978  0.30644100  1
  O2-  O481  1  0.17235477  0.07976186  0.64769775  1
  O2-  O482  1  0.21785126  0.04609288  0.95684791  1
  O2-  O483  1  0.18592939  0.35036905  0.30007979  1
  O2-  O484  1  0.19181876  0.34109054  0.63455159  1
  O2-  O485  1  0.16596183  0.34069252  0.97489234  1
  O2-  O486  1  0.16222087  0.58672748  0.31279664  1
  O2-  O487  1  0.17173925  0.57823149  0.65516208  1
  O2-  O488  1  0.16618692  0.58259891  0.97154033  1
  O2-  O489  1  0.16064297  0.82870810  0.30451057  1
  O2-  O490  1  0.14393282  0.82486372  0.63510554  1
  O2-  O491  1  0.22315683  0.85081400  1.00756052  1
  O2-  O492  1  0.42405162  0.06869882  0.30110709  1
  O2-  O493  1  0.44743294  0.13097542  0.63140538  1
  O2-  O494  1  0.37635125  0.05529154  0.96852987  1
  O2-  O495  1  0.42512793  0.31061860  0.30873619  1
  O2-  O496  1  0.41848445  0.33255458  0.64552586  1
  O2-  O497  1  0.42371388  0.33210809  0.98317786  1
  O2-  O498  1  0.42762634  0.61539373  0.32200889  1
  O2-  O499  1  0.42371052  0.58823303  0.64130215  1
  O2-  O500  1  0.41482561  0.58209568  0.97825377  1
  O2-  O501  1  0.40958399  0.84196293  0.30273733  1
  O2-  O502  1  0.40531891  0.82637215  0.64942932  1
  O2-  O503  1  0.40093801  0.82681939  0.97899965  1
  O2-  O504  1  0.66932607  0.08205337  0.30928181  1
  O2-  O505  1  0.64565903  0.07046288  0.63287369  1
  O2-  O506  1  0.66406429  0.08389400  0.98176236  1
  O2-  O507  1  0.66797904  0.33388528  0.31431906  1
  O2-  O508  1  0.62388294  0.31129085  0.62827860  1
  O2-  O509  1  0.67851301  0.34142077  0.97724631  1
  O2-  O510  1  0.66039792  0.57543449  0.31924563  1
  O2-  O511  1  0.67343275  0.57654267  0.64832161  1
  O2-  O512  1  0.68151914  0.58507417  0.98258886  1
  O2-  O513  1  0.63504625  0.81984331  0.30207347  1
  O2-  O514  1  0.66435865  0.84923925  0.64884010  1
  O2-  O515  1  0.66372624  0.82681893  0.98260686  1
  O2-  O516  1  0.92908035  0.09143519  0.31487065  1
  O2-  O517  1  0.90878049  0.07195111  0.64728493  1
  O2-  O518  1  0.90318528  0.07718824  0.98568343  1
  O2-  O519  1  0.89973959  0.32837151  0.30764845  1
  O2-  O520  1  0.93083780  0.33143469  0.65468873  1
  O2-  O521  1  0.91095859  0.33449603  0.98526506  1
  O2-  O522  1  0.90761763  0.58540931  0.31094139  1
  O2-  O523  1  0.92616085  0.57353266  0.65311339  1
  O2-  O524  1  0.92375075  0.58242956  0.97334919  1
  O2-  O525  1  0.90172240  0.82495249  0.32011884  1
  O2-  O526  1  0.91676713  0.83269579  0.64721135  1
  O2-  O527  1  0.93396881  0.84855767  0.98789194  1
  O2-  O528  1  0.04533201  0.19560941  0.03613918  1
  O2-  O529  1  0.10622055  0.18108325  0.33787766  1
  O2-  O530  1  0.05965871  0.12723195  0.69405205  1
  O2-  O531  1  0.08188939  0.42160055  0.01767287  1
  O2-  O532  1  0.06643314  0.40993302  0.31660375  1
  O2-  O533  1  0.09739917  0.41157823  0.68206515  1
  O2-  O534  1  0.09283677  0.67548324  0.00849446  1
  O2-  O535  1  0.07256677  0.66259744  0.35009382  1
  O2-  O536  1  0.04665478  0.56983377  0.72419691  1
  O2-  O537  1  0.08912130  0.91508785  0.01157606  1
  O2-  O538  1  0.07490282  0.90784843  0.34744503  1
  O2-  O539  1  0.08783743  0.91329690  0.67408957  1
  O2-  O540  1  0.34511122  0.17175630  0.02815242  1
  O2-  O541  1  0.33815540  0.13818122  0.34817603  1
  O2-  O542  1  0.33971951  0.16563621  0.67931736  1
  O2-  O543  1  0.33464271  0.41374917  0.01484125  1
  O2-  O544  1  0.34684465  0.45209663  0.35271026  1
  O2-  O545  1  0.35041512  0.43528863  0.67047498  1
  O2-  O546  1  0.33008365  0.66376655  0.01775435  1
  O2-  O547  1  0.32445986  0.68017989  0.35930683  1
  O2-  O548  1  0.33770596  0.66348023  0.69096548  1
  O2-  O549  1  0.31640750  0.90254515  0.02383675  1
  O2-  O550  1  0.30518383  0.94151648  0.36851880  1
  O2-  O551  1  0.29636684  0.87601097  0.68708369  1
  O2-  O552  1  0.57187596  0.16379558  0.00694370  1
  O2-  O553  1  0.58335852  0.16263215  0.34844677  1
  O2-  O554  1  0.59840821  0.17255607  0.69550763  1
  O2-  O555  1  0.59450149  0.41677231  0.02183477  1
  O2-  O556  1  0.57844887  0.40787607  0.35575904  1
  O2-  O557  1  0.58505030  0.41137910  0.68992149  1
  O2-  O558  1  0.57768122  0.65124028  0.01923417  1
  O2-  O559  1  0.58847137  0.66713055  0.36502752  1
  O2-  O560  1  0.58227173  0.66811424  0.66010732  1
  O2-  O561  1  0.57283751  0.91303313  0.01590690  1
  O2-  O562  1  0.57308183  0.92122163  0.35550487  1
  O2-  O563  1  0.56549337  0.91516900  0.69276265  1
  O2-  O564  1  0.82616684  0.16880343  0.02381009  1
  O2-  O565  1  0.83620616  0.16469832  0.35563756  1
  O2-  O566  1  0.85072226  0.16300531  0.69278284  1
  O2-  O567  1  0.82930127  0.41835422  0.00693267  1
  O2-  O568  1  0.83020803  0.42351053  0.35149435  1
  O2-  O569  1  0.83590486  0.40822256  0.68588509  1
  O2-  O570  1  0.84799890  0.68067548  0.01368984  1
  O2-  O571  1  0.82661528  0.66335838  0.36125176  1
  O2-  O572  1  0.84367743  0.66471681  0.68708945  1
  O2-  O573  1  0.84149795  0.91626305  0.02293053  1
  O2-  O574  1  0.83112704  0.91875357  0.36149245  1
  O2-  O575  1  0.82642060  0.91215020  0.68417931  1
