# generated using pymatgen
data_H2O
_symmetry_space_group_name_H-M   'P 1'
_cell_length_a   17.99963482
_cell_length_b   18.00081042
_cell_length_c   22.02256500
_cell_angle_alpha   90.00233159
_cell_angle_beta   90.00610529
_cell_angle_gamma   120.00569781
_symmetry_Int_Tables_number   1
_chemical_formula_structural   H2O
_chemical_formula_sum   'H384 O192'
_cell_volume   6179.15858848
_cell_formula_units_Z   192
loop_
 _symmetry_equiv_pos_site_id
 _symmetry_equiv_pos_as_xyz
  1  'x, y, z'
loop_
 _atom_type_symbol
 _atom_type_oxidation_number
  H+  1.0
  O2-  -2.0
loop_
 _atom_site_type_symbol
 _atom_site_label
 _atom_site_symmetry_multiplicity
 _atom_site_fract_x
 _atom_site_fract_y
 _atom_site_fract_z
 _atom_site_occupancy
  H+  H0  1  0.64657501  0.61689513  0.50811453  1
  H+  H1  1  0.28509915  0.90645542  0.33759286  1
  H+  H2  1  0.87522621  0.27948232  0.65854517  1
  H+  H3  1  0.64275279  0.15058531  0.15175778  1
  H+  H4  1  0.95197436  0.17924337  0.28119380  1
  H+  H5  1  0.89136853  0.27267047  0.99923039  1
  H+  H6  1  0.96433388  0.10413483  0.66052006  1
  H+  H7  1  0.85243793  0.41893624  0.38989631  1
  H+  H8  1  0.71933024  0.84695910  -0.01334841  1
  H+  H9  1  0.38735791  0.78058408  0.83490697  1
  H+  H10  1  0.12381817  0.22947430  0.00757278  1
  H+  H11  1  0.04696081  0.38545547  0.18754153  1
  H+  H12  1  0.54796332  0.16977313  1.00501809  1
  H+  H13  1  0.37721887  0.36536590  0.51340634  1
  H+  H14  1  0.34741505  0.22853931  0.49861072  1
  H+  H15  1  0.38949666  0.02813988  0.17667860  1
  H+  H16  1  -0.03073231  0.85680753  0.83687687  1
  H+  H17  1  0.14444953  1.02822068  -0.00705161  1
  H+  H18  1  0.11601416  0.65639359  0.16086445  1
  H+  H19  1  0.21555031  0.11098373  0.50687732  1
  H+  H20  1  0.87401520  0.01339683  0.65941606  1
  H+  H21  1  0.86252717  0.97507068  -0.00083342  1
  H+  H22  1  0.86191265  0.63829793  0.83820221  1
  H+  H23  1  0.85186259  0.88228184  0.65489557  1
  H+  H24  1  0.65934791  0.13734540  0.98558772  1
  H+  H25  1  0.40966063  0.33885409  0.60463122  1
  H+  H26  1  0.78983004  0.91113465  0.81022442  1
  H+  H27  1  0.66586209  0.63351581  0.65929848  1
  H+  H28  1  0.09858775  0.97403849  0.82251910  1
  H+  H29  1  0.32100119  0.44461555  0.82834567  1
  H+  H30  1  0.89478663  0.11491775  -0.00696701  1
  H+  H31  1  0.65535312  0.89706917  0.82818805  1
  H+  H32  1  0.12488981  0.14120121  0.00187453  1
  H+  H33  1  0.49792955  0.37037273  -0.00672456  1
  H+  H34  1  0.60860833  0.09317903  0.30702329  1
  H+  H35  1  0.87007408  0.12710620  0.50709007  1
  H+  H36  1  0.98033359  0.56112922  0.21705021  1
  H+  H37  1  0.63833564  0.25717492  1.00534781  1
  H+  H38  1  0.33340026  0.66851136  0.20450341  1
  H+  H39  1  0.22657365  0.10515828  0.83800362  1
  H+  H40  1  0.34876702  0.17273370  0.06617298  1
  H+  H41  1  0.15455482  0.79114810  0.17525257  1
  H+  H42  1  0.12460295  0.10818593  0.65689630  1
  H+  H43  1  0.59100976  0.38580622  0.51597718  1
  H+  H44  1  0.92738891  0.64432130  0.34941610  1
  H+  H45  1  0.63170079  0.14018231  0.53796206  1
  H+  H46  1  0.08561908  0.48163274  0.04605797  1
  H+  H47  1  0.87683066  1.00162048  0.50986920  1
  H+  H48  1  0.13516552  0.22619141  0.81888549  1
  H+  H49  1  0.52570862  0.90149157  0.82319861  1
  H+  H50  1  0.35287849  0.89409071  0.99531620  1
  H+  H51  1  0.37931161  0.35276533  0.17803944  1
  H+  H52  1  0.63394472  0.84926941  0.50668896  1
  H+  H53  1  0.22075151  0.35262428  0.66585743  1
  H+  H54  1  0.12291957  0.31246966  0.15156663  1
  H+  H55  1  0.89068241  0.74415271  0.46343004  1
  H+  H56  1  0.57635728  0.17949398  0.45638024  1
  H+  H57  1  0.72120909  0.60828750  0.99766653  1
  H+  H58  1  0.98019150  0.61568379  0.99265044  1
  H+  H59  1  0.96304543  0.33074001  0.32749353  1
  H+  H60  1  0.98261500  0.09177415  0.16137734  1
  H+  H61  1  0.28314044  0.65919613  0.00347993  1
  H+  H62  1  0.12020295  0.09710636  0.50527479  1
  H+  H63  1  0.40131613  0.57856121  0.94878585  1
  H+  H64  1  0.86957020  0.23961615  0.82608865  1
  H+  H65  1  0.64289333  0.63451011  0.19299380  1
  H+  H66  1  0.11391851  0.19451323  0.15952999  1
  H+  H67  1  0.31860690  0.96272960  -0.00172028  1
  H+  H68  1  0.61532952  0.95169045  0.50166909  1
  H+  H69  1  0.68731319  0.35416920  0.55620097  1
  H+  H70  1  0.51786874  0.39445684  0.17248653  1
  H+  H71  1  0.42568817  0.59229416  0.17551515  1
  H+  H72  1  0.59507485  0.45781822  0.35287005  1
  H+  H73  1  0.34177268  0.44928709  0.15984838  1
  H+  H74  1  0.46076202  0.34728726  0.33651019  1
  H+  H75  1  0.87153936  0.36669002  0.65593824  1
  H+  H76  1  0.59565442  0.37033629  0.35694722  1
  H+  H77  1  0.47558351  0.61053963  0.33558088  1
  H+  H78  1  0.98289923  0.11335886  0.99452786  1
  H+  H79  1  0.16381559  0.33437228  0.93513564  1
  H+  H80  1  0.84598167  0.87533667  0.15404073  1
  H+  H81  1  0.70151307  0.44463547  0.30391517  1
  H+  H82  1  0.87177952  0.85440680  0.32834363  1
  H+  H83  1  0.01921980  0.37604254  0.49717551  1
  H+  H84  1  0.25943558  0.14486253  0.67762223  1
  H+  H85  1  0.18283521  0.61401099  0.22706736  1
  H+  H86  1  0.38369411  0.80149158  0.98629299  1
  H+  H87  1  0.49317982  0.16110042  0.49288513  1
  H+  H88  1  0.86087513  0.13812550  0.67312932  1
  H+  H89  1  0.52299486  0.88414494  1.00094296  1
  H+  H90  1  0.89339192  0.85963974  0.49049933  1
  H+  H91  1  0.32915941  0.67153519  0.76284683  1
  H+  H92  1  0.77840221  0.39858063  0.82612242  1
  H+  H93  1  0.37871066  0.03174877  0.50967236  1
  H+  H94  1  0.32394595  0.16516483  0.76687237  1
  H+  H95  1  0.51337882  0.40342144  0.82557869  1
  H+  H96  1  0.62693852  0.72739496  0.48982808  1
  H+  H97  1  0.97386852  0.61999997  0.83714417  1
  H+  H98  1  0.62846437  0.65992868  0.83561942  1
  H+  H99  1  0.90412441  0.62274567  0.47471455  1
  H+  H100  1  0.40467079  0.88984558  0.16606530  1
  H+  H101  1  0.77195027  0.87651961  0.49119956  1
  H+  H102  1  0.96593928  0.61479249  0.65787456  1
  H+  H103  1  0.46862073  0.09547981  0.66245584  1
  H+  H104  1  0.25734946  0.12729934  0.34491423  1
  H+  H105  1  0.11868936  0.63451968  0.49252613  1
  H+  H106  1  0.75357531  0.39849000  0.31952213  1
  H+  H107  1  0.21692555  0.33264520  0.16556208  1
  H+  H108  1  0.76610190  0.88411638  0.33150128  1
  H+  H109  1  0.63612040  0.38904820  0.68153924  1
  H+  H110  1  0.35833816  0.21936615  0.82835833  1
  H+  H111  1  0.60876224  0.88160247  0.67097209  1
  H+  H112  1  0.37007862  -0.01941733  0.81659030  1
  H+  H113  1  0.38597579  0.35702213  -0.00274475  1
  H+  H114  1  0.33734985  0.56248250  0.20786163  1
  H+  H115  1  0.74219021  0.51230925  0.21839682  1
  H+  H116  1  0.13400866  0.12104115  0.32775153  1
  H+  H117  1  0.16935281  0.53773596  0.98024045  1
  H+  H118  1  0.61268528  0.26517617  0.83673114  1
  H+  H119  1  0.37277841  0.46061840  0.99696818  1
  H+  H120  1  0.15460432  0.36768135  0.00492711  1
  H+  H121  1  0.12276683  -0.00620560  0.18932216  1
  H+  H122  1  0.28538862  0.89783696  0.16084357  1
  H+  H123  1  0.61666086  0.71096365  0.33441831  1
  H+  H124  1  0.35804862  0.73050616  0.49428773  1
  H+  H125  1  0.27211677  0.87126827  0.67260611  1
  H+  H126  1  0.89929974  0.82772163  0.58640113  1
  H+  H127  1  0.36144981  0.96469645  0.67354034  1
  H+  H128  1  0.28534818  0.13952575  0.00555560  1
  H+  H129  1  0.11880834  0.97855010  0.34715919  1
  H+  H130  1  0.84420077  0.40375085  0.16257966  1
  H+  H131  1  0.91263647  0.76064979  0.36027622  1
  H+  H132  1  0.60170396  0.27885258  0.52564904  1
  H+  H133  1  0.33462946  0.92491192  0.09711646  1
  H+  H134  1  0.14125747  0.76305580  0.65502804  1
  H+  H135  1  0.13675483  0.59487288  0.35102213  1
  H+  H136  1  0.11773064  0.39487064  0.84771759  1
  H+  H137  1  0.13344137  0.51398310  0.50068787  1
  H+  H138  1  0.63523545  0.52532276  0.51621213  1
  H+  H139  1  0.13052323  0.89636137  0.34689667  1
  H+  H140  1  0.91923342  0.15710810  0.84313641  1
  H+  H141  1  0.15465631  0.87784408  0.18090812  1
  H+  H142  1  0.90156369  0.53369064  0.48360963  1
  H+  H143  1  0.53461152  0.88727132  0.34249415  1
  H+  H144  1  0.63474851  0.99965901  0.14735392  1
  H+  H145  1  0.21458210  0.95091444  0.87434094  1
  H+  H146  1  0.10997059  0.72239330  -0.00163683  1
  H+  H147  1  0.63393273  0.53755938  0.84397777  1
  H+  H148  1  0.34076610  0.93399900  0.43571261  1
  H+  H149  1  0.40459330  0.13292945  0.99306222  1
  H+  H150  1  0.68637157  0.59711816  0.59933333  1
  H+  H151  1  0.44719638  0.70686398  0.13409312  1
  H+  H152  1  0.44444057  0.87938391  0.25910261  1
  H+  H153  1  0.54863653  0.67469835  0.82904297  1
  H+  H154  1  0.11060444  0.72539648  0.81599611  1
  H+  H155  1  0.58514987  0.74657183  0.15213223  1
  H+  H156  1  0.34892408  0.23509039  0.68054725  1
  H+  H157  1  0.37092528  0.14176621  0.15821686  1
  H+  H158  1  0.16282502  0.78167181  0.33443830  1
  H+  H159  1  0.87151475  0.38954212  0.00714453  1
  H+  H160  1  0.27672413  0.37763610  0.00229514  1
  H+  H161  1  0.86283483  0.63802226  0.00276950  1
  H+  H162  1  0.13110055  0.08280533  0.17441283  1
  H+  H163  1  0.08965762  0.97017003  0.66602239  1
  H+  H164  1  0.46919988  0.85731026  0.50630656  1
  H+  H165  1  0.71569128  0.85843296  0.16366642  1
  H+  H166  1  0.63293927  0.01647069  0.67142092  1
  H+  H167  1  0.89183898  0.52704236  0.99007848  1
  H+  H168  1  0.35643531  0.63958898  0.82177197  1
  H+  H169  1  0.38498211  0.86737537  0.50491848  1
  H+  H170  1  0.87358782  0.77049762  0.17177359  1
  H+  H171  1  0.62345959  0.15077193  0.82039170  1
  H+  H172  1  0.99795220  0.63119304  0.17088869  1
  H+  H173  1  0.42097324  0.80955760  0.16750696  1
  H+  H174  1  0.57934256  0.90252997  0.06052973  1
  H+  H175  1  0.10391729  0.88390514  0.00074429  1
  H+  H176  1  0.54239804  0.91693548  0.15552391  1
  H+  H177  1  0.27259178  0.63290891  0.67046850  1
  H+  H178  1  0.14472550  0.52423157  0.66409573  1
  H+  H179  1  0.88400555  0.21420601  0.16291136  1
  H+  H180  1  0.86313147  0.12011653  0.35321991  1
  H+  H181  1  -0.11313337  0.26845281  0.51369078  1
  H+  H182  1  0.47670382  0.38041727  0.65999451  1
  H+  H183  1  0.51768777  0.87961881  0.66967203  1
  H+  H184  1  0.58768456  0.10127319  0.53959963  1
  H+  H185  1  0.76686423  0.63911507  0.84366550  1
  H+  H186  1  0.38020576  0.68195882  0.00206225  1
  H+  H187  1  0.40680977  0.54092197  0.50655561  1
  H+  H188  1  0.36154026  0.47677387  0.35336098  1
  H+  H189  1  0.53575828  0.64218027  0.48966141  1
  H+  H190  1  0.37836771  0.23363843  0.15670822  1
  H+  H191  1  0.85310622  0.96623743  0.15321799  1
  H+  H192  1  0.35763971  0.38073142  0.67988298  1
  H+  H193  1  0.71773309  0.37347380  0.16539316  1
  H+  H194  1  0.11587885  0.96960276  0.49753595  1
  H+  H195  1  0.40559525  0.62784226  0.50361209  1
  H+  H196  1  0.62513042  0.60682125  0.16491735  1
  H+  H197  1  0.13985881  0.10889062  0.83834160  1
  H+  H198  1  0.03268055  0.40127039  0.83738502  1
  H+  H199  1  0.32879948  0.39873537  0.09693390  1
  H+  H200  1  0.17579073  0.31321637  0.49660139  1
  H+  H201  1  0.10364562  0.89022539  0.81880496  1
  H+  H202  1  0.37217228  0.26003837  0.33250830  1
  H+  H203  1  0.63045871  0.59023058  0.33391240  1
  H+  H204  1  0.63166442  0.60967329  0.99960688  1
  H+  H205  1  0.78494609  0.62234616  0.16433129  1
  H+  H206  1  0.62343821  0.50464149  0.66792985  1
  H+  H207  1  0.63138925  0.23932926  0.15718284  1
  H+  H208  1  0.86521858  0.48760252  0.83119931  1
  H+  H209  1  0.88486415  0.77694246  0.99104034  1
  H+  H210  1  0.22874524  0.62371186  0.83501247  1
  H+  H211  1  0.62601010  0.96359103  0.34544917  1
  H+  H212  1  0.88641851  0.48959744  0.33821741  1
  H+  H213  1  0.86536360  0.73799985  0.84086740  1
  H+  H214  1  0.03265450  0.64109269  0.48416859  1
  H+  H215  1  0.13635488  0.37381146  0.50965590  1
  H+  H216  1  0.83227600  0.91402021  0.72037446  1
  H+  H217  1  0.10513672  0.62529209  0.66602243  1
  H+  H218  1  0.88229995  0.65394033  0.15608753  1
  H+  H219  1  0.10183447  0.21923620  0.67061365  1
  H+  H220  1  0.43375050  0.06176819  0.99674211  1
  H+  H221  1  0.55761039  -0.00222949  0.28775444  1
  H+  H222  1  0.43108197  0.06545087  0.32739929  1
  H+  H223  1  0.05040424  0.64960309  0.34336635  1
  H+  H224  1  0.28930359  0.41674216  0.50465213  1
  H+  H225  1  0.62689089  0.83892182  -0.01084863  1
  H+  H226  1  0.53383701  0.63915096  0.68767104  1
  H+  H227  1  0.86326163  0.88740758  0.81099724  1
  H+  H228  1  0.81133715  0.63339310  0.67585326  1
  H+  H229  1  0.33052220  0.91327207  0.75939145  1
  H+  H230  1  0.85247939  0.97526330  0.33288452  1
  H+  H231  1  0.08888266  0.24601444  0.36132655  1
  H+  H232  1  0.86798403  0.49857605  0.15810812  1
  H+  H233  1  0.63688820  0.77660990  0.65848506  1
  H+  H234  1  0.59127633  0.66130153  0.39800816  1
  H+  H235  1  0.74139028  0.38210698  -0.01528729  1
  H+  H236  1  0.36575538  0.11393347  0.51380249  1
  H+  H237  1  0.08705474  0.27601894  0.87313776  1
  H+  H238  1  0.27565598  0.89152786  0.49225161  1
  H+  H239  1  0.07946260  0.19604769  0.50563194  1
  H+  H240  1  0.87127387  0.12109429  0.15433493  1
  H+  H241  1  0.66284455  0.81407772  0.83587345  1
  H+  H242  1  0.59406455  0.37829459  0.15830904  1
  H+  H243  1  0.41599508  0.91167235  0.31905720  1
  H+  H244  1  0.46221581  0.35930684  0.51395942  1
  H+  H245  1  1.01859417  0.89065263  1.00115194  1
  H+  H246  1  0.60047789  0.40274438  0.82099359  1
  H+  H247  1  0.16339151  0.83934161  0.93080775  1
  H+  H248  1  0.78252567  0.14351674  0.00042587  1
  H+  H249  1  0.36561045  0.34982146  0.84272947  1
  H+  H250  1  0.23509892  0.35648956  0.84085708  1
  H+  H251  1  0.38949861  0.11552869  0.83137379  1
  H+  H252  1  0.24691937  0.89705652  0.83826956  1
  H+  H253  1  0.49840645  0.13406934  0.25213129  1
  H+  H254  1  0.53909689  0.20278630  0.30464182  1
  H+  H255  1  0.63428990  0.84694128  0.32361063  1
  H+  H256  1  -0.01541297  0.86180175  0.49714702  1
  H+  H257  1  -0.04852989  0.85831291  0.64805490  1
  H+  H258  1  0.63799047  0.87743183  0.16698862  1
  H+  H259  1  0.22226634  0.60308599  0.50346695  1
  H+  H260  1  0.11620036  0.53328742  0.19230469  1
  H+  H261  1  0.74848706  0.07762842  0.52379694  1
  H+  H262  1  0.73501765  0.12675789  0.83261789  1
  H+  H263  1  0.36262998  0.72194970  0.67087798  1
  H+  H264  1  0.60292755  0.47495270  -0.00278649  1
  H+  H265  1  0.14648528  0.42156439  0.19546518  1
  H+  H266  1  0.89224070  0.37408578  0.84648566  1
  H+  H267  1  0.14369030  0.86225043  0.50442524  1
  H+  H268  1  0.88371958  0.86615198  0.99032761  1
  H+  H269  1  0.38756220  0.60634168  0.69692575  1
  H+  H270  1  0.12499210  0.39252307  0.68556157  1
  H+  H271  1  1.04150862  0.15216668  0.82718623  1
  H+  H272  1  -0.00223913  0.10656131  0.49744607  1
  H+  H273  1  0.87932710  0.38149834  0.48827807  1
  H+  H274  1  0.83101813  0.18525452  0.35424465  1
  H+  H275  1  0.20847684  0.85031444  0.99432060  1
  H+  H276  1  0.76528668  0.39961943  0.68501361  1
  H+  H277  1  0.49051774  0.59583919  -0.02426491  1
  H+  H278  1  0.41484400  0.56712861  0.78569450  1
  H+  H279  1  0.60860562  0.13097626  0.66673092  1
  H+  H280  1  0.87573897  0.52773049  0.66246380  1
  H+  H281  1  0.08705453  0.14549694  0.09620084  1
  H+  H282  1  0.92030679  0.59170225  0.89987420  1
  H+  H283  1  0.91835710  0.34311986  0.17494029  1
  H+  H284  1  0.99664693  0.14215658  0.32184751  1
  H+  H285  1  0.61192116  0.72166671  -0.00169938  1
  H+  H286  1  0.61022864  0.38767198  0.99327029  1
  H+  H287  1  0.97994279  0.36119334  1.00568379  1
  H+  H288  1  0.58025970  0.92628119  0.76197883  1
  H+  H289  1  0.72373614  -0.00577601  0.56251967  1
  H+  H290  1  0.04031065  0.81458002  0.13014286  1
  H+  H291  1  0.36968011  0.05173011  0.24068232  1
  H+  H292  1  0.56184707  0.66402998  0.05722163  1
  H+  H293  1  0.91018874  0.33428908  0.57005167  1
  H+  H294  1  0.83742429  0.42650243  0.06058892  1
  H+  H295  1  0.40138246  0.07077557  0.60950475  1
  H+  H296  1  0.65638615  0.49794937  0.18635431  1
  H+  H297  1  0.82776528  0.91352434  0.05750970  1
  H+  H298  1  0.10745731  0.44181029  0.33785730  1
  H+  H299  1  0.96019453  0.85854757  0.17074056  1
  H+  H300  1  0.91280718  0.83374874  0.89894752  1
  H+  H301  1  0.18498208  0.84090445  0.27470701  1
  H+  H302  1  0.16523579  0.57506310  0.59989463  1
  H+  H303  1  0.33471764  0.64525020  0.27365422  1
  H+  H304  1  0.84097296  0.42991248  0.73226983  1
  H+  H305  1  0.11243863  0.63892522  0.82581404  1
  H+  H306  1  0.10669189  0.67611312  0.40346044  1
  H+  H307  1  0.90726114  0.06201781  0.57289422  1
  H+  H308  1  0.74599225  0.12529655  0.17098774  1
  H+  H309  1  0.16384306  0.33231958  0.60617629  1
  H+  H310  1  0.07182090  0.16779633  0.40326504  1
  H+  H311  1  0.56714564  0.40758080  0.45007870  1
  H+  H312  1  0.38447638  0.86807984  0.83099958  1
  H+  H313  1  0.59314256  0.09393884  0.40979267  1
  H+  H314  1  0.66924953  0.82765740  0.56720154  1
  H+  H315  1  0.67136782  0.55786782  0.28299792  1
  H+  H316  1  0.33448402  0.10892941  0.35232431  1
  H+  H317  1  0.38325501  0.85654218  0.66270455  1
  H+  H318  1  0.41042477  0.85287956  0.92329505  1
  H+  H319  1  0.42680021  0.09197560  0.88963096  1
  H+  H320  1  0.55480380  0.64864584  0.15554046  1
  H+  H321  1  0.83085479  0.14854453  0.44975264  1
  H+  H322  1  0.43348144  0.56004232  0.85904170  1
  H+  H323  1  0.35609284  0.38548407  0.35183517  1
  H+  H324  1  0.36912733  0.70377646  0.09751695  1
  H+  H325  1  0.79412762  0.38600843  0.47932044  1
  H+  H326  1  0.09608655  0.68471401  0.09553984  1
  H+  H327  1  0.38372384  0.51507273  0.69769916  1
  H+  H328  1  0.58150841  0.90090931  0.43813723  1
  H+  H329  1  0.31899487  0.16587308  0.43958411  1
  H+  H330  1  0.10712334  0.43159479  0.74556314  1
  H+  H331  1  0.41021766  0.82893982  0.60069765  1
  H+  H332  1  0.09264887  0.91457268  0.43566859  1
  H+  H333  1  0.41269695  0.56660586  0.28074079  1
  H+  H334  1  0.83285677  0.66642176  0.06213140  1
  H+  H335  1  0.14801386  0.77512645  0.50128541  1
  H+  H336  1  0.92145615  0.34083667  0.90430446  1
  H+  H337  1  0.34005059  0.42679786  0.44201074  1
  H+  H338  1  0.77185800  0.13587004  0.67994468  1
  H+  H339  1  0.72629320  0.86669011  0.65661119  1
  H+  H340  1  0.94703956  0.12308932  0.90180321  1
  H+  H341  1  0.21506376  0.57936555  0.34299390  1
  H+  H342  1  0.33470468  0.67192677  0.43570537  1
  H+  H343  1  0.18171360  0.59867932  0.92427254  1
  H+  H344  1  0.83897811  0.16408901  0.06233182  1
  H+  H345  1  0.67600444  0.06760499  0.61259127  1
  H+  H346  1  0.88780769  0.35305042  0.32211419  1
  H+  H347  1  0.11870152  0.63819178  0.00207802  1
  H+  H348  1  0.93235134  0.61226918  0.28248921  1
  H+  H349  1  0.68307319  0.10356620  0.92628891  1
  H+  H350  1  0.66403529  0.58959277  0.90731378  1
  H+  H351  1  0.55849724  0.29269460  0.87643600  1
  H+  H352  1  0.09597013  0.42246154  0.09146116  1
  H+  H353  1  0.07306739  0.37951264  0.43682352  1
  H+  H354  1  0.67094890  0.34276686  0.22885694  1
  H+  H355  1  0.89906237  0.82131981  0.27066387  1
  H+  H356  1  0.92993792  0.07815783  0.22238085  1
  H+  H357  1  0.57959989  0.44966322  0.72844536  1
  H+  H358  1  0.61069576  0.18829134  0.08820221  1
  H+  H359  1  0.39045129  0.26657025  0.99696845  1
  H+  H360  1  0.66190673  0.82499197  0.26003994  1
  H+  H361  1  0.07453909  0.65519442  0.72396795  1
  H+  H362  1  0.07730658  0.15879618  0.72864045  1
  H+  H363  1  0.66729954  0.08578063  0.22212933  1
  H+  H364  1  0.67054802  0.34292316  0.92921332  1
  H+  H365  1  0.64271542  0.03977359  0.83166831  1
  H+  H366  1  0.17570994  0.08405573  0.93231538  1
  H+  H367  1  0.15703365  0.07727493  0.27201383  1
  H+  H368  1  0.60792558  0.68648825  0.73422579  1
  H+  H369  1  0.52928801  0.14027287  0.81735984  1
  H+  H370  1  0.58440422  0.17228628  0.72022933  1
  H+  H371  1  0.31086174  0.38878851  0.74056424  1
  H+  H372  1  0.41051408  0.33047319  0.89810182  1
  H+  H373  1  0.40824079  0.32591054  0.23998429  1
  H+  H374  1  0.63593153  0.30584046  0.65841491  1
  H+  H375  1  0.05228232  0.90904417  0.72250479  1
  H+  H376  1  0.54588111  0.06200779  0.40746378  1
  H+  H377  1  0.82733503  0.91381440  0.42987263  1
  H+  H378  1  0.15867532  0.07905013  0.59978846  1
  H+  H379  1  0.84316817  0.17862327  0.76696738  1
  H+  H380  1  0.14124264  0.53130188  0.84289850  1
  H+  H381  1  0.06933171  0.89715852  0.09071590  1
  H+  H382  1  0.92394071  0.31277820  0.24297878  1
  H+  H383  1  0.17884595  0.82720854  0.59892593  1
  O2-  O384  1  0.08337711  0.13563199  0.14122183  1
  O2-  O385  1  0.05913650  0.14408426  0.48145628  1
  O2-  O386  1  0.09818993  0.16588131  0.80710334  1
  O2-  O387  1  0.10496753  0.43000156  0.17203319  1
  O2-  O388  1  0.07851152  0.40396728  0.47956551  1
  O2-  O389  1  0.09533278  0.43162900  0.82833267  1
  O2-  O390  1  0.09559042  0.69331096  0.14048714  1
  O2-  O391  1  0.09688933  0.67121946  0.47506043  1
  O2-  O392  1  0.07722913  0.66368302  0.80928817  1
  O2-  O393  1  0.06062242  0.87575111  0.13439136  1
  O2-  O394  1  0.08863782  0.90962400  0.48174172  1
  O2-  O395  1  0.06578047  0.91315445  0.80817328  1
  O2-  O396  1  0.35666145  0.17890532  0.13373369  1
  O2-  O397  1  0.31643247  0.16693085  0.48480121  1
  O2-  O398  1  0.33009396  0.15935873  0.81335491  1
  O2-  O399  1  0.31921836  0.39115410  0.14168586  1
  O2-  O400  1  0.34666939  0.43378774  0.48818490  1
  O2-  O401  1  0.29455030  0.38202843  0.82208314  1
  O2-  O402  1  0.39504783  0.71174717  0.13868539  1
  O2-  O403  1  0.33132542  0.66909994  0.47981585  1
  O2-  O404  1  0.33008935  0.67401382  0.80907826  1
  O2-  O405  1  0.34375962  0.92906118  0.14177684  1
  O2-  O406  1  0.33870617  0.92702650  0.48021352  1
  O2-  O407  1  0.33266573  0.91866698  0.80648358  1
  O2-  O408  1  0.61054882  0.18165576  0.13577443  1
  O2-  O409  1  0.54664229  0.20781834  0.47253180  1
  O2-  O410  1  0.59035706  0.17890126  0.80555643  1
  O2-  O411  1  0.57764239  0.42266796  0.15538210  1
  O2-  O412  1  0.56391952  0.41528638  0.49448440  1
  O2-  O413  1  0.57460657  0.43882780  0.81250959  1
  O2-  O414  1  0.53782607  0.68739099  0.13698491  1
  O2-  O415  1  0.59604250  0.66843123  0.47245990  1
  O2-  O416  1  0.60730099  0.69568651  0.81541346  1
  O2-  O417  1  0.60064814  0.93753383  0.13754006  1
  O2-  O418  1  0.57370912  0.89535313  0.48308294  1
  O2-  O419  1  0.58491142  0.93585283  0.80700515  1
  O2-  O420  1  0.84479180  0.15738860  0.14431613  1
  O2-  O421  1  0.83570351  0.15479423  0.49514273  1
  O2-  O422  1  0.84207150  0.17872397  0.81261279  1
  O2-  O423  1  0.82592464  0.43993809  0.14215798  1
  O2-  O424  1  0.85359313  0.41357001  0.46605924  1
  O2-  O425  1  0.83959141  0.42638045  0.81755855  1
  O2-  O426  1  0.83844562  0.66712065  0.14280612  1
  O2-  O427  1  0.87034125  0.69108164  0.43577100  1
  O2-  O428  1  0.82953245  0.67041006  0.83022602  1
  O2-  O429  1  0.81748753  0.90650609  0.13714762  1
  O2-  O430  1  0.83196271  0.90944211  0.47464312  1
  O2-  O431  1  0.84647345  0.92561409  0.79124286  1
  O2-  O432  1  0.15644443  0.05458634  0.19907954  1
  O2-  O433  1  0.15516299  0.07318523  0.52183692  1
  O2-  O434  1  0.16629152  0.07510413  0.85458357  1
  O2-  O435  1  0.15597695  0.29982708  0.18053249  1
  O2-  O436  1  0.17582011  0.35257296  0.52686038  1
  O2-  O437  1  0.14417177  0.32743390  0.87539901  1
  O2-  O438  1  0.12639366  0.58951955  0.20723394  1
  O2-  O439  1  0.16211673  0.57280935  0.51839824  1
  O2-  O440  1  0.16999938  0.59503224  0.85417489  1
  O2-  O441  1  0.18650886  0.84936578  0.19441831  1
  O2-  O442  1  0.17908077  0.83556338  0.51664957  1
  O2-  O443  1  0.19524938  0.89175344  0.86228843  1
  O2-  O444  1  0.40425951  0.07814138  0.20382235  1
  O2-  O445  1  0.40351033  0.09073172  0.52674995  1
  O2-  O446  1  0.42297264  0.08696467  0.84499555  1
  O2-  O447  1  0.41592292  0.33051839  0.19472111  1
  O2-  O448  1  0.40037500  0.32785414  0.52771668  1
  O2-  O449  1  0.40911867  0.33232967  0.85322835  1
  O2-  O450  1  0.37960620  0.54390788  0.19770434  1
  O2-  O451  1  0.44028981  0.60284259  0.51766241  1
  O2-  O452  1  0.39475887  0.56309403  0.82913962  1
  O2-  O453  1  0.44186245  0.86835148  0.18387676  1
  O2-  O454  1  0.40828532  0.83063533  0.52024715  1
  O2-  O455  1  0.41628903  0.84114557  0.84971001  1
  O2-  O456  1  0.68310422  0.10329122  0.17848458  1
  O2-  O457  1  0.69897574  0.02701584  0.54538329  1
  O2-  O458  1  0.67410236  0.10041002  0.84697235  1
  O2-  O459  1  0.66266388  0.33053638  0.18417826  1
  O2-  O460  1  0.62528046  0.32793831  0.55550340  1
  O2-  O461  1  0.61662847  0.31662117  0.86048062  1
  O2-  O462  1  0.71285774  0.54323369  0.20682928  1
  O2-  O463  1  0.67355057  0.58618171  0.52725146  1
  O2-  O464  1  0.66893948  0.59655673  0.86191540  1
  O2-  O465  1  0.65586902  0.83498248  0.18022488  1
  O2-  O466  1  0.67313826  0.82889779  0.52134571  1
  O2-  O467  1  0.69495966  0.87667861  0.84079126  1
  O2-  O468  1  0.92231237  0.06818617  0.17783261  1
  O2-  O469  1  0.90807002  0.06204059  0.52652722  1
  O2-  O470  1  0.96838570  0.15635784  0.86348265  1
  O2-  O471  1  0.94255203  0.31426947  0.19806198  1
  O2-  O472  1  0.91683329  0.33070557  0.52343465  1
  O2-  O473  1  0.92323553  0.34382418  0.85931036  1
  O2-  O474  1  0.94933833  0.58535145  0.19571779  1
  O2-  O475  1  0.93244006  0.59449623  0.49507798  1
  O2-  O476  1  0.91447747  0.59145958  0.85452674  1
  O2-  O477  1  0.90074352  0.83085909  0.18639660  1
  O2-  O478  1  0.92064693  0.82611983  0.50388716  1
  O2-  O479  1  0.90896118  0.82483458  0.85373868  1
  O2-  O480  1  0.16012740  0.08591345  0.31749738  1
  O2-  O481  1  0.15881461  0.08067264  0.64513752  1
  O2-  O482  1  0.18005284  0.08804330  0.97786678  1
  O2-  O483  1  0.06827731  0.32813575  0.37458344  1
  O2-  O484  1  0.16006519  0.32408559  0.65083177  1
  O2-  O485  1  0.17926937  0.33651145  0.98492854  1
  O2-  O486  1  0.15433347  0.55022736  0.35265760  1
  O2-  O487  1  0.16986783  0.58311399  0.64475132  1
  O2-  O488  1  0.18565450  0.59715130  0.97117313  1
  O2-  O489  1  0.19014954  0.84278204  0.31965412  1
  O2-  O490  1  0.18130527  0.82359746  0.64370326  1
  O2-  O491  1  0.15065561  0.82358785  0.97479695  1
  O2-  O492  1  0.36701454  0.03053623  0.32629355  1
  O2-  O493  1  0.40612281  0.05979148  0.65287076  1
  O2-  O494  1  0.44473456  0.11361972  0.97525693  1
  O2-  O495  1  0.40241513  0.32035874  0.31787716  1
  O2-  O496  1  0.41437569  0.34346896  0.65005059  1
  O2-  O497  1  0.42001425  0.32873293  0.98106083  1
  O2-  O498  1  0.41395865  0.58434359  0.32315770  1
  O2-  O499  1  0.41959455  0.57689972  0.70980541  1
  O2-  O500  1  0.43770331  0.55294757  0.95198186  1
  O2-  O501  1  0.46036972  0.90027064  0.30190121  1
  O2-  O502  1  0.41388923  0.82656202  0.64575677  1
  O2-  O503  1  0.40826916  0.85989792  0.96884316  1
  O2-  O504  1  0.61733981  0.04780496  0.28993581  1
  O2-  O505  1  0.66746291  0.07692318  0.65585415  1
  O2-  O506  1  0.68817124  0.10641963  0.97150357  1
  O2-  O507  1  0.69769005  0.38861674  0.30120858  1
  O2-  O508  1  0.66364847  0.35310291  0.68749403  1
  O2-  O509  1  0.67872082  0.35188791  0.97415471  1
  O2-  O510  1  0.65423597  0.55130242  0.32597333  1
  O2-  O511  1  0.69106262  0.59870727  0.64553211  1
  O2-  O512  1  0.66008094  0.57745655  0.98347151  1
  O2-  O513  1  0.66675523  0.82121460  0.30493892  1
  O2-  O514  1  0.66398562  0.83630909  0.64166372  1
  O2-  O515  1  0.65841354  0.80945728  0.97534176  1
  O2-  O516  1  0.94241244  0.12409653  0.29629502  1
  O2-  O517  1  0.90435416  0.07557731  0.64428962  1
  O2-  O518  1  0.92348700  0.08335184  0.97765305  1
  O2-  O519  1  0.90420649  0.30942396  0.31103471  1
  O2-  O520  1  0.89969968  0.33600392  0.63840011  1
  O2-  O521  1  0.92216926  0.33578658  0.98761495  1
  O2-  O522  1  0.93639817  0.60110425  0.32549790  1
  O2-  O523  1  0.90382318  0.58854501  0.64632332  1
  O2-  O524  1  0.92004302  0.58847255  0.97704773  1
  O2-  O525  1  0.88581984  0.81076906  0.31426319  1
  O2-  O526  1  0.89205904  0.83154139  0.63045816  1
  O2-  O527  1  0.91641070  0.83697397  0.97566275  1
  O2-  O528  1  0.09230558  0.16734925  0.01969562  1
  O2-  O529  1  0.08237274  0.18663695  0.36010440  1
  O2-  O530  1  0.06963817  0.15756553  0.68375452  1
  O2-  O531  1  0.08771265  0.42855630  0.04730993  1
  O2-  O532  1  0.08080626  0.38223929  0.32094049  1
  O2-  O533  1  0.10999388  0.43508272  0.70077296  1
  O2-  O534  1  0.08569244  0.66453747  0.01827430  1
  O2-  O535  1  0.11092871  0.67638404  0.35706812  1
  O2-  O536  1  0.07276736  0.65443085  0.67920032  1
  O2-  O537  1  0.07886690  0.91797321  0.01776705  1
  O2-  O538  1  0.09562469  0.91983623  0.36343424  1
  O2-  O539  1  0.04953357  0.90996710  0.67801436  1
  O2-  O540  1  0.34692633  0.17141267  0.01875864  1
  O2-  O541  1  0.31758157  0.15212425  0.36142500  1
  O2-  O542  1  0.31378486  0.17914766  0.70077975  1
  O2-  O543  1  0.33899734  0.40396499  0.01752041  1
  O2-  O544  1  0.33119765  0.41790478  0.37075401  1
  O2-  O545  1  0.32145194  0.40477848  0.69693927  1
  O2-  O546  1  0.34170591  0.69848531  0.02108915  1
  O2-  O547  1  0.29806170  0.62853942  0.23751955  1
  O2-  O548  1  0.33167073  0.66304755  0.68918051  1
  O2-  O549  1  0.31377171  0.91211197  0.01813780  1
  O2-  O550  1  0.34837209  0.94686180  0.35086106  1
  O2-  O551  1  0.33278829  0.90346664  0.69086876  1
  O2-  O552  1  0.60725488  0.19677456  0.02213368  1
  O2-  O553  1  0.53009684  0.14718082  0.29136639  1
  O2-  O554  1  0.57597265  0.16064659  0.67621948  1
  O2-  O555  1  0.57183260  0.41071769  0.00546788  1
  O2-  O556  1  0.56215367  0.39681451  0.36983233  1
  O2-  O557  1  0.58210477  0.44428655  0.68397468  1
  O2-  O558  1  0.57562554  0.65802474  0.01476850  1
  O2-  O559  1  0.58500988  0.65273151  0.35239561  1
  O2-  O560  1  0.59696804  0.67746616  0.68995382  1
  O2-  O561  1  0.56022654  0.86799529  0.02283005  1
  O2-  O562  1  0.59222312  0.90383480  0.35985034  1
  O2-  O563  1  0.57750915  0.91095032  0.68653140  1
  O2-  O564  1  0.84327589  0.17072842  0.01751881  1
  O2-  O565  1  0.82158886  0.13228746  0.37385818  1
  O2-  O566  1  0.83429913  0.17072883  0.69026913  1
  O2-  O567  1  0.84127929  0.42293234  0.01598159  1
  O2-  O568  1  0.85228136  0.42613129  0.34459450  1
  O2-  O569  1  0.83046926  0.42815556  0.68816968  1
  O2-  O570  1  0.83016881  0.66620863  0.01698592  1
  O2-  O571  1  0.93199481  0.72567976  0.38582186  1
  O2-  O572  1  0.85900702  0.64392390  0.70450842  1
  O2-  O573  1  0.83160902  0.91357061  0.01229485  1
  O2-  O574  1  0.82476713  0.91800055  0.35059925  1
  O2-  O575  1  0.82389591  0.91471076  0.67453575  1
