# generated using pymatgen
data_H2O
_symmetry_space_group_name_H-M   'P 1'
_cell_length_a   17.97789043
_cell_length_b   17.98302089
_cell_length_c   21.99233406
_cell_angle_alpha   90.01450281
_cell_angle_beta   90.01175382
_cell_angle_gamma   119.98736899
_symmetry_Int_Tables_number   1
_chemical_formula_structural   H2O
_chemical_formula_sum   'H384 O192'
_cell_volume   6158.26750276
_cell_formula_units_Z   192
loop_
 _symmetry_equiv_pos_site_id
 _symmetry_equiv_pos_as_xyz
  1  'x, y, z'
loop_
 _atom_type_symbol
 _atom_type_oxidation_number
  H+  1.0
  O2-  -2.0
loop_
 _atom_site_type_symbol
 _atom_site_label
 _atom_site_symmetry_multiplicity
 _atom_site_fract_x
 _atom_site_fract_y
 _atom_site_fract_z
 _atom_site_occupancy
  H+  H0  1  0.61755870  -0.01478627  0.33716908  1
  H+  H1  1  0.16634531  0.09444239  0.58866517  1
  H+  H2  1  0.78267320  0.14545183  0.49499915  1
  H+  H3  1  0.16159134  0.51829567  0.82789812  1
  H+  H4  1  0.71812673  0.85335403  0.98717684  1
  H+  H5  1  0.74460469  0.87856708  0.49429081  1
  H+  H6  1  0.53437471  0.15315796  0.00614458  1
  H+  H7  1  0.28585600  0.64444869  0.83297683  1
  H+  H8  1  0.48589687  0.36999049  0.83490022  1
  H+  H9  1  0.42845822  0.32343593  0.23789568  1
  H+  H10  1  0.85881668  0.74430613  0.01113878  1
  H+  H11  1  0.11160607  0.73928482  0.67578020  1
  H+  H12  1  0.15084648  1.02759835  0.16946725  1
  H+  H13  1  0.73772237  0.62475028  0.69480316  1
  H+  H14  1  0.11385797  0.35447591  0.17457973  1
  H+  H15  1  0.89856269  0.03260806  0.33689680  1
  H+  H16  1  0.65323337  0.11836723  0.18485052  1
  H+  H17  1  0.58516123  0.41360635  1.08649005  1
  H+  H18  1  0.08584695  0.91775216  0.10227695  1
  H+  H19  1  0.60768312  0.37599553  0.83044112  1
  H+  H20  1  0.83575975  0.41981548  0.39137935  1
  H+  H21  1  0.63247896  0.36086432  0.66191439  1
  H+  H22  1  0.88937410  0.85715765  0.84497291  1
  H+  H23  1  0.39343045  1.02012202  0.14560405  1
  H+  H24  1  0.86278572  0.21526954  0.01462386  1
  H+  H25  1  0.80756006  0.64793695  0.80215447  1
  H+  H26  1  0.77324419  0.13996557  0.34129406  1
  H+  H27  1  0.86915278  0.46072921  -0.00132325  1
  H+  H28  1  0.47879729  0.12315926  0.50711685  1
  H+  H29  1  0.86613117  0.13816946  0.65970585  1
  H+  H30  1  0.47306242  0.36293825  0.49713953  1
  H+  H31  1  0.73262129  0.86526997  0.65097536  1
  H+  H32  1  0.13822997  0.77268233  0.17010980  1
  H+  H33  1  0.81821469  0.13054003  0.74768751  1
  H+  H34  1  0.12824320  0.23131379  0.83359187  1
  H+  H35  1  0.38646455  0.78313926  0.83478547  1
  H+  H36  1  0.35355332  0.46855581  0.33847629  1
  H+  H37  1  0.10870075  0.22297706  0.16328244  1
  H+  H38  1  0.69047973  0.61287993  0.42455648  1
  H+  H39  1  0.35832764  0.25345312  0.32396978  1
  H+  H40  1  0.14893387  0.87186695  0.50489119  1
  H+  H41  1  0.18248041  0.31536553  0.57874101  1
  H+  H42  1  0.37953937  0.48788216  0.83547474  1
  H+  H43  1  0.58225285  0.16204461  0.23864213  1
  H+  H44  1  0.28558404  0.94548915  0.02353294  1
  H+  H45  1  0.16071796  0.81847876  0.80527067  1
  H+  H46  1  0.63601537  0.76192834  0.98751727  1
  H+  H47  1  0.32208302  0.64309754  0.38593112  1
  H+  H48  1  0.03642013  0.14474944  0.83015779  1
  H+  H49  1  0.97814996  0.11072596  0.99293685  1
  H+  H50  1  0.26296258  0.52294873  0.44516038  1
  H+  H51  1  0.13719357  0.12065140  0.65127455  1
  H+  H52  1  0.27216139  0.88066600  0.15877209  1
  H+  H53  1  0.52426455  0.14975564  0.66995010  1
  H+  H54  1  0.15515149  0.37897712  0.66119140  1
  H+  H55  1  0.24236142  0.37430162  0.67832217  1
  H+  H56  1  0.03308402  0.89630020  0.16491092  1
  H+  H57  1  0.18908259  1.03923234  0.33701794  1
  H+  H58  1  0.64346027  0.76774280  0.82421276  1
  H+  H59  1  0.14617545  0.12211468  0.84097235  1
  H+  H60  1  0.13529187  0.62413447  0.65986121  1
  H+  H61  1  0.88530105  0.74637627  0.33823134  1
  H+  H62  1  0.36839410  0.14914380  0.00273837  1
  H+  H63  1  0.86268864  0.71628871  0.85252218  1
  H+  H64  1  0.63559715  0.56529653  0.89999711  1
  H+  H65  1  0.38021764  1.06296260  0.66267931  1
  H+  H66  1  0.41150959  0.56368648  0.57489959  1
  H+  H67  1  0.01474496  0.14822722  0.34337887  1
  H+  H68  1  0.77635422  0.39087245  0.49007297  1
  H+  H69  1  0.38834803  0.81719573  0.65286135  1
  H+  H70  1  0.89920976  0.62000986  0.48922185  1
  H+  H71  1  0.87811997  0.87565815  0.00415474  1
  H+  H72  1  0.34839365  0.42872911  0.77245937  1
  H+  H73  1  0.63538527  -0.01627752  0.16427269  1
  H+  H74  1  0.46525301  0.11226316  0.29538558  1
  H+  H75  1  0.28023883  0.15400699  0.82713762  1
  H+  H76  1  0.59547802  0.93631984  0.42983149  1
  H+  H77  1  0.60543031  0.71764741  0.15398217  1
  H+  H78  1  0.89060695  0.36634174  0.32334790  1
  H+  H79  1  0.10216960  0.70151687  0.99027537  1
  H+  H80  1  0.64988800  0.62406261  0.32512048  1
  H+  H81  1  0.40362365  0.75570214  0.14460994  1
  H+  H82  1  0.32793392  0.45199782  0.99908522  1
  H+  H83  1  0.11520527  0.58819138  -0.01321641  1
  H+  H84  1  0.60690210  0.72463925  0.49359551  1
  H+  H85  1  0.12225865  0.59948820  0.16618159  1
  H+  H86  1  0.52326703  0.14547601  0.82310845  1
  H+  H87  1  0.83948824  0.32448260  0.84852965  1
  H+  H88  1  0.64312367  0.28121382  0.50929643  1
  H+  H89  1  0.77527118  0.70349550  0.73624556  1
  H+  H90  1  0.36244592  0.46699184  0.49513759  1
  H+  H91  1  0.12215475  0.73109322  0.32959527  1
  H+  H92  1  0.77674933  0.89102325  0.16137802  1
  H+  H93  1  0.14802569  0.87853957  0.65051603  1
  H+  H94  1  0.27652862  0.14413567  1.00427967  1
  H+  H95  1  0.36381082  0.34390467  0.32513212  1
  H+  H96  1  0.28053397  0.89723409  0.49100679  1
  H+  H97  1  0.88645883  1.01810820  0.49958077  1
  H+  H98  1  0.08273553  0.46688271  0.16207473  1
  H+  H99  1  0.33872572  0.11039217  0.31894417  1
  H+  H100  1  0.01813607  0.65568142  0.68293684  1
  H+  H101  1  0.25563321  0.85934937  0.98713191  1
  H+  H102  1  0.22565584  0.11657565  0.49677766  1
  H+  H103  1  1.03184318  0.64181191  0.33226387  1
  H+  H104  1  0.38937063  0.03483903  0.50577845  1
  H+  H105  1  0.79093140  0.64391674  0.48753088  1
  H+  H106  1  0.60808118  0.72208859  0.34935416  1
  H+  H107  1  0.89050286  0.27633365  0.50459532  1
  H+  H108  1  0.23275180  0.34789704  0.51564937  1
  H+  H109  1  0.92228918  0.08535904  0.59270139  1
  H+  H110  1  0.89177011  0.11206848  0.50296891  1
  H+  H111  1  0.77829266  0.04096871  0.78117924  1
  H+  H112  1  0.37408868  0.57946252  0.65752983  1
  H+  H113  1  0.47406952  0.60528260  0.32516109  1
  H+  H114  1  0.32428636  0.89099162  0.09802821  1
  H+  H115  1  0.10885411  0.22101920  0.01319091  1
  H+  H116  1  0.36599407  0.69430559  0.67092709  1
  H+  H117  1  0.20928613  0.34995187  1.03344097  1
  H+  H118  1  0.09749454  0.45995913  0.00500817  1
  H+  H119  1  0.04044924  0.65038870  0.47702664  1
  H+  H120  1  0.38438576  0.87367284  0.83658798  1
  H+  H121  1  0.79887272  0.90415256  0.34668617  1
  H+  H122  1  0.53251099  0.13457379  0.17631906  1
  H+  H123  1  0.85561706  0.62354630  0.15867653  1
  H+  H124  1  0.53345081  0.37569291  0.17026237  1
  H+  H125  1  0.86679163  0.89951892  0.48881876  1
  H+  H126  1  0.54295974  0.91643167  0.49281221  1
  H+  H127  1  0.39418844  0.11146870  0.14734051  1
  H+  H128  1  0.40696016  0.90753978  0.51044905  1
  H+  H129  1  0.62372816  0.67655892  0.75012835  1
  H+  H130  1  0.72429667  0.60611522  -0.00304059  1
  H+  H131  1  0.50320616  0.90529415  0.19029622  1
  H+  H132  1  0.64235368  0.87020587  0.35235908  1
  H+  H133  1  0.36224272  0.74502242  0.16011539  1
  H+  H134  1  -0.03115587  0.31569598  0.78321689  1
  H+  H135  1  0.89770647  0.12120241  0.18342915  1
  H+  H136  1  0.65689172  0.31724829  0.39160164  1
  H+  H137  1  0.13945532  0.86312355  0.17051347  1
  H+  H138  1  -0.01850797  0.11182646  0.18100989  1
  H+  H139  1  0.77796134  0.12474958  0.01515581  1
  H+  H140  1  0.84475451  0.56002104  0.98052532  1
  H+  H141  1  0.36329468  0.37843003  0.69078292  1
  H+  H142  1  0.59434564  0.45838263  0.68160333  1
  H+  H143  1  0.15065582  0.78364840  0.50027070  1
  H+  H144  1  0.97048029  0.35837617  0.78410092  1
  H+  H145  1  0.60807894  0.59542661  0.67027657  1
  H+  H146  1  0.11542881  0.22344105  0.49866775  1
  H+  H147  1  0.53297522  0.87679945  0.66792330  1
  H+  H148  1  0.14004099  0.61376913  0.31659122  1
  H+  H149  1  0.27450210  0.90582588  0.83300709  1
  H+  H150  1  0.38528238  0.27344157  0.49118620  1
  H+  H151  1  0.62143115  0.14305320  0.49793598  1
  H+  H152  1  0.61826930  0.47237009  0.16631004  1
  H+  H153  1  0.11730987  0.23294122  0.67756176  1
  H+  H154  1  0.89727033  0.62278907  0.32258031  1
  H+  H155  1  0.41666573  0.11064912  0.59979015  1
  H+  H156  1  0.87984559  0.60281717  0.63444283  1
  H+  H157  1  0.39279507  0.13424881  0.83874293  1
  H+  H158  1  0.10593182  0.70556820  0.83583902  1
  H+  H159  1  0.52816953  0.89366284  0.34306393  1
  H+  H160  1  0.63468720  0.11592521  0.31514700  1
  H+  H161  1  0.85986275  0.47998346  0.68352891  1
  H+  H162  1  0.12930748  0.36802804  0.32731781  1
  H+  H163  1  0.21765103  0.36360404  0.32803936  1
  H+  H164  1  0.38899939  0.19931226  0.67160387  1
  H+  H165  1  0.15019067  0.11555781  0.17180374  1
  H+  H166  1  0.75185479  0.36148425  0.99038630  1
  H+  H167  1  0.62086183  0.25263689  0.33566870  1
  H+  H168  1  0.27138228  0.90731549  0.67305961  1
  H+  H169  1  0.64729643  0.64468423  0.81026307  1
  H+  H170  1  0.85919085  -0.01876704  1.00634724  1
  H+  H171  1  0.40765454  0.26642530  0.17768195  1
  H+  H172  1  0.83031026  0.92666350  0.06878101  1
  H+  H173  1  0.89924673  0.52341729  0.16988999  1
  H+  H174  1  0.09322985  0.88547728  0.99995251  1
  H+  H175  1  0.37346482  0.47564781  0.67492534  1
  H+  H176  1  0.65029515  0.27442963  -0.00603846  1
  H+  H177  1  0.86470214  0.62467976  0.69913707  1
  H+  H178  1  0.03756000  0.89238363  0.48768311  1
  H+  H179  1  0.62337091  0.40053498  0.34674078  1
  H+  H180  1  0.86412454  0.39297430  0.67147269  1
  H+  H181  1  0.60179782  -0.01099821  0.81808163  1
  H+  H182  1  0.58863959  0.70952454  0.66044517  1
  H+  H183  1  0.65285487  0.87829786  0.49698363  1
  H+  H184  1  0.24636557  0.57852060  0.14609132  1
  H+  H185  1  0.13279911  1.00606994  0.65284141  1
  H+  H186  1  0.02413482  0.63737618  0.15795626  1
  H+  H187  1  0.37095783  0.93749259  0.67760847  1
  H+  H188  1  0.42262658  0.74133505  0.50381852  1
  H+  H189  1  0.63733588  0.86241199  0.16997107  1
  H+  H190  1  0.02013267  0.39418711  0.66159158  1
  H+  H191  1  0.25865790  0.38512040  0.15066686  1
  H+  H192  1  0.90276951  0.78320198  0.49730651  1
  H+  H193  1  0.49776438  0.61587410  0.66519611  1
  H+  H194  1  0.12457871  0.98330399  0.49055111  1
  H+  H195  1  0.37543327  0.58064842  0.16532206  1
  H+  H196  1  0.39436905  0.28562784  1.00697831  1
  H+  H197  1  0.34595243  0.19927897  0.76955104  1
  H+  H198  1  0.10700358  0.48575592  0.48816922  1
  H+  H199  1  0.96904946  0.34412249  0.98905653  1
  H+  H200  1  0.93339617  0.38922583  0.15928932  1
  H+  H201  1  0.08241633  0.42577121  0.39414970  1
  H+  H202  1  0.61544302  0.39523255  0.49625845  1
  H+  H203  1  0.37897709  0.72989977  0.51567921  1
  H+  H204  1  0.72520333  0.36700244  0.66193175  1
  H+  H205  1  0.13313957  0.89727326  0.33773421  1
  H+  H206  1  0.13799156  0.02898805  0.99313332  1
  H+  H207  1  0.63203705  0.11590004  0.83105233  1
  H+  H208  1  0.89035325  0.27825153  0.32946448  1
  H+  H209  1  0.88601187  0.27925450  0.65589958  1
  H+  H210  1  0.11952014  0.89030023  0.84206894  1
  H+  H211  1  0.87521720  0.89412924  0.66122314  1
  H+  H212  1  0.11305737  0.13452713  0.00901270  1
  H+  H213  1  0.74765354  0.12779607  0.17801008  1
  H+  H214  1  0.45643209  0.55609138  1.01269608  1
  H+  H215  1  0.25058971  0.36668531  0.85559639  1
  H+  H216  1  0.70128381  0.65741657  0.43250774  1
  H+  H217  1  0.88441099  0.67329004  1.01033778  1
  H+  H218  1  0.38688104  0.60847113  0.31950945  1
  H+  H219  1  0.41142667  0.89971192  0.18631952  1
  H+  H220  1  0.63342129  0.61207743  0.52321891  1
  H+  H221  1  0.60371966  0.50608203  0.84244702  1
  H+  H222  1  0.13782003  0.59334851  0.83243803  1
  H+  H223  1  0.50594790  0.89072003  0.81888350  1
  H+  H224  1  0.51672672  0.62594819  0.15714240  1
  H+  H225  1  0.85826390  0.46394688  0.82921524  1
  H+  H226  1  0.68109664  0.83748819  0.40200901  1
  H+  H227  1  0.90410293  0.88429062  0.17769937  1
  H+  H228  1  0.51778108  0.63336751  0.50021101  1
  H+  H229  1  0.36015197  0.13720206  0.48678072  1
  H+  H230  1  0.62684558  0.89003058  0.66971006  1
  H+  H231  1  0.36995886  0.89198223  0.34232385  1
  H+  H232  1  0.15132387  0.38695094  0.82399124  1
  H+  H233  1  0.50857901  0.36203055  0.68739560  1
  H+  H234  1  0.89372975  0.24365493  0.16293130  1
  H+  H235  1  0.40019247  0.07097755  0.24060667  1
  H+  H236  1  0.40836371  0.04295250  0.98477651  1
  H+  H237  1  0.77540984  0.13742685  0.66181574  1
  H+  H238  1  0.87022189  0.97984440  0.66346458  1
  H+  H239  1  0.13455498  0.11406184  0.49544247  1
  H+  H240  1  1.00773969  0.62269402  1.00277461  1
  H+  H241  1  0.17747180  0.83837147  0.59734858  1
  H+  H242  1  0.00082161  0.87991694  0.65272485  1
  H+  H243  1  0.10997595  0.24706694  0.34205013  1
  H+  H244  1  0.63338264  0.60523655  0.17067840  1
  H+  H245  1  1.02192280  0.39048003  0.33434742  1
  H+  H246  1  -0.02607402  0.85623621  0.86412143  1
  H+  H247  1  0.77284190  0.38561773  0.33601594  1
  H+  H248  1  0.38040786  0.86214109  -0.01025764  1
  H+  H249  1  0.67520544  0.84257830  0.59127671  1
  H+  H250  1  0.63653852  0.26909872  0.84142477  1
  H+  H251  1  0.88283970  0.60407406  0.84647004  1
  H+  H252  1  0.26665061  0.62809578  0.67732013  1
  H+  H253  1  0.60347527  0.97777870  0.01159668  1
  H+  H254  1  0.97918189  0.11848757  0.65437627  1
  H+  H255  1  0.79989108  0.38707417  0.15647425  1
  H+  H256  1  0.72308444  0.60468239  0.17147790  1
  H+  H257  1  0.65053304  0.11465777  -0.01221654  1
  H+  H258  1  0.36110687  0.37816485  0.48713334  1
  H+  H259  1  0.86295402  0.98331370  0.16552724  1
  H+  H260  1  1.01040663  0.89437141  1.00798882  1
  H+  H261  1  0.61721741  0.23230813  0.67005635  1
  H+  H262  1  0.89358342  0.10525601  0.83433333  1
  H+  H263  1  0.02107696  0.13576409  0.49098745  1
  H+  H264  1  0.63313718  0.11356429  0.66006885  1
  H+  H265  1  0.35488445  0.46101814  0.15781226  1
  H+  H266  1  0.00068708  0.88481911  0.33186425  1
  H+  H267  1  0.13571980  0.52237676  0.31931595  1
  H+  H268  1  0.13119499  0.53336831  0.65453424  1
  H+  H269  1  0.37764728  0.58677541  0.51076587  1
  H+  H270  1  0.89002980  0.52968031  0.32272556  1
  H+  H271  1  0.28187403  0.13484678  0.15898496  1
  H+  H272  1  0.71313187  0.09966803  0.82447728  1
  H+  H273  1  0.23483676  0.86511070  0.32326470  1
  H+  H274  1  0.34734066  0.71376932  0.00450675  1
  H+  H275  1  0.64919450  0.03792495  0.50294845  1
  H+  H276  1  0.40513612  0.38104417  1.00818172  1
  H+  H277  1  0.02280747  0.39439140  0.48731085  1
  H+  H278  1  0.61569537  0.47192877  1.01977079  1
  H+  H279  1  0.86779990  0.47700971  0.48215311  1
  H+  H280  1  -0.02912674  0.59833738  0.83977249  1
  H+  H281  1  0.14677958  0.62870206  0.50029590  1
  H+  H282  1  0.85883252  0.24830803  0.84298322  1
  H+  H283  1  0.88965252  -0.02235406  0.82044977  1
  H+  H284  1  0.63904595  0.49624041  0.34268403  1
  H+  H285  1  0.38722170  0.28355346  0.83833239  1
  H+  H286  1  0.14676041  0.03310977  0.84726575  1
  H+  H287  1  0.63102855  0.59539740  0.99845208  1
  H+  H288  1  0.17576277  0.80528268  0.90132097  1
  H+  H289  1  0.67830928  0.59482902  0.26484967  1
  H+  H290  1  0.13116997  0.35935012  1.00920316  1
  H+  H291  1  0.57227642  0.65155739  0.06717296  1
  H+  H292  1  0.67929831  0.08413128  0.26693062  1
  H+  H293  1  0.21458831  0.74962827  0.93167082  1
  H+  H294  1  0.93413485  0.84274431  0.55597977  1
  H+  H295  1  0.57854080  0.40100022  0.76662139  1
  H+  H296  1  0.10371972  0.68147469  0.42087534  1
  H+  H297  1  0.53936540  0.11857313  0.35539529  1
  H+  H298  1  0.41622038  0.57084402  0.22884854  1
  H+  H299  1  0.43073174  0.85501236  0.27814505  1
  H+  H300  1  0.16915563  0.59660478  0.56306516  1
  H+  H301  1  0.25937537  0.62496056  -0.00066130  1
  H+  H302  1  0.24787452  0.59025505  0.47989682  1
  H+  H303  1  0.30748538  0.61147069  0.08772620  1
  H+  H304  1  0.58424485  0.92360254  0.10804761  1
  H+  H305  1  0.40381853  0.62507944  0.85181475  1
  H+  H306  1  0.91170107  0.88541099  0.33662759  1
  H+  H307  1  0.27458310  0.63498561  0.32418749  1
  H+  H308  1  0.07937329  0.16007454  0.10581220  1
  H+  H309  1  0.90586053  0.84003408  0.94488696  1
  H+  H310  1  0.93851860  0.59018504  0.54279939  1
  H+  H311  1  0.39117574  0.77693328  0.32852404  1
  H+  H312  1  0.92466638  0.08969499  0.27473894  1
  H+  H313  1  0.15393575  0.33303105  0.23198744  1
  H+  H314  1  0.36456788  0.97737741  0.32964033  1
  H+  H315  1  0.66218275  0.82390569  0.22649579  1
  H+  H316  1  0.05790303  0.40193954  0.06558199  1
  H+  H317  1  0.65019422  0.57039269  0.61653130  1
  H+  H318  1  0.91269736  0.33785058  0.59610905  1
  H+  H319  1  0.79354938  0.65851247  0.33375437  1
  H+  H320  1  0.82770912  0.40577645  0.76903460  1
  H+  H321  1  0.34019353  0.66861316  0.77255102  1
  H+  H322  1  0.83833565  0.17158179  0.43408896  1
  H+  H323  1  0.17274149  0.09222973  0.93520536  1
  H+  H324  1  0.33895541  0.17261940  0.09874294  1
  H+  H325  1  0.58275751  0.17349617  0.76280081  1
  H+  H326  1  0.63351320  0.52472452  0.51978960  1
  H+  H327  1  0.63725069  0.80769276  0.88556222  1
  H+  H328  1  0.10879784  0.92899145  0.39908783  1
  H+  H329  1  0.85655061  0.91841245  0.76111291  1
  H+  H330  1  0.32219843  0.41075677  0.39928182  1
  H+  H331  1  0.34052960  0.93031678  0.43071401  1
  H+  H332  1  0.63519376  0.02441555  0.65918166  1
  H+  H333  1  0.67501894  0.08140259  0.92888896  1
  H+  H334  1  0.72603666  0.35902374  0.84006888  1
  H+  H335  1  0.07992207  0.18116113  0.40757303  1
  H+  H336  1  0.34595931  0.43676692  0.06942049  1
  H+  H337  1  0.38844631  0.04213944  0.84117155  1
  H+  H338  1  0.82583757  0.66019247  0.10351488  1
  H+  H339  1  0.51496079  0.38310319  1.02140644  1
  H+  H340  1  0.89095360  0.30147927  0.93691986  1
  H+  H341  1  0.67197412  0.09155957  0.56579911  1
  H+  H342  1  0.59397019  0.17519082  0.43926367  1
  H+  H343  1  0.86302620  0.14008521  0.34213189  1
  H+  H344  1  0.90476394  0.56366865  0.92569245  1
  H+  H345  1  0.08179455  0.66422752  0.76984012  1
  H+  H346  1  0.39532121  0.38352217  0.83617071  1
  H+  H347  1  0.86726030  0.36813136  1.00275504  1
  H+  H348  1  0.85536494  0.41807142  0.09687681  1
  H+  H349  1  0.84787196  0.67582152  0.42582256  1
  H+  H350  1  0.12430028  0.95162081  0.71349906  1
  H+  H351  1  0.68060553  0.33007885  0.92695969  1
  H+  H352  1  0.08108409  0.66364645  0.09752418  1
  H+  H353  1  0.18547119  0.42035231  0.75969578  1
  H+  H354  1  0.45876229  0.60687072  0.90010691  1
  H+  H355  1  0.88557940  0.36309921  0.50194913  1
  H+  H356  1  0.33347836  0.94032241  0.77423540  1
  H+  H357  1  0.67388712  0.34291902  0.56683760  1
  H+  H358  1  0.43241391  0.10649506  0.92891629  1
  H+  H359  1  0.57411798  0.65406555  0.40164791  1
  H+  H360  1  0.66209997  0.36769571  0.16455027  1
  H+  H361  1  0.92450002  0.08610599  0.89796013  1
  H+  H362  1  0.59232538  0.18191537  0.06589686  1
  H+  H363  1  0.43500915  0.82535777  0.59243529  1
  H+  H364  1  0.18868541  0.33696477  0.91451708  1
  H+  H365  1  0.08610678  0.16675070  0.73146850  1
  H+  H366  1  0.91255217  0.79034015  0.65750653  1
  H+  H367  1  0.85054538  0.93487095  0.41142387  1
  H+  H368  1  0.32188864  0.15098594  0.42469730  1
  H+  H369  1  0.47961246  0.95673953  0.55875765  1
  H+  H370  1  0.41442323  0.83581682  0.93225727  1
  H+  H371  1  0.92317491  0.58451855  0.22888433  1
  H+  H372  1  0.57692004  0.91872510  0.75665438  1
  H+  H373  1  0.15104843  0.55934340  0.92902641  1
  H+  H374  1  0.06186281  0.91221449  0.79661502  1
  H+  H375  1  0.59433736  0.43370350  0.43736899  1
  H+  H376  1  0.93834621  0.86111379  0.23788338  1
  H+  H377  1  0.65948543  0.27935812  0.17862027  1
  H+  H378  1  0.51060085  0.89413829  0.01525567  1
  H+  H379  1  0.84992543  0.17387946  0.10999400  1
  H+  H380  1  0.15040293  0.56724660  0.22608472  1
  H+  H381  1  0.89053499  0.11310530  0.99474760  1
  H+  H382  1  0.17467291  0.83682164  0.26334418  1
  H+  H383  1  0.08345494  0.42285527  0.71831441  1
  O2-  O384  1  0.08134617  0.16133838  0.15111278  1
  O2-  O385  1  0.08160949  0.16796474  0.47416007  1
  O2-  O386  1  0.09697136  0.17330031  0.81467554  1
  O2-  O387  1  0.05017943  0.40401577  0.14382879  1
  O2-  O388  1  0.08034741  0.42859467  0.46856360  1
  O2-  O389  1  0.14779452  0.42293867  0.79065457  1
  O2-  O390  1  0.08536084  0.66662684  0.14250881  1
  O2-  O391  1  0.10248426  0.68378975  0.46677596  1
  O2-  O392  1  0.07860066  0.65029314  0.81439603  1
  O2-  O393  1  0.09295884  0.91796041  0.14677951  1
  O2-  O394  1  0.10004399  0.92214399  0.47624230  1
  O2-  O395  1  0.08333855  0.92165090  0.83818673  1
  O2-  O396  1  0.34335422  0.16409452  0.14287956  1
  O2-  O397  1  0.32597285  0.16161148  0.46918934  1
  O2-  O398  1  0.34227502  0.18891299  0.81494219  1
  O2-  O399  1  0.31712260  0.40822689  0.13380873  1
  O2-  O400  1  0.32799563  0.40892862  0.47605193  1
  O2-  O401  1  0.35024507  0.42704112  0.81925571  1
  O2-  O402  1  0.29624453  0.57956698  0.12690930  1
  O2-  O403  1  0.29154927  0.58384282  0.45537747  1
  O2-  O404  1  0.34523248  0.68062594  0.81725116  1
  O2-  O405  1  0.33171029  0.90757291  0.14105557  1
  O2-  O406  1  0.34165054  0.93208218  0.47647285  1
  O2-  O407  1  0.33716143  0.93685073  0.81918182  1
  O2-  O408  1  0.59199070  0.16548646  0.19397206  1
  O2-  O409  1  0.58920934  0.17306135  0.48353362  1
  O2-  O410  1  0.58420569  0.17193032  0.80855380  1
  O2-  O411  1  0.59374533  0.41235797  0.15013309  1
  O2-  O412  1  0.58579765  0.42633099  0.48303413  1
  O2-  O413  1  0.57543406  0.40242459  0.81300625  1
  O2-  O414  1  0.57677510  0.65728792  0.13918266  1
  O2-  O415  1  0.57701528  0.66321411  0.48185243  1
  O2-  O416  1  0.67014969  0.69337130  0.78058323  1
  O2-  O417  1  0.59801577  0.92224697  0.15247367  1
  O2-  O418  1  0.60141498  0.93966444  0.47576167  1
  O2-  O419  1  0.56786823  0.92666125  0.80164939  1
  O2-  O420  1  0.85467247  0.18156623  0.15513637  1
  O2-  O421  1  0.84276935  0.17326438  0.47979930  1
  O2-  O422  1  0.80194669  0.10207520  0.78947695  1
  O2-  O423  1  0.86172851  0.42076645  0.14168996  1
  O2-  O424  1  0.83462791  0.41532305  0.47100626  1
  O2-  O425  1  0.82453166  0.40315782  0.81453242  1
  O2-  O426  1  0.81857932  0.64775359  0.14737189  1
  O2-  O427  1  0.85032075  0.67223515  0.47197117  1
  O2-  O428  1  0.83357634  0.65375589  0.84244844  1
  O2-  O429  1  0.83656604  0.92529011  0.14613622  1
  O2-  O430  1  0.83732025  0.92964493  0.47392277  1
  O2-  O431  1  0.86538082  0.91822216  0.80551487  1
  O2-  O432  1  0.18513766  0.08882331  0.18166174  1
  O2-  O433  1  0.16507563  0.08492030  0.51247260  1
  O2-  O434  1  0.17990132  0.09552395  0.85755721  1
  O2-  O435  1  0.15050048  0.33030701  0.18663799  1
  O2-  O436  1  0.17542794  0.30929288  0.53437569  1
  O2-  O437  1  0.18949356  0.33355508  0.86967882  1
  O2-  O438  1  0.14004108  0.55784386  0.18084136  1
  O2-  O439  1  0.16808124  0.59159233  0.51796536  1
  O2-  O440  1  0.17357301  0.57124882  0.85040326  1
  O2-  O441  1  0.17065239  0.83297508  0.18552718  1
  O2-  O442  1  0.17996648  0.84160485  0.52013707  1
  O2-  O443  1  0.17110108  0.84619619  0.84488865  1
  O2-  O444  1  0.42893603  0.08221450  0.15521985  1
  O2-  O445  1  0.41860818  0.09491185  0.52204486  1
  O2-  O446  1  0.42309866  0.10385730  0.85420012  1
  O2-  O447  1  0.44448650  0.32507848  0.19414978  1
  O2-  O448  1  0.41128384  0.33199550  0.50820256  1
  O2-  O449  1  0.42361108  0.34668735  0.85105027  1
  O2-  O450  1  0.41898281  0.56728041  0.18366150  1
  O2-  O451  1  0.41735115  0.56899171  0.52702641  1
  O2-  O452  1  0.41731160  0.58151147  0.86691107  1
  O2-  O453  1  0.45611567  0.90419866  0.21465241  1
  O2-  O454  1  0.45236305  0.90340566  0.53554074  1
  O2-  O455  1  0.41797075  0.84530843  0.84856320  1
  O2-  O456  1  0.68709014  0.08834260  0.19056581  1
  O2-  O457  1  0.67486143  0.09773830  0.52054719  1
  O2-  O458  1  0.65601228  0.07839843  0.84427253  1
  O2-  O459  1  0.69824273  0.34069603  0.16916647  1
  O2-  O460  1  0.67521808  0.34273685  0.52120000  1
  O2-  O461  1  0.66724084  0.32848713  0.85972885  1
  O2-  O462  1  0.66237006  0.57582951  0.18883043  1
  O2-  O463  1  0.66474337  0.58339329  0.53858194  1
  O2-  O464  1  0.60862365  0.55882319  0.86005311  1
  O2-  O465  1  0.66440711  0.82633127  0.18222224  1
  O2-  O466  1  0.67906371  0.84236871  0.50576537  1
  O2-  O467  1  0.61958298  0.80151337  0.84245333  1
  O2-  O468  1  0.92162546  0.08483758  0.19826219  1
  O2-  O469  1  0.92151792  0.08121463  0.51727765  1
  O2-  O470  1  0.93214917  0.08718950  0.85259910  1
  O2-  O471  1  0.96565326  0.35975271  0.17369008  1
  O2-  O472  1  0.91705659  0.33647380  0.52102993  1
  O2-  O473  1  0.83832207  0.27581347  0.87116264  1
  O2-  O474  1  0.92417502  0.58445719  0.18336839  1
  O2-  O475  1  0.93151064  0.58827485  0.49886837  1
  O2-  O476  1  0.91082930  0.56724533  0.85520048  1
  O2-  O477  1  0.94127141  0.86232173  0.19282723  1
  O2-  O478  1  0.93415035  0.84395028  0.51089505  1
  O2-  O479  1  0.91093404  0.82502975  0.87097982  1
  O2-  O480  1  0.22310037  0.10010455  0.32143377  1
  O2-  O481  1  0.16673790  0.09097512  0.63414251  1
  O2-  O482  1  0.17114618  0.09056292  0.98084380  1
  O2-  O483  1  0.15613763  0.33297379  0.31280634  1
  O2-  O484  1  0.17935943  0.34081580  0.66574413  1
  O2-  O485  1  0.16857196  0.33338037  0.99978245  1
  O2-  O486  1  0.16758254  0.58138552  0.30031074  1
  O2-  O487  1  0.16605800  0.59582835  0.64332589  1
  O2-  O488  1  0.14619799  0.55773986  0.97425060  1
  O2-  O489  1  0.17383037  0.83527606  0.30894707  1
  O2-  O490  1  0.17512105  0.84204005  0.64301992  1
  O2-  O491  1  0.18370330  0.77952323  0.94266903  1
  O2-  O492  1  0.40185904  0.07555994  0.28559261  1
  O2-  O493  1  0.41995621  0.11962378  0.64484214  1
  O2-  O494  1  0.43497880  0.10406692  0.97493906  1
  O2-  O495  1  0.39355857  0.31338655  0.31103188  1
  O2-  O496  1  0.41140076  0.31799627  0.68079013  1
  O2-  O497  1  0.43361811  0.34749246  0.99741023  1
  O2-  O498  1  0.41458089  0.57419700  0.30802459  1
  O2-  O499  1  0.40964088  0.55622166  0.64241144  1
  O2-  O500  1  0.49215770  0.61534257  0.99565686  1
  O2-  O501  1  0.42310791  0.84047566  0.32326434  1
  O2-  O502  1  0.43094620  0.80525792  0.63519386  1
  O2-  O503  1  0.40794361  0.82945242  0.97705614  1
  O2-  O504  1  0.67046219  0.08648051  0.31186619  1
  O2-  O505  1  0.66455489  0.08470489  0.64408361  1
  O2-  O506  1  0.67938722  0.08349709  0.97381961  1
  O2-  O507  1  0.65840499  0.31696743  0.34737851  1
  O2-  O508  1  0.66640649  0.33483439  0.64432946  1
  O2-  O509  1  0.68778552  0.33310294  0.97427050  1
  O2-  O510  1  0.68819383  0.60306598  0.30987305  1
  O2-  O511  1  0.64164334  0.56493281  0.66175434  1
  O2-  O512  1  0.66350897  0.56583565  0.98639023  1
  O2-  O513  1  0.67265033  0.83644157  0.35778450  1
  O2-  O514  1  0.67223223  0.84103459  0.63649904  1
  O2-  O515  1  0.66027463  0.81939609  0.96955431  1
  O2-  O516  1  0.92513279  0.09411693  0.32043627  1
  O2-  O517  1  0.91895907  0.08725983  0.63867366  1
  O2-  O518  1  0.91898963  0.08353873  0.97499451  1
  O2-  O519  1  0.92345311  0.33733991  0.31295726  1
  O2-  O520  1  0.91346205  0.34007271  0.64216793  1
  O2-  O521  1  0.90545616  0.31182351  0.98147395  1
  O2-  O522  1  0.92528575  0.59013447  0.30781817  1
  O2-  O523  1  0.89621198  0.60095661  0.67645449  1
  O2-  O524  1  0.89857347  0.56085927  0.97233740  1
  O2-  O525  1  0.93914243  0.85327144  0.31938590  1
  O2-  O526  1  0.94007493  0.84648510  0.63763529  1
  O2-  O527  1  0.90989379  0.84435538  0.99061234  1
  O2-  O528  1  0.07797337  0.15943534  0.02512885  1
  O2-  O529  1  0.07737869  0.18463270  0.36001290  1
  O2-  O530  1  0.08368502  0.16993675  0.68649679  1
  O2-  O531  1  0.06724936  0.39923147  0.02093761  1
  O2-  O532  1  0.08446846  0.42315459  0.34819041  1
  O2-  O533  1  0.08215839  0.42881918  0.67396833  1
  O2-  O534  1  0.06860892  0.64876337  0.01505558  1
  O2-  O535  1  0.09334544  0.67056764  0.34557060  1
  O2-  O536  1  0.07953809  0.67992498  0.69326595  1
  O2-  O537  1  0.07430020  0.92257359  0.01810363  1
  O2-  O538  1  0.11222803  0.93570640  0.35371377  1
  O2-  O539  1  0.10780879  0.94129048  0.67082016  1
  O2-  O540  1  0.33729815  0.17720263  0.01903941  1
  O2-  O541  1  0.30976561  0.13387460  0.34589373  1
  O2-  O542  1  0.36317235  0.22633592  0.69698826  1
  O2-  O543  1  0.37177793  0.45348753  0.02588720  1
  O2-  O544  1  0.31676330  0.40874834  0.35359131  1
  O2-  O545  1  0.33995500  0.41752559  0.70125974  1
  O2-  O546  1  0.31796745  0.65277659  0.01635140  1
  O2-  O547  1  0.33327083  0.66302212  0.34285598  1
  O2-  O548  1  0.32410633  0.64532460  0.69523815  1
  O2-  O549  1  0.30506764  0.90610601  0.01073848  1
  O2-  O550  1  0.33795910  0.92286072  0.35333852  1
  O2-  O551  1  0.32755907  0.94962345  0.69341766  1
  O2-  O552  1  0.59533696  0.18128649  0.02153291  1
  O2-  O553  1  0.56793540  0.15493556  0.32049304  1
  O2-  O554  1  0.58410716  0.17126819  0.68513553  1
  O2-  O555  1  0.58086770  0.41213406  0.03760202  1
  O2-  O556  1  0.60602843  0.44023577  0.36367684  1
  O2-  O557  1  0.57463971  0.39791836  0.69490353  1
  O2-  O558  1  0.57857384  0.64798112  0.02083600  1
  O2-  O559  1  0.57763291  0.65895442  0.35612716  1
  O2-  O560  1  0.56142308  0.65379825  0.68111037  1
  O2-  O561  1  0.55913111  0.93738814  0.03969755  1
  O2-  O562  1  0.58994005  0.92643301  0.35633175  1
  O2-  O563  1  0.59080998  0.91537944  0.68554563  1
  O2-  O564  1  0.83717719  0.15602748  0.03221279  1
  O2-  O565  1  0.83322699  0.17039550  0.35785906  1
  O2-  O566  1  0.83513535  0.16666558  0.67829496  1
  O2-  O567  1  0.83741154  0.40138827  0.01594608  1
  O2-  O568  1  0.83479661  0.42254290  0.34608305  1
  O2-  O569  1  0.83104848  0.41775963  0.69167189  1
  O2-  O570  1  0.83594753  0.68104957  0.02045669  1
  O2-  O571  1  0.85314919  0.68432688  0.35103527  1
  O2-  O572  1  0.79436374  0.66781669  0.71433765  1
  O2-  O573  1  0.82782975  0.92183096  0.02331258  1
  O2-  O574  1  0.85839060  0.93752029  0.36161428  1
  O2-  O575  1  0.84119581  0.91897335  0.67792569  1
