# generated using pymatgen
data_H2O
_symmetry_space_group_name_H-M   'P 1'
_cell_length_a   17.98921476
_cell_length_b   17.99893230
_cell_length_c   22.00161291
_cell_angle_alpha   89.94571796
_cell_angle_beta   90.02547025
_cell_angle_gamma   119.99936406
_symmetry_Int_Tables_number   1
_chemical_formula_structural   H2O
_chemical_formula_sum   'H384 O192'
_cell_volume   6169.45341413
_cell_formula_units_Z   192
loop_
 _symmetry_equiv_pos_site_id
 _symmetry_equiv_pos_as_xyz
  1  'x, y, z'
loop_
 _atom_type_symbol
 _atom_type_oxidation_number
  H+  1.0
  O2-  -2.0
loop_
 _atom_site_type_symbol
 _atom_site_label
 _atom_site_symmetry_multiplicity
 _atom_site_fract_x
 _atom_site_fract_y
 _atom_site_fract_z
 _atom_site_occupancy
  H+  H0  1  0.62995868  0.65603061  0.99893578  1
  H+  H1  1  0.89244971  1.00624688  0.32301376  1
  H+  H2  1  0.12206747  0.48570232  0.50560213  1
  H+  H3  1  0.77902242  0.89411922  0.33130463  1
  H+  H4  1  0.13348042  0.99143326  0.32221687  1
  H+  H5  1  0.13836722  0.40868602  0.78281095  1
  H+  H6  1  0.97011487  0.11898083  0.83553649  1
  H+  H7  1  0.62761543  0.86835876  0.00117523  1
  H+  H8  1  0.16100356  0.51546088  0.85173062  1
  H+  H9  1  0.59251359  0.37138864  0.33113480  1
  H+  H10  1  0.87099527  0.62075114  0.67792923  1
  H+  H11  1  0.38870490  0.79546243  0.92082541  1
  H+  H12  1  0.39835802  1.01636517  0.47720207  1
  H+  H13  1  0.38797349  0.86221335  0.65447667  1
  H+  H14  1  0.32357030  0.65930090  0.75383630  1
  H+  H15  1  0.36738991  0.65805848  0.33588024  1
  H+  H16  1  0.35787577  0.26236772  0.33615529  1
  H+  H17  1  0.59008081  0.11320191  0.83405500  1
  H+  H18  1  0.91376052  0.54365358  1.00330250  1
  H+  H19  1  -0.01781261  0.11194138  0.17081577  1
  H+  H20  1  0.13069485  0.04420133  0.99384479  1
  H+  H21  1  0.36472167  0.99890175  -0.02598409  1
  H+  H22  1  0.87433521  0.26283932  0.18226359  1
  H+  H23  1  0.38259014  0.28646414  0.16668659  1
  H+  H24  1  0.39690561  0.46204642  0.67897591  1
  H+  H25  1  0.62373652  0.10270802  0.66143564  1
  H+  H26  1  0.64395306  0.10850612  0.16633262  1
  H+  H27  1  -0.01166000  0.10811748  0.32013526  1
  H+  H28  1  0.64282301  0.31857403  0.99682365  1
  H+  H29  1  0.88741548  0.27148823  0.67455907  1
  H+  H30  1  0.62776782  0.73446976  0.32978727  1
  H+  H31  1  0.17516245  0.86123674  0.18001738  1
  H+  H32  1  0.61329880  0.86033184  0.84572265  1
  H+  H33  1  0.59285374  0.46456952  0.47491003  1
  H+  H34  1  0.13432313  0.23386329  0.66636423  1
  H+  H35  1  0.62252355  0.73323536  0.47938465  1
  H+  H36  1  0.92430962  0.16749047  0.62437337  1
  H+  H37  1  0.64154926  0.77840407  0.65600345  1
  H+  H38  1  0.83909111  0.12334960  0.70330091  1
  H+  H39  1  0.89074013  0.83837910  0.65277871  1
  H+  H40  1  0.17353272  0.57937253  0.90677717  1
  H+  H41  1  0.21996790  0.37049612  0.98746375  1
  H+  H42  1  0.77565871  0.38569033  0.15774710  1
  H+  H43  1  0.87830019  0.76353191  0.30865460  1
  H+  H44  1  0.81783527  0.18144027  -0.03416379  1
  H+  H45  1  0.37924093  0.50153772  0.52130980  1
  H+  H46  1  0.11807578  0.22600574  0.16159134  1
  H+  H47  1  0.36189862  0.89041834  0.06587825  1
  H+  H48  1  0.71441636  0.87671322  0.65042302  1
  H+  H49  1  0.27548442  0.63546895  0.49999976  1
  H+  H50  1  0.62797465  0.49566496  0.68999408  1
  H+  H51  1  0.21176219  0.35578778  0.45014004  1
  H+  H52  1  0.73671163  0.13634116  0.31895601  1
  H+  H53  1  0.51437361  0.11769235  0.67251933  1
  H+  H54  1  0.86922461  0.13469641  0.15608515  1
  H+  H55  1  0.74064970  0.90111101  0.82567164  1
  H+  H56  1  0.12960930  0.60344349  0.33343324  1
  H+  H57  1  0.13583371  1.02122808  0.49569528  1
  H+  H58  1  0.70574010  0.10132209  0.85345156  1
  H+  H59  1  0.83861133  0.36767870  0.35001510  1
  H+  H60  1  0.71941194  0.37028964  0.65788110  1
  H+  H61  1  0.11206418  0.86249895  0.33250137  1
  H+  H62  1  0.12051330  0.62730705  0.49864603  1
  H+  H63  1  0.98778930  0.33413940  0.85504293  1
  H+  H64  1  0.86938360  -0.01914002  0.48012062  1
  H+  H65  1  0.50115331  0.19015585  0.52718850  1
  H+  H66  1  0.63131907  0.27000664  0.31900941  1
  H+  H67  1  0.43599770  0.09020293  -0.01239800  1
  H+  H68  1  0.05421750  0.64860014  0.83298444  1
  H+  H69  1  0.46293584  0.12205972  0.17947331  1
  H+  H70  1  0.13343008  0.75438781  0.33016782  1
  H+  H71  1  0.12106276  0.06957816  0.33342077  1
  H+  H72  1  0.72405383  0.33365556  0.82947945  1
  H+  H73  1  0.88187397  0.82407660  0.84644521  1
  H+  H74  1  0.77958066  0.14609925  0.48665673  1
  H+  H75  1  0.31906394  0.35692196  0.36505837  1
  H+  H76  1  0.10312848  0.23655797  1.00566059  1
  H+  H77  1  0.26654656  0.11652010  0.34082211  1
  H+  H78  1  0.36289680  0.48013645  1.00644133  1
  H+  H79  1  0.60248613  0.36743732  0.82766174  1
  H+  H80  1  0.87039669  0.36033351  0.82514748  1
  H+  H81  1  0.37520514  0.76560575  0.82239933  1
  H+  H82  1  0.36693630  0.48940730  0.15459208  1
  H+  H83  1  0.10582926  0.36822661  0.33709724  1
  H+  H84  1  0.81803566  0.89470540  0.79928458  1
  H+  H85  1  0.61638582  0.88768907  0.48442923  1
  H+  H86  1  0.03026282  0.39540381  0.50563458  1
  H+  H87  1  0.15758393  0.88445271  0.50934475  1
  H+  H88  1  0.03039302  0.62436164  0.49740455  1
  H+  H89  1  0.86830570  0.14808646  0.47762436  1
  H+  H90  1  0.48087166  0.86312288  0.50120383  1
  H+  H91  1  0.02304314  0.86621636  0.33273038  1
  H+  H92  1  0.50470961  0.87781236  0.82365896  1
  H+  H93  1  0.60795462  0.09678003  0.00649591  1
  H+  H94  1  0.60345801  -0.03362070  0.16505885  1
  H+  H95  1  0.19210053  0.88395918  0.99395374  1
  H+  H96  1  0.36917039  0.34583791  0.84698884  1
  H+  H97  1  0.27089671  0.64013544  0.34201864  1
  H+  H98  1  0.79014984  0.63740971  0.69184049  1
  H+  H99  1  0.03980137  0.15564929  0.66315356  1
  H+  H100  1  0.41246281  0.62263279  0.99023998  1
  H+  H101  1  0.12118686  0.40592522  0.01221227  1
  H+  H102  1  0.51466244  0.88971848  0.67243395  1
  H+  H103  1  0.61939213  -0.01562663  0.33322619  1
  H+  H104  1  0.85437543  0.38097757  0.49946645  1
  H+  H105  1  0.62715474  0.36795631  0.50605249  1
  H+  H106  1  1.02044275  0.62387881  0.34596405  1
  H+  H107  1  0.58620192  0.92129271  0.42763099  1
  H+  H108  1  0.08924377  0.64496288  0.72988231  1
  H+  H109  1  0.88265342  0.76959931  0.49897081  1
  H+  H110  1  0.86887720  0.89048754  0.48272596  1
  H+  H111  1  0.51921674  0.09147090  0.47059004  1
  H+  H112  1  0.13700392  0.18501549  0.32798043  1
  H+  H113  1  0.67100919  0.83040103  0.55159868  1
  H+  H114  1  0.13991191  0.01537239  0.67751929  1
  H+  H115  1  0.88954926  0.60251272  0.51123332  1
  H+  H116  1  0.37948909  0.09785581  0.66744143  1
  H+  H117  1  0.13342247  0.61364705  0.17498723  1
  H+  H118  1  0.13353643  0.10875401  0.49685414  1
  H+  H119  1  0.84795485  0.36887617  0.66511187  1
  H+  H120  1  0.34008049  0.11315204  0.91662292  1
  H+  H121  1  0.34051454  0.83886708  0.49226937  1
  H+  H122  1  0.22402129  0.61610363  0.17191047  1
  H+  H123  1  0.27456211  0.15497619  0.16662576  1
  H+  H124  1  0.38741359  0.77978741  0.32441703  1
  H+  H125  1  0.26264351  0.13279915  0.48890688  1
  H+  H126  1  0.39455913  0.63136849  0.49688069  1
  H+  H127  1  0.35453310  0.38841374  0.00789449  1
  H+  H128  1  0.85283716  0.95025279  0.67638682  1
  H+  H129  1  0.60960560  0.63627710  0.15431418  1
  H+  H130  1  0.38332120  0.11807769  0.33083548  1
  H+  H131  1  0.37555407  0.10556128  0.83460537  1
  H+  H132  1  0.84823186  0.13300488  0.83866086  1
  H+  H133  1  0.59916689  0.41241834  0.01908965  1
  H+  H134  1  0.47426809  0.62000835  0.15716861  1
  H+  H135  1  0.90613417  0.29512493  1.00799590  1
  H+  H136  1  0.16185431  0.35001749  0.23542350  1
  H+  H137  1  0.28865632  0.41556827  0.51945480  1
  H+  H138  1  0.59877396  0.87563579  0.16753107  1
  H+  H139  1  0.58866715  0.67234176  0.09401367  1
  H+  H140  1  0.32839045  0.42230152  0.09835166  1
  H+  H141  1  0.71456527  0.10515964  0.66717286  1
  H+  H142  1  0.34592890  0.72344094  0.13985390  1
  H+  H143  1  0.09588159  0.28592939  0.83704461  1
  H+  H144  1  0.52912804  0.64906771  0.47918711  1
  H+  H145  1  0.42070394  0.09703461  0.60579800  1
  H+  H146  1  0.11118611  0.48227595  0.65429952  1
  H+  H147  1  0.02748937  0.87965858  0.48383109  1
  H+  H148  1  0.45072331  0.30972714  0.99236916  1
  H+  H149  1  0.37158935  0.25865184  0.86316979  1
  H+  H150  1  1.02030493  0.60936390  0.67518734  1
  H+  H151  1  0.34546026  0.22807142  0.48550102  1
  H+  H152  1  0.46902614  0.10978265  0.81224371  1
  H+  H153  1  0.15436659  1.02752916  0.17526077  1
  H+  H154  1  0.86034303  0.65215533  0.76653960  1
  H+  H155  1  0.66264030  0.63071723  0.88843818  1
  H+  H156  1  0.15172337  0.08813601  0.89578057  1
  H+  H157  1  0.47852636  0.11840911  0.32238571  1
  H+  H158  1  0.88516002  0.51225423  0.50945303  1
  H+  H159  1  0.69974135  0.66169060  0.21052180  1
  H+  H160  1  0.71801745  0.36953958  0.51198668  1
  H+  H161  1  0.87735151  1.03146516  0.83598427  1
  H+  H162  1  0.37934718  0.24267028  0.65221907  1
  H+  H163  1  0.11904044  0.13736736  0.15952637  1
  H+  H164  1  0.85436042  0.12748794  0.99611370  1
  H+  H165  1  0.14753146  0.34436014  0.93480508  1
  H+  H166  1  0.40957131  0.00621672  0.50801919  1
  H+  H167  1  0.46478632  0.36013970  0.50150039  1
  H+  H168  1  0.07329942  0.90311584  0.01221605  1
  H+  H169  1  0.37657012  0.85635784  0.82740340  1
  H+  H170  1  0.85251202  0.73586600  0.00073516  1
  H+  H171  1  0.63381194  0.77064298  0.17009215  1
  H+  H172  1  0.62975968  0.60493983  0.32542364  1
  H+  H173  1  0.26684613  0.87002835  0.66516712  1
  H+  H174  1  0.09938796  0.24587238  0.33429668  1
  H+  H175  1  0.58888094  0.67270874  0.38674659  1
  H+  H176  1  0.96983924  0.11321811  0.99326167  1
  H+  H177  1  0.48978206  0.64882012  0.31099873  1
  H+  H178  1  0.13375590  0.02808138  0.83803483  1
  H+  H179  1  0.30680317  0.85673741  0.16927270  1
  H+  H180  1  0.59449389  0.96281110  0.01624504  1
  H+  H181  1  0.55630536  0.19091953  0.03300181  1
  H+  H182  1  0.88396556  0.59732109  0.31807514  1
  H+  H183  1  0.86877020  0.89976206  0.16083455  1
  H+  H184  1  0.38032361  0.13389623  0.17902035  1
  H+  H185  1  0.84744219  0.87536616  0.00487358  1
  H+  H186  1  0.13908748  0.10514998  0.67579866  1
  H+  H187  1  0.38292981  0.61712727  0.15320382  1
  H+  H188  1  0.58046652  0.15356905  0.21589907  1
  H+  H189  1  0.13850070  0.73779121  0.01050858  1
  H+  H190  1  0.52344477  0.63939183  0.67716457  1
  H+  H191  1  0.61179046  0.13480970  0.32619542  1
  H+  H192  1  0.59183036  0.45911088  0.33528961  1
  H+  H193  1  0.27782953  0.62991019  0.81934594  1
  H+  H194  1  0.85440177  0.46351825  0.34314949  1
  H+  H195  1  0.39718385  0.34311943  0.65622609  1
  H+  H196  1  0.62402964  0.61243741  0.48415749  1
  H+  H197  1  0.89051685  0.07062268  0.64458967  1
  H+  H198  1  0.89053592  0.27940031  0.50780727  1
  H+  H199  1  0.85342559  0.43762624  0.81732041  1
  H+  H200  1  0.41060062  0.53573181  0.82606401  1
  H+  H201  1  0.89492013  0.62380967  0.83325714  1
  H+  H202  1  0.72028500  0.87171389  0.99482915  1
  H+  H203  1  0.08404335  0.46847214  0.34782549  1
  H+  H204  1  0.23009037  0.37982603  0.18020062  1
  H+  H205  1  0.85376054  0.68491883  0.14766641  1
  H+  H206  1  0.59400176  0.96810719  0.83149337  1
  H+  H207  1  1.03018043  0.87442252  0.83729706  1
  H+  H208  1  0.11614909  0.23301219  0.48410047  1
  H+  H209  1  0.64622599  1.02284781  0.50185038  1
  H+  H210  1  0.51531594  0.36930785  0.82951644  1
  H+  H211  1  0.13072942  0.83855744  0.66674559  1
  H+  H212  1  0.02419508  0.94118243  0.04851884  1
  H+  H213  1  0.89478682  0.50987759  0.17432661  1
  H+  H214  1  0.25040322  0.84996197  0.49688525  1
  H+  H215  1  0.81950591  0.65339803  0.55525560  1
  H+  H216  1  0.35382103  0.96389346  0.66258503  1
  H+  H217  1  0.64573557  0.87287495  0.32312083  1
  H+  H218  1  0.87820678  0.70700660  0.83355721  1
  H+  H219  1  0.86313835  0.62627604  0.00997706  1
  H+  H220  1  0.94414823  0.54218280  0.86812095  1
  H+  H221  1  0.33592603  0.24075168  1.01487777  1
  H+  H222  1  0.45961481  0.85823993  0.16651385  1
  H+  H223  1  0.13503436  0.63666957  0.82773391  1
  H+  H224  1  0.87857452  0.50576608  0.66079250  1
  H+  H225  1  0.73119692  0.61781228  -0.02008430  1
  H+  H226  1  0.27931093  0.63832254  0.64249786  1
  H+  H227  1  0.27252196  0.58228579  -0.01048777  1
  H+  H228  1  0.60023032  0.20670202  0.82812348  1
  H+  H229  1  0.40281030  0.16166779  0.51841428  1
  H+  H230  1  0.91689359  0.81193018  0.17125081  1
  H+  H231  1  0.39596371  0.76915707  0.50696107  1
  H+  H232  1  0.11053435  0.15521462  0.82424000  1
  H+  H233  1  0.74748865  0.61518637  0.16651910  1
  H+  H234  1  0.38614415  0.37503965  0.52265948  1
  H+  H235  1  0.52467234  0.43117664  0.01576924  1
  H+  H236  1  0.27680470  0.89255772  0.81895723  1
  H+  H237  1  0.15906545  0.77650249  0.84063444  1
  H+  H238  1  0.25585767  0.14865205  0.01005909  1
  H+  H239  1  0.60931900  0.49028629  0.17447195  1
  H+  H240  1  0.47816443  0.38231808  0.16931228  1
  H+  H241  1  0.63624857  0.54504349  0.97896944  1
  H+  H242  1  0.13197821  0.74988180  0.65756197  1
  H+  H243  1  0.73125788  0.86552909  0.49263830  1
  H+  H244  1  0.37889831  0.53428197  0.61666181  1
  H+  H245  1  -0.02073243  0.11940705  0.48574678  1
  H+  H246  1  0.86172604  0.97190158  0.00335443  1
  H+  H247  1  0.05784107  0.89524146  0.17638663  1
  H+  H248  1  0.81838360  0.64228174  0.25314965  1
  H+  H249  1  0.02515332  0.63326379  0.16089690  1
  H+  H250  1  0.81233289  0.16657874  0.75266219  1
  H+  H251  1  0.89977591  0.75658808  0.65873112  1
  H+  H252  1  0.73169993  0.30006524  0.98277431  1
  H+  H253  1  0.40901778  0.62327403  0.81883430  1
  H+  H254  1  0.26997694  0.11492069  0.87010442  1
  H+  H255  1  0.06595630  0.50812121  0.70107766  1
  H+  H256  1  0.33277151  0.72662022  -0.02836869  1
  H+  H257  1  0.52972813  0.89566037  0.33155850  1
  H+  H258  1  0.03056389  0.87511967  0.67691841  1
  H+  H259  1  0.26516320  0.12508607  0.68191232  1
  H+  H260  1  0.17806545  0.37577159  0.63444777  1
  H+  H261  1  0.26388747  0.86626626  0.34577122  1
  H+  H262  1  0.12689754  0.40407315  0.16131160  1
  H+  H263  1  0.38414204  0.61432406  0.65246012  1
  H+  H264  1  0.65035223  0.63640786  0.69194801  1
  H+  H265  1  0.27283352  0.40846959  0.81973770  1
  H+  H266  1  0.37470032  0.85496847  1.00158531  1
  H+  H267  1  0.12695269  0.13023784  0.98832734  1
  H+  H268  1  0.89263613  0.41608961  0.01159533  1
  H+  H269  1  0.73825757  0.33852076  -0.03602605  1
  H+  H270  1  0.29745381  0.65450905  0.08620235  1
  H+  H271  1  0.63549068  0.37017607  0.17018415  1
  H+  H272  1  -0.05615758  0.33356496  0.34571917  1
  H+  H273  1  0.37335006  1.01482063  0.80435603  1
  H+  H274  1  0.94015335  0.82008747  1.00156522  1
  H+  H275  1  0.61747693  0.73848054  1.00391192  1
  H+  H276  1  0.12649852  0.49987585  0.16331328  1
  H+  H277  1  0.15053346  0.60943701  0.61089364  1
  H+  H278  1  0.61059860  0.23166473  0.17184761  1
  H+  H279  1  0.97053326  0.36802378  0.66936287  1
  H+  H280  1  0.09884564  0.43799547  0.09661211  1
  H+  H281  1  0.61073574  0.98786363  0.67465898  1
  H+  H282  1  0.84433104  0.21020419  0.39380820  1
  H+  H283  1  0.36452258  0.72702510  0.65854194  1
  H+  H284  1  0.12443045  0.50116236  1.00915887  1
  H+  H285  1  0.15556835  0.76521227  0.17620303  1
  H+  H286  1  0.30391957  0.38335098  0.66568830  1
  H+  H287  1  0.85073540  0.22148072  0.84448743  1
  H+  H288  1  0.61683019  0.12574092  0.48151111  1
  H+  H289  1  0.88519599  0.85526413  0.32482633  1
  H+  H290  1  0.65727081  0.84945305  0.90914386  1
  H+  H291  1  1.00058021  0.63737507  1.00301536  1
  H+  H292  1  0.11238818  0.92126967  0.11682470  1
  H+  H293  1  0.32560064  0.44272910  0.38890543  1
  H+  H294  1  0.41075561  0.31086098  0.58692592  1
  H+  H295  1  0.44395356  0.62413052  0.55512037  1
  H+  H296  1  0.17477336  0.81375926  0.26987982  1
  H+  H297  1  0.33612467  0.40780930  0.77027267  1
  H+  H298  1  0.58716503  0.42013855  0.73959450  1
  H+  H299  1  0.12281992  0.88421140  0.83432159  1
  H+  H300  1  0.85815371  0.43806910  0.07131344  1
  H+  H301  1  0.19335172  0.83723812  0.89999157  1
  H+  H302  1  0.06300000  0.41842408  0.41108460  1
  H+  H303  1  0.19561783  0.36733287  0.33855036  1
  H+  H304  1  0.83949902  0.92097583  0.39197634  1
  H+  H305  1  0.82121921  0.40902468  0.44043292  1
  H+  H306  1  0.68113041  0.31792478  0.89267165  1
  H+  H307  1  0.08169070  0.18177747  0.76404577  1
  H+  H308  1  0.53008453  0.64207635  0.85298681  1
  H+  H309  1  0.75780789  0.62385464  0.50012013  1
  H+  H310  1  0.80470698  0.96706987  0.72778016  1
  H+  H311  1  0.90216012  0.79612038  0.90917614  1
  H+  H312  1  0.61653222  0.74516457  0.86519800  1
  H+  H313  1  0.71672324  0.36086132  0.32536691  1
  H+  H314  1  0.66565567  0.33960410  0.22844704  1
  H+  H315  1  0.55972262  0.39381691  0.42330158  1
  H+  H316  1  0.58001558  0.15720243  0.38750345  1
  H+  H317  1  0.63549870  0.39072890  0.66444754  1
  H+  H318  1  0.43930297  0.35395700  0.33421288  1
  H+  H319  1  0.32785771  0.91142699  0.75366533  1
  H+  H320  1  0.92519677  0.07396291  0.25762353  1
  H+  H321  1  0.53288840  0.11881009  0.08170166  1
  H+  H322  1  0.65154242  0.56741235  0.26741789  1
  H+  H323  1  0.91455246  0.56863136  0.60263031  1
  H+  H324  1  0.69938156  0.10060873  1.00440862  1
  H+  H325  1  0.40981479  0.83596166  0.26399230  1
  H+  H326  1  0.35836228  0.87807577  0.34494989  1
  H+  H327  1  0.12759685  0.64313374  0.00876145  1
  H+  H328  1  0.08751619  0.17588573  0.42506221  1
  H+  H329  1  0.84047347  0.16791416  0.09805312  1
  H+  H330  1  0.81944216  0.39015202  0.72660635  1
  H+  H331  1  0.93199439  0.33634408  0.90992625  1
  H+  H332  1  0.26609442  0.86069068  0.99710677  1
  H+  H333  1  0.94899183  0.60588254  0.91957519  1
  H+  H334  1  0.08891385  0.90501020  0.42645770  1
  H+  H335  1  0.65974079  0.35465262  0.59329679  1
  H+  H336  1  0.88715739  0.30984678  0.24546420  1
  H+  H337  1  0.93311800  0.85426487  0.23590744  1
  H+  H338  1  0.57213201  0.90292711  0.07472524  1
  H+  H339  1  0.92078103  0.09194498  0.54366484  1
  H+  H340  1  0.38170256  0.38322341  0.16305017  1
  H+  H341  1  0.16771928  0.08062382  0.23458020  1
  H+  H342  1  0.91333930  0.08003174  0.93238371  1
  H+  H343  1  0.67123996  0.08142236  0.56134768  1
  H+  H344  1  0.08007541  0.17468901  0.06415002  1
  H+  H345  1  0.17916532  0.84698126  0.56964639  1
  H+  H346  1  0.56168050  0.67371414  0.74152406  1
  H+  H347  1  0.49245007  0.61244781  0.99694994  1
  H+  H348  1  0.08380355  0.90045871  0.73953995  1
  H+  H349  1  0.08953187  0.66839373  0.10263530  1
  H+  H350  1  0.76184847  0.62178435  0.31106068  1
  H+  H351  1  0.55874404  0.28004312  0.95963200  1
  H+  H352  1  0.92148215  0.56513797  0.26756747  1
  H+  H353  1  0.15806989  0.57178565  0.27473412  1
  H+  H354  1  0.08266505  0.65371351  0.40556986  1
  H+  H355  1  0.68005462  0.09108098  0.25984483  1
  H+  H356  1  0.92312531  0.83181970  0.55358988  1
  H+  H357  1  0.57166999  0.92055223  0.73895311  1
  H+  H358  1  0.83215479  0.91890293  0.09984184  1
  H+  H359  1  0.99600040  0.38253569  1.00327953  1
  H+  H360  1  0.85827062  0.37454093  0.16720053  1
  H+  H361  1  0.32582321  0.18272997  0.10349884  1
  H+  H362  1  0.14712433  0.37693774  0.48825180  1
  H+  H363  1  0.30344013  0.85886535  0.42598552  1
  H+  H364  1  0.20669843  0.33605468  0.58394087  1
  H+  H365  1  0.68650505  0.62222138  0.63208772  1
  H+  H366  1  0.62303265  0.55742989  0.54060231  1
  H+  H367  1  0.80978620  0.62930101  0.06797471  1
  H+  H368  1  0.58420439  0.44679148  0.10975466  1
  H+  H369  1  0.91418884  0.33061133  0.57097010  1
  H+  H370  1  0.34121631  0.17161171  0.73281230  1
  H+  H371  1  0.42101832  0.34317824  0.93608645  1
  H+  H372  1  0.72129622  0.86177429  0.16964980  1
  H+  H373  1  0.64074457  0.06692816  0.91009272  1
  H+  H374  1  0.41067227  0.09690273  0.26012168  1
  H+  H375  1  0.73092975  0.10508886  0.16425198  1
  H+  H376  1  0.32859169  0.66868287  0.43488388  1
  H+  H377  1  0.42664992  0.62147492  0.25375358  1
  H+  H378  1  0.88924855  0.02412352  0.16940329  1
  H+  H379  1  0.67287339  0.84070110  0.26365547  1
  H+  H380  1  0.57503741  0.14690081  0.73070107  1
  H+  H381  1  0.42777266  0.83874205  0.59640226  1
  H+  H382  1  0.32521189  0.15644235  0.40115496  1
  H+  H383  1  0.88224371  0.59027015  0.17373108  1
  O2-  O384  1  0.08788685  0.16715718  0.14465778  1
  O2-  O385  1  0.08377323  0.17239159  0.47008091  1
  O2-  O386  1  0.07650405  0.18116157  0.80937158  1
  O2-  O387  1  0.09931499  0.43719355  0.14420645  1
  O2-  O388  1  0.08855339  0.42522131  0.48694937  1
  O2-  O389  1  0.16436745  0.41220121  0.82316424  1
  O2-  O390  1  0.08702029  0.66489367  0.14814056  1
  O2-  O391  1  0.08812120  0.65244330  0.47896965  1
  O2-  O392  1  0.10988864  0.67124202  0.81155318  1
  O2-  O393  1  0.11761444  0.92025559  0.16133049  1
  O2-  O394  1  0.08868022  0.91105640  0.47141493  1
  O2-  O395  1  0.08770439  0.90960198  0.81946343  1
  O2-  O396  1  0.33399459  0.18921811  0.14920161  1
  O2-  O397  1  0.32462271  0.16794375  0.47323719  1
  O2-  O398  1  0.33279520  0.13977683  0.87891563  1
  O2-  O399  1  0.33500159  0.42546478  0.14384801  1
  O2-  O400  1  0.34614944  0.44225230  0.53894298  1
  O2-  O401  1  0.33082045  0.41600722  0.81425488  1
  O2-  O402  1  0.31540392  0.66119387  0.12932339  1
  O2-  O403  1  0.33518922  0.66792702  0.48022195  1
  O2-  O404  1  0.33429580  0.66273340  0.79835364  1
  O2-  O405  1  0.36561849  0.88119531  0.15121594  1
  O2-  O406  1  0.28736569  0.82980803  0.47065608  1
  O2-  O407  1  0.33526585  0.92333779  0.79908810  1
  O2-  O408  1  0.57901504  0.16648190  0.17285881  1
  O2-  O409  1  0.57583853  0.14108384  0.46235640  1
  O2-  O410  1  0.56507505  0.14612767  0.81407335  1
  O2-  O411  1  0.57836196  0.43353170  0.15430902  1
  O2-  O412  1  0.56220550  0.40139250  0.46900108  1
  O2-  O413  1  0.57451530  0.39936004  0.81369041  1
  O2-  O414  1  0.58105103  0.66817191  0.13951296  1
  O2-  O415  1  0.58940817  0.67252859  0.46362079  1
  O2-  O416  1  0.59128041  0.67934500  0.87530876  1
  O2-  O417  1  0.56694794  0.90487747  0.15381588  1
  O2-  O418  1  0.58610315  0.91959138  0.47308979  1
  O2-  O419  1  0.56761718  0.91059692  0.81100092  1
  O2-  O420  1  0.83476333  0.16108659  0.14230585  1
  O2-  O421  1  0.83905703  0.18197198  0.47015295  1
  O2-  O422  1  0.81386468  0.16171415  0.82914073  1
  O2-  O423  1  0.83731052  0.41161311  0.14733077  1
  O2-  O424  1  0.82330830  0.41119601  0.48591036  1
  O2-  O425  1  0.83061638  0.37781255  0.80593662  1
  O2-  O426  1  0.81212661  0.62404145  0.14555260  1
  O2-  O427  1  0.82028457  0.65466267  0.51093122  1
  O2-  O428  1  0.85953154  0.64847993  0.81421474  1
  O2-  O429  1  0.83314018  0.92351218  0.14531965  1
  O2-  O430  1  0.83843404  0.91959805  0.46591206  1
  O2-  O431  1  0.79653787  0.93473446  0.80206052  1
  O2-  O432  1  0.17176151  0.08691150  0.18941090  1
  O2-  O433  1  0.16652180  0.08145462  0.51029826  1
  O2-  O434  1  0.16397632  0.08887041  0.85136443  1
  O2-  O435  1  0.16777298  0.34891281  0.19044775  1
  O2-  O436  1  0.18300511  0.34766302  0.49020183  1
  O2-  O437  1  0.09712031  0.33716575  0.85668487  1
  O2-  O438  1  0.16481649  0.58336355  0.18989217  1
  O2-  O439  1  0.18061780  0.58253537  0.53086846  1
  O2-  O440  1  0.17716429  0.57536617  0.86070039  1
  O2-  O441  1  0.19687228  0.82302974  0.19339988  1
  O2-  O442  1  0.20304896  0.87856527  0.53109320  1
  O2-  O443  1  0.18408692  0.83709735  0.85511173  1
  O2-  O444  1  0.40461442  0.09913762  0.19649302  1
  O2-  O445  1  0.44708620  0.16960333  0.54893814  1
  O2-  O446  1  0.40371936  0.08309144  0.80440976  1
  O2-  O447  1  0.41364090  0.35050858  0.17865814  1
  O2-  O448  1  0.40687586  0.33263630  0.52217049  1
  O2-  O449  1  0.40378071  0.32213605  0.86494130  1
  O2-  O450  1  0.41297805  0.58871699  0.17121388  1
  O2-  O451  1  0.43439697  0.60945589  0.51158066  1
  O2-  O452  1  0.44778802  0.59885721  0.82254040  1
  O2-  O453  1  0.39632476  0.82537808  0.17746629  1
  O2-  O454  1  0.42306416  0.83046124  0.52103781  1
  O2-  O455  1  0.40436249  0.82386407  0.84192773  1
  O2-  O456  1  0.67113826  0.07615051  0.18137963  1
  O2-  O457  1  0.67675649  0.08383853  0.51653234  1
  O2-  O458  1  0.64374177  0.06731929  0.86452104  1
  O2-  O459  1  0.66369733  0.33737813  0.18262308  1
  O2-  O460  1  0.65962889  0.34648413  0.53006457  1
  O2-  O461  1  0.66696350  0.31173786  0.84929572  1
  O2-  O462  1  0.67996052  0.60581532  0.19157867  1
  O2-  O463  1  0.64613141  0.57287882  0.49954587  1
  O2-  O464  1  0.65274068  0.65496828  0.84977866  1
  O2-  O465  1  0.66236357  0.83053713  0.18677663  1
  O2-  O466  1  0.67014295  0.83322933  0.50608392  1
  O2-  O467  1  0.65218619  0.83990641  0.86254674  1
  O2-  O468  1  0.92239006  0.08349430  0.18768964  1
  O2-  O469  1  0.91724204  0.08725882  0.49882277  1
  O2-  O470  1  0.91137346  0.08945584  0.85421637  1
  O2-  O471  1  0.89567415  0.31958154  0.20128055  1
  O2-  O472  1  0.91832034  0.33813027  0.52617680  1
  O2-  O473  1  0.93015263  0.32531319  0.86487374  1
  O2-  O474  1  0.92248178  0.57130900  0.18884043  1
  O2-  O475  1  0.91861946  0.57216240  0.52667644  1
  O2-  O476  1  0.95330352  0.60016239  0.87199959  1
  O2-  O477  1  0.94450887  0.86805757  0.19068787  1
  O2-  O478  1  0.91731555  0.83162521  0.50893752  1
  O2-  O479  1  0.91341457  0.79811998  0.86386864  1
  O2-  O480  1  0.15940494  0.05530847  0.31163242  1
  O2-  O481  1  0.17378424  0.07755262  0.66809956  1
  O2-  O482  1  0.15781051  0.10011431  0.97295979  1
  O2-  O483  1  0.13904804  0.34231011  0.31750827  1
  O2-  O484  1  0.20379282  0.33964762  0.62846944  1
  O2-  O485  1  0.15705048  0.34208498  0.97892306  1
  O2-  O486  1  0.15703339  0.56918251  0.31964707  1
  O2-  O487  1  0.18292193  0.58070160  0.59969722  1
  O2-  O488  1  0.16595492  0.58423124  0.98157747  1
  O2-  O489  1  0.16492220  0.81525030  0.31455841  1
  O2-  O490  1  0.16112233  0.81146418  0.64668968  1
  O2-  O491  1  0.20557209  0.84105633  0.97915875  1
  O2-  O492  1  0.41616909  0.09247029  0.30854220  1
  O2-  O493  1  0.40889195  0.07019755  0.64738891  1
  O2-  O494  1  0.38526100  0.05848880  0.96156467  1
  O2-  O495  1  0.37624640  0.32361815  0.32926741  1
  O2-  O496  1  0.41401937  0.30421320  0.63431053  1
  O2-  O497  1  0.42842584  0.34793162  0.98220792  1
  O2-  O498  1  0.43573800  0.64381030  0.29560052  1
  O2-  O499  1  0.41799635  0.58531854  0.64033843  1
  O2-  O500  1  0.43045596  0.58040269  0.98438752  1
  O2-  O501  1  0.41975723  0.84006789  0.30841896  1
  O2-  O502  1  0.42534621  0.83760947  0.64236493  1
  O2-  O503  1  0.38445078  0.78283152  0.96487855  1
  O2-  O504  1  0.67720959  0.09651633  0.30489012  1
  O2-  O505  1  0.65711907  0.07185142  0.64803307  1
  O2-  O506  1  0.64044577  0.07094568  0.98796567  1
  O2-  O507  1  0.65912260  0.33080612  0.30493033  1
  O2-  O508  1  0.66085801  0.35538558  0.64236083  1
  O2-  O509  1  0.58097311  0.29851849  1.00083139  1
  O2-  O510  1  0.65277435  0.56635487  0.31286666  1
  O2-  O511  1  0.68744248  0.61373697  0.67579429  1
  O2-  O512  1  0.67465940  0.60273062  0.96158691  1
  O2-  O513  1  0.67909966  0.84515267  0.30906550  1
  O2-  O514  1  0.67086322  0.82710821  0.62777371  1
  O2-  O515  1  0.66050514  0.84216902  0.97916048  1
  O2-  O516  1  0.92800422  0.07014268  0.30449426  1
  O2-  O517  1  0.93786258  0.12125849  0.62356809  1
  O2-  O518  1  0.90967878  0.07722600  0.97784396  1
  O2-  O519  1  0.88243878  0.30306968  0.33106767  1
  O2-  O520  1  0.91252459  0.32692921  0.65259290  1
  O2-  O521  1  0.93552154  0.34987376  0.98604834  1
  O2-  O522  1  0.91562458  0.56587481  0.31293739  1
  O2-  O523  1  0.91213141  0.56758119  0.64866839  1
  O2-  O524  1  0.94003363  0.60539873  0.98643382  1
  O2-  O525  1  0.91595977  0.82749815  0.30660492  1
  O2-  O526  1  0.92514652  0.81391666  0.63840964  1
  O2-  O527  1  0.88371780  0.79706692  0.98290325  1
  O2-  O528  1  0.07440503  0.17518774  0.01906612  1
  O2-  O529  1  0.08578897  0.18397330  0.34395979  1
  O2-  O530  1  0.09455490  0.17820843  0.68565781  1
  O2-  O531  1  0.09325769  0.43747425  0.02915049  1
  O2-  O532  1  0.05125947  0.40957792  0.36625223  1
  O2-  O533  1  0.07249131  0.45877632  0.68971596  1
  O2-  O534  1  0.10134716  0.67795602  0.02521350  1
  O2-  O535  1  0.08148792  0.65558944  0.35927315  1
  O2-  O536  1  0.08179659  0.63201031  0.68564516  1
  O2-  O537  1  0.08068589  0.94751525  0.04106506  1
  O2-  O538  1  0.08401011  0.89666283  0.34609816  1
  O2-  O539  1  0.08901657  0.90163725  0.69432732  1
  O2-  O540  1  0.31354432  0.18185726  0.02935607  1
  O2-  O541  1  0.32677494  0.15288553  0.35482336  1
  O2-  O542  1  0.33227517  0.16017482  0.68934249  1
  O2-  O543  1  0.32430652  0.41886260  0.02029584  1
  O2-  O544  1  0.28429190  0.38180125  0.38424875  1
  O2-  O545  1  0.35888317  0.40092038  0.68787851  1
  O2-  O546  1  0.25494251  0.62192733  0.00575740  1
  O2-  O547  1  0.33044547  0.67784089  0.35695876  1
  O2-  O548  1  0.33126243  0.66470368  0.66921354  1
  O2-  O549  1  0.35716558  0.89499245  0.02140122  1
  O2-  O550  1  0.32019667  0.89355839  0.36786009  1
  O2-  O551  1  0.32802633  0.90400206  0.67951636  1
  O2-  O552  1  0.53902430  0.12986911  0.03787875  1
  O2-  O553  1  0.57788549  0.16151534  0.34170610  1
  O2-  O554  1  0.57562019  0.14520225  0.68588337  1
  O2-  O555  1  0.58447656  0.45632960  0.03093292  1
  O2-  O556  1  0.55918818  0.39748254  0.34771582  1
  O2-  O557  1  0.59616833  0.43278760  0.69465352  1
  O2-  O558  1  0.59498343  0.67819290  0.01877331  1
  O2-  O559  1  0.59320149  0.67279823  0.34137998  1
  O2-  O560  1  0.57841260  0.67248657  0.69942233  1
  O2-  O561  1  0.57582846  0.90365341  0.02960513  1
  O2-  O562  1  0.58973786  0.92400331  0.34769611  1
  O2-  O563  1  0.57491441  0.92385995  0.69232626  1
  O2-  O564  1  0.82409276  0.16068528  0.00549817  1
  O2-  O565  1  0.84630090  0.21196760  0.34796891  1
  O2-  O566  1  0.81714840  0.16293676  0.70712102  1
  O2-  O567  1  0.86834636  0.45113427  0.02698711  1
  O2-  O568  1  0.81534108  0.40566775  0.36134139  1
  O2-  O569  1  0.81783361  0.39864249  0.68220664  1
  O2-  O570  1  0.81934068  0.64214254  0.02307701  1
  O2-  O571  1  0.82359523  0.65346762  0.29705285  1
  O2-  O572  1  0.85268278  0.65950302  0.69943129  1
  O2-  O573  1  0.82751373  0.91328953  0.02173657  1
  O2-  O574  1  0.84108244  0.92133635  0.34570555  1
  O2-  O575  1  0.81765151  0.97688979  0.68314925  1
