# generated using pymatgen
data_H2O
_symmetry_space_group_name_H-M   'P 1'
_cell_length_a   17.97774305
_cell_length_b   17.98198943
_cell_length_c   21.99618773
_cell_angle_alpha   90.00413702
_cell_angle_beta   89.99354694
_cell_angle_gamma   120.00060214
_symmetry_Int_Tables_number   1
_chemical_formula_structural   H2O
_chemical_formula_sum   'H384 O192'
_cell_volume   6158.12241921
_cell_formula_units_Z   192
loop_
 _symmetry_equiv_pos_site_id
 _symmetry_equiv_pos_as_xyz
  1  'x, y, z'
loop_
 _atom_type_symbol
 _atom_type_oxidation_number
  H+  1.0
  O2-  -2.0
loop_
 _atom_site_type_symbol
 _atom_site_label
 _atom_site_symmetry_multiplicity
 _atom_site_fract_x
 _atom_site_fract_y
 _atom_site_fract_z
 _atom_site_occupancy
  H+  H0  1  0.65567385  0.53460439  0.83921718  1
  H+  H1  1  0.12734618  0.89726161  0.49006390  1
  H+  H2  1  0.13926162  0.78338519  0.32763033  1
  H+  H3  1  1.02998964  0.87561913  0.15978428  1
  H+  H4  1  0.35918535  0.64274085  0.16984148  1
  H+  H5  1  0.26302572  0.63954408  0.67833323  1
  H+  H6  1  0.59981334  0.72497193  0.16364677  1
  H+  H7  1  0.51236831  0.38284708  0.34232505  1
  H+  H8  1  0.34174565  0.40012412  0.49162723  1
  H+  H9  1  0.62670048  0.65114424  0.83310648  1
  H+  H10  1  0.63567522  0.52901389  0.18200982  1
  H+  H11  1  0.67974690  0.32271115  -0.06589798  1
  H+  H12  1  0.75038294  0.35236553  0.84818738  1
  H+  H13  1  0.07395110  0.91612976  0.57148231  1
  H+  H14  1  0.62632453  0.62719492  0.63410769  1
  H+  H15  1  0.55581674  0.38505395  0.22256183  1
  H+  H16  1  0.09624009  0.38883373  0.00725717  1
  H+  H17  1  0.89463748  0.53229538  -0.00958700  1
  H+  H18  1  0.61539448  0.89339233  0.82166351  1
  H+  H19  1  0.13372836  0.52956345  0.66487587  1
  H+  H20  1  0.79696448  0.63417769  0.67651019  1
  H+  H21  1  0.27739615  0.14323663  0.67014141  1
  H+  H22  1  0.23596176  0.87431238  0.50626167  1
  H+  H23  1  0.12655660  0.40234519  0.66834892  1
  H+  H24  1  -0.01469316  0.61687551  0.50489943  1
  H+  H25  1  -0.13014328  0.29422513  0.82565271  1
  H+  H26  1  0.89167873  0.81208924  0.58543560  1
  H+  H27  1  0.36636716  0.93969307  0.40410285  1
  H+  H28  1  0.14881107  0.57500129  0.92192690  1
  H+  H29  1  0.10333154  0.96100377  0.92121859  1
  H+  H30  1  0.62980623  0.46974375  0.48576827  1
  H+  H31  1  0.77701284  0.63591045  0.00367555  1
  H+  H32  1  0.34113115  0.17131425  0.39747678  1
  H+  H33  1  0.38582930  0.47891759  0.67227297  1
  H+  H34  1  0.39208634  0.11313571  0.67292947  1
  H+  H35  1  0.14303575  0.51894516  0.17468806  1
  H+  H36  1  0.74993699  0.17906992  0.81072322  1
  H+  H37  1  0.91551147  0.83486625  0.90534138  1
  H+  H38  1  0.16035245  0.10822022  0.92919523  1
  H+  H39  1  0.66087246  0.64251645  0.65802772  1
  H+  H40  1  0.36930988  0.64370143  0.01687541  1
  H+  H41  1  -0.01367089  0.36248292  0.65785089  1
  H+  H42  1  0.53476213  0.89030930  0.33779603  1
  H+  H43  1  0.14093346  0.03435251  0.64190466  1
  H+  H44  1  0.35552532  0.72154220  0.67370020  1
  H+  H45  1  0.84958065  0.22269743  -0.00461612  1
  H+  H46  1  0.52272819  0.63418737  0.34447026  1
  H+  H47  1  0.91678186  0.09526061  0.90113167  1
  H+  H48  1  0.46746235  0.85639652  0.83897034  1
  H+  H49  1  0.87913984  0.36384108  0.98873579  1
  H+  H50  1  0.86571582  0.84266335  0.50472172  1
  H+  H51  1  0.78598557  0.85774638  0.15427811  1
  H+  H52  1  0.36859942  0.36585967  0.00272785  1
  H+  H53  1  0.61091495  0.47720052  0.33921115  1
  H+  H54  1  0.73783013  0.36074791  0.33278028  1
  H+  H55  1  0.37530301  0.48972278  0.83072519  1
  H+  H56  1  0.87932361  0.47664239  0.15826792  1
  H+  H57  1  0.40472154  0.15029413  0.31852075  1
  H+  H58  1  0.62567568  0.89131678  0.33909387  1
  H+  H59  1  0.12399530  0.65538325  0.49554048  1
  H+  H60  1  0.35192350  0.63667618  0.49505257  1
  H+  H61  1  0.62888297  0.74077974  0.84202051  1
  H+  H62  1  0.61886031  0.00376031  0.65919624  1
  H+  H63  1  0.90422401  0.78233823  0.84465964  1
  H+  H64  1  0.77803371  0.38991464  0.00809476  1
  H+  H65  1  0.02300180  0.63652374  0.00163650  1
  H+  H66  1  0.41751377  0.87659759  0.33319946  1
  H+  H67  1  0.35645118  0.72345837  0.83005006  1
  H+  H68  1  0.64687665  0.35704536  0.32805265  1
  H+  H69  1  0.18020920  0.10323287  0.59165899  1
  H+  H70  1  0.88166726  0.84150908  0.31853628  1
  H+  H71  1  0.63350744  0.08965590  0.88771441  1
  H+  H72  1  0.38847201  0.77093485  0.99784487  1
  H+  H73  1  0.86164822  0.12923148  0.49147314  1
  H+  H74  1  0.77421164  0.63295129  0.16066389  1
  H+  H75  1  0.11423653  0.87136669  0.33407704  1
  H+  H76  1  0.35873706  0.73235827  0.17407713  1
  H+  H77  1  0.90042828  0.36141500  0.17307141  1
  H+  H78  1  0.19209800  0.38609113  0.16839914  1
  H+  H79  1  0.61579910  0.71226664  0.50224236  1
  H+  H80  1  0.48540277  0.11234065  0.16342371  1
  H+  H81  1  0.23558901  0.87520087  0.84549598  1
  H+  H82  1  0.17638263  0.83351327  0.91759267  1
  H+  H83  1  0.62272119  0.80610865  0.95317355  1
  H+  H84  1  0.63590359  0.61852323  0.17984664  1
  H+  H85  1  0.63940370  1.01641373  0.33662782  1
  H+  H86  1  0.64007547  0.59413412  0.51027186  1
  H+  H87  1  0.37011912  0.89126920  0.15046812  1
  H+  H88  1  0.03074184  0.63691896  0.15302008  1
  H+  H89  1  0.75385950  0.09349971  0.68112135  1
  H+  H90  1  0.62410972  0.22055274  0.15804685  1
  H+  H91  1  0.01558394  0.15142574  0.82424315  1
  H+  H92  1  0.15427714  0.13383003  0.32260158  1
  H+  H93  1  0.82888093  0.16198101  0.83425941  1
  H+  H94  1  0.14066934  0.00915494  0.17568871  1
  H+  H95  1  0.92323324  0.08439571  0.55710447  1
  H+  H96  1  0.71422758  0.10765151  0.98172168  1
  H+  H97  1  -0.01016516  0.12931824  0.64962647  1
  H+  H98  1  0.26099271  0.63137666  0.49091935  1
  H+  H99  1  0.85496393  0.93769397  0.27884711  1
  H+  H100  1  0.13115479  0.62321490  0.83655484  1
  H+  H101  1  0.21421387  0.36523883  0.49790712  1
  H+  H102  1  0.10795670  0.64679318  0.33934490  1
  H+  H103  1  0.31957029  0.15355823  0.05899466  1
  H+  H104  1  0.88893281  0.65226099  0.67923967  1
  H+  H105  1  0.41265494  0.82885918  0.90084799  1
  H+  H106  1  0.12110822  0.60406706  0.98686822  1
  H+  H107  1  0.86893729  0.40819684  0.77814526  1
  H+  H108  1  0.23130200  0.85940511  0.17138121  1
  H+  H109  1  0.36080954  0.24657316  0.82255296  1
  H+  H110  1  0.20331948  0.09936585  0.98915228  1
  H+  H111  1  0.47371912  0.60423259  0.99985490  1
  H+  H112  1  0.46020545  0.85406401  0.65779861  1
  H+  H113  1  0.77179802  0.87935018  0.48813622  1
  H+  H114  1  0.01204869  0.63257522  0.68159780  1
  H+  H115  1  0.36417530  0.87909988  0.00043149  1
  H+  H116  1  0.87746854  0.89519537  0.82764712  1
  H+  H117  1  0.10532020  0.24093517  0.81804880  1
  H+  H118  1  0.35540194  0.83496979  0.21602807  1
  H+  H119  1  0.60817798  0.97936613  1.00654252  1
  H+  H120  1  0.58071181  0.97315010  0.16371724  1
  H+  H121  1  0.07844088  0.90513768  0.40235106  1
  H+  H122  1  1.01335895  0.64002933  0.83680697  1
  H+  H123  1  0.88264664  0.64206160  0.83786867  1
  H+  H124  1  0.10960439  0.39164859  0.33988931  1
  H+  H125  1  0.86024130  0.70835527  0.33264478  1
  H+  H126  1  0.15661063  0.35121111  0.26607523  1
  H+  H127  1  0.61661429  0.63715980  0.00937141  1
  H+  H128  1  0.88871588  1.00947119  0.18324089  1
  H+  H129  1  0.52234860  0.79568767  0.45476876  1
  H+  H130  1  0.64113445  0.34533028  0.65932109  1
  H+  H131  1  0.35634241  0.97437095  0.68123402  1
  H+  H132  1  0.41535041  0.32093474  1.03216732  1
  H+  H133  1  0.90583943  0.53942484  0.84927715  1
  H+  H134  1  0.43386231  0.83696227  0.27109656  1
  H+  H135  1  0.53271718  0.14142177  0.33979313  1
  H+  H136  1  0.38157140  0.10320753  0.99141734  1
  H+  H137  1  0.28634438  0.40364305  0.81722296  1
  H+  H138  1  0.86354779  0.37680575  0.34056170  1
  H+  H139  1  0.11276107  0.22507043  0.48862664  1
  H+  H140  1  0.60758584  0.72025037  0.01956099  1
  H+  H141  1  0.10492394  0.86562508  0.00603794  1
  H+  H142  1  0.88214420  0.26550571  0.50693867  1
  H+  H143  1  0.87849919  0.26411140  0.32802925  1
  H+  H144  1  0.63631760  0.10996462  0.33713306  1
  H+  H145  1  0.48747924  0.88529477  0.17060671  1
  H+  H146  1  0.36894576  0.13075429  0.49583038  1
  H+  H147  1  0.12615666  0.98619449  0.48592918  1
  H+  H148  1  0.58700892  0.41097122  0.40369776  1
  H+  H149  1  0.77001912  0.87589776  0.31476491  1
  H+  H150  1  0.89936107  0.85297251  0.17070691  1
  H+  H151  1  0.39560905  0.37522202  0.84251424  1
  H+  H152  1  0.12890174  0.13282503  0.82999394  1
  H+  H153  1  0.96547623  0.10948224  1.00190246  1
  H+  H154  1  0.14417921  0.76826155  0.17154984  1
  H+  H155  1  0.47846294  0.10777582  0.67715512  1
  H+  H156  1  0.88079284  0.26621293  0.17365861  1
  H+  H157  1  0.60955133  0.12104176  0.68034517  1
  H+  H158  1  0.21993774  0.61799112  0.83766688  1
  H+  H159  1  0.35367150  0.87996236  0.83153823  1
  H+  H160  1  0.37006217  0.13788718  0.15103709  1
  H+  H161  1  0.34075270  0.48051481  0.16492116  1
  H+  H162  1  0.37181898  0.23014769  0.67399991  1
  H+  H163  1  0.36792850  0.77010067  0.50554052  1
  H+  H164  1  0.46696844  0.60711397  0.17611397  1
  H+  H165  1  0.76878458  0.87999251  1.00968255  1
  H+  H166  1  0.63715279  0.78688142  0.66628699  1
  H+  H167  1  0.00590915  0.38577313  -0.00674143  1
  H+  H168  1  0.89360258  0.11257020  0.65347377  1
  H+  H169  1  0.33665761  0.20342150  -0.00379383  1
  H+  H170  1  0.11965988  0.87823942  0.15815536  1
  H+  H171  1  0.38849798  0.36848429  0.33093957  1
  H+  H172  1  0.39429156  0.61920622  0.33016537  1
  H+  H173  1  0.21764280  0.86292679  0.66393814  1
  H+  H174  1  0.97369419  0.85920589  0.63537019  1
  H+  H175  1  0.46042987  0.85197947  0.50494123  1
  H+  H176  1  0.88990997  1.02048869  0.49952720  1
  H+  H177  1  0.10826503  0.50011608  -0.01523612  1
  H+  H178  1  0.38823054  1.03382853  0.83551196  1
  H+  H179  1  0.88677696  0.37943652  0.68658345  1
  H+  H180  1  0.89080903  0.60966318  0.16981182  1
  H+  H181  1  0.72557100  0.87902826  0.66322169  1
  H+  H182  1  0.22672876  0.61367263  0.17685505  1
  H+  H183  1  0.09649678  0.12596201  0.01231491  1
  H+  H184  1  0.36828429  0.97878967  0.15187363  1
  H+  H185  1  0.54228516  0.38465670  0.83673913  1
  H+  H186  1  0.62645410  0.10748562  -0.00980001  1
  H+  H187  1  0.53359718  0.65165367  0.68819356  1
  H+  H188  1  0.66990748  0.13015890  0.15072458  1
  H+  H189  1  0.47011698  0.61248804  0.51243107  1
  H+  H190  1  0.86672860  0.38271162  0.49634199  1
  H+  H191  1  0.97126674  0.85513691  0.99758873  1
  H+  H192  1  0.61877983  0.22283967  0.49680449  1
  H+  H193  1  0.77128926  0.12811776  0.49534911  1
  H+  H194  1  0.12238392  0.74354225  0.49535415  1
  H+  H195  1  0.59106351  0.85910923  0.17595221  1
  H+  H196  1  0.63187433  0.76631944  0.32755531  1
  H+  H197  1  0.68613296  0.88261525  0.17552404  1
  H+  H198  1  0.15776113  0.30070370  0.65727832  1
  H+  H199  1  0.85742582  0.13298693  0.34178593  1
  H+  H200  1  0.10962336  0.11737027  0.17201522  1
  H+  H201  1  0.35301701  0.49249339  0.48731036  1
  H+  H202  1  0.86908268  0.62784105  0.49034658  1
  H+  H203  1  0.87281859  0.46939940  0.33949462  1
  H+  H204  1  0.10990289  0.46676113  0.49278702  1
  H+  H205  1  0.70579440  0.54731062  0.59695299  1
  H+  H206  1  -0.01868265  0.09432576  0.18971724  1
  H+  H207  1  0.63249508  0.37902426  0.48474610  1
  H+  H208  1  0.35004769  0.88259914  0.67663405  1
  H+  H209  1  0.73504810  0.11407124  0.33862597  1
  H+  H210  1  0.88105395  0.76810087  0.99692914  1
  H+  H211  1  0.64311592  0.53476127  0.97849852  1
  H+  H212  1  0.14623668  0.12091902  0.49667328  1
  H+  H213  1  0.38854365  0.01857979  0.98955986  1
  H+  H214  1  0.42994729  0.36376240  0.51802323  1
  H+  H215  1  0.64103997  0.35782737  0.98378464  1
  H+  H216  1  0.89852048  0.52249813  0.50353537  1
  H+  H217  1  0.86737684  0.63634357  0.00469729  1
  H+  H218  1  0.10424691  0.48837356  0.82057108  1
  H+  H219  1  0.03233379  0.15213757  0.33497226  1
  H+  H220  1  0.85126932  0.13469796  0.00193289  1
  H+  H221  1  0.10567860  0.88505219  0.62855371  1
  H+  H222  1  0.34730492  0.95249102  0.33622414  1
  H+  H223  1  0.31443387  0.38149367  0.16769556  1
  H+  H224  1  0.74822673  0.88189922  0.83949044  1
  H+  H225  1  0.07545013  0.54157726  0.53319277  1
  H+  H226  1  0.42545286  0.37020306  0.17508589  1
  H+  H227  1  0.33769338  0.58377714  0.65571835  1
  H+  H228  1  0.63805552  0.84554592  0.50545173  1
  H+  H229  1  0.25899310  0.15803451  0.81981757  1
  H+  H230  1  0.91158965  0.32212100  0.26735083  1
  H+  H231  1  0.52020134  0.13380928  1.00693318  1
  H+  H232  1  0.03640320  0.90500537  0.86956184  1
  H+  H233  1  0.35352309  0.21817619  0.15665826  1
  H+  H234  1  0.62924931  0.38088092  0.83765304  1
  H+  H235  1  0.85631804  0.61774036  0.33214962  1
  H+  H236  1  0.42184873  0.37209479  0.66616659  1
  H+  H237  1  0.48192264  0.11342706  0.51818449  1
  H+  H238  1  0.12296228  0.15313750  0.66785396  1
  H+  H239  1  0.47510254  0.86324372  -0.00691724  1
  H+  H240  1  0.88136008  0.46624591  0.69053240  1
  H+  H241  1  0.11712732  0.63216151  0.15408416  1
  H+  H242  1  0.02680131  0.13386067  0.48496145  1
  H+  H243  1  0.23572456  0.85333972  0.99217130  1
  H+  H244  1  0.10756714  0.73141038  0.82907119  1
  H+  H245  1  0.13303120  0.38315952  0.82086801  1
  H+  H246  1  0.60579071  0.41105755  0.74254741  1
  H+  H247  1  0.36229356  0.89356593  0.49586778  1
  H+  H248  1  0.74534200  0.62385561  0.83850480  1
  H+  H249  1  0.14257131  0.75949756  0.98890189  1
  H+  H250  1  0.38977263  0.61969990  0.84369507  1
  H+  H251  1  0.38157753  0.73323820  0.34059075  1
  H+  H252  1  0.90311541  0.33857227  0.92514361  1
  H+  H253  1  0.63369940  0.25419662  0.65534661  1
  H+  H254  1  0.12767226  0.77363443  0.66186209  1
  H+  H255  1  0.86445144  0.75019268  0.50567184  1
  H+  H256  1  0.61102612  0.63297547  0.34601684  1
  H+  H257  1  0.63141563  1.01804505  0.50846651  1
  H+  H258  1  0.88735460  0.76805652  0.65892736  1
  H+  H259  1  0.14962848  0.88807157  0.86545952  1
  H+  H260  1  0.09597305  0.21211606  0.02980723  1
  H+  H261  1  0.87762324  0.02211624  0.99488446  1
  H+  H262  1  0.89442792  0.03729276  0.33857096  1
  H+  H263  1  0.13836300  0.28645009  0.32222151  1
  H+  H264  1  0.86452664  0.98888129  0.67436649  1
  H+  H265  1  0.48268328  0.62609994  0.84741798  1
  H+  H266  1  0.66119553  0.35925228  0.18312442  1
  H+  H267  1  0.01392583  0.37777855  0.34089621  1
  H+  H268  1  0.09470559  0.51026913  0.31943590  1
  H+  H269  1  0.33615881  0.66870636  0.39539496  1
  H+  H270  1  0.89180161  1.03763531  0.84242712  1
  H+  H271  1  0.13943276  0.04924929  0.84691317  1
  H+  H272  1  0.98701882  0.61714792  0.32760022  1
  H+  H273  1  0.82974194  0.54152100  0.63871426  1
  H+  H274  1  0.60018114  0.87547094  0.66346042  1
  H+  H275  1  0.32069971  0.90823489  0.77198766  1
  H+  H276  1  0.27879561  0.14907313  0.33711151  1
  H+  H277  1  0.35147046  0.47590952  1.00884380  1
  H+  H278  1  0.58034720  0.66126643  0.10740797  1
  H+  H279  1  0.27297047  0.39083452  0.33072858  1
  H+  H280  1  1.01138171  0.86473593  0.34269279  1
  H+  H281  1  0.52273889  0.39567048  -0.01992380  1
  H+  H282  1  0.54443760  0.38141156  0.68374834  1
  H+  H283  1  0.68090178  0.49312094  0.65909543  1
  H+  H284  1  0.21202405  0.36056507  1.00830765  1
  H+  H285  1  0.36775973  0.98519980  0.50092078  1
  H+  H286  1  0.37969214  0.22282644  0.49419463  1
  H+  H287  1  0.73340771  0.35871307  0.50704890  1
  H+  H288  1  0.03314648  0.36867575  0.17454397  1
  H+  H289  1  0.58045324  0.65534931  0.44286022  1
  H+  H290  1  0.84363025  0.41981034  0.06460730  1
  H+  H291  1  0.12763511  0.61704488  0.66783433  1
  H+  H292  1  0.06597332  0.93006750  0.74446681  1
  H+  H293  1  0.23662945  0.12125886  0.49898910  1
  H+  H294  1  0.72133995  0.59717700  0.32993049  1
  H+  H295  1  0.07589032  0.41323336  0.43010248  1
  H+  H296  1  0.07084286  0.14325604  0.11675559  1
  H+  H297  1  0.57578024  0.69579759  0.75049481  1
  H+  H298  1  0.67689646  0.83055833  0.56679601  1
  H+  H299  1  0.83104694  0.65778889  0.09913275  1
  H+  H300  1  0.22778613  0.09890633  0.17116587  1
  H+  H301  1  0.68016873  0.60357179  0.92640655  1
  H+  H302  1  0.42249687  0.09260744  0.89154133  1
  H+  H303  1  0.56684954  0.89770023  0.72467553  1
  H+  H304  1  0.66095801  0.57601549  0.27139199  1
  H+  H305  1  0.16925692  0.34567296  0.59393966  1
  H+  H306  1  0.58301041  0.42400854  0.03622857  1
  H+  H307  1  0.83920295  0.41384748  0.43647740  1
  H+  H308  1  0.15239296  0.58189156  0.57849375  1
  H+  H309  1  0.08653973  0.18011413  0.72526512  1
  H+  H310  1  0.09260278  0.17946532  0.39276003  1
  H+  H311  1  0.38998914  0.52679803  0.32767039  1
  H+  H312  1  0.55234534  0.37521035  0.15218550  1
  H+  H313  1  0.17637151  0.36899112  0.87733719  1
  H+  H314  1  0.64414386  0.82183852  0.26634688  1
  H+  H315  1  0.08717631  0.42583318  0.72754213  1
  H+  H316  1  0.38155031  0.43654750  0.73648450  1
  H+  H317  1  0.62501458  0.22204863  0.34581928  1
  H+  H318  1  0.81659432  0.14105783  0.73663253  1
  H+  H319  1  0.91633264  0.08285639  0.27405392  1
  H+  H320  1  0.79399793  0.38428761  0.16085208  1
  H+  H321  1  0.68844406  0.32130738  0.23673393  1
  H+  H322  1  0.66938294  0.25964401  0.84583000  1
  H+  H323  1  0.34202001  0.67854920  0.07469464  1
  H+  H324  1  0.59773596  0.97184415  0.81525359  1
  H+  H325  1  0.38848989  0.27735344  0.33311751  1
  H+  H326  1  0.66506514  0.32345531  0.56356251  1
  H+  H327  1  0.38959508  0.32675244  0.23868390  1
  H+  H328  1  0.63361316  0.10773368  0.50830168  1
  H+  H329  1  0.16306227  0.84003978  0.26580359  1
  H+  H330  1  0.01362462  0.40064142  0.81750582  1
  H+  H331  1  0.92979220  0.58229310  0.22639910  1
  H+  H332  1  0.31548531  0.41970968  0.07017807  1
  H+  H333  1  0.09518141  0.68565056  0.40246835  1
  H+  H334  1  0.83575283  0.65259478  0.42970314  1
  H+  H335  1  0.41657431  0.58337594  0.93958820  1
  H+  H336  1  0.32702186  0.42021050  0.39219899  1
  H+  H337  1  0.42252443  0.08510949  0.57826053  1
  H+  H338  1  0.60425097  0.15954648  0.74278216  1
  H+  H339  1  0.89258477  0.76083114  0.17075243  1
  H+  H340  1  0.39763375  0.82725140  0.60088685  1
  H+  H341  1  0.91108504  0.56994587  0.59816447  1
  H+  H342  1  0.91722237  0.32733524  0.60509271  1
  H+  H343  1  0.58276385  0.15910724  0.43992551  1
  H+  H344  1  0.08134146  0.90335213  0.06293213  1
  H+  H345  1  0.32720101  0.18213451  0.75659706  1
  H+  H346  1  0.85468373  0.67504021  0.77748556  1
  H+  H347  1  0.07199055  0.66836869  0.74062356  1
  H+  H348  1  0.73115823  0.59913500  0.50016911  1
  H+  H349  1  0.99290237  0.54812625  0.29356172  1
  H+  H350  1  0.28430144  0.48657747  0.63211728  1
  H+  H351  1  0.42453105  0.09147559  0.22087605  1
  H+  H352  1  0.79464365  0.16327141  0.08792686  1
  H+  H353  1  0.48531196  0.20257535  0.27762303  1
  H+  H354  1  0.84314337  0.93181117  0.77192492  1
  H+  H355  1  0.85879095  0.88061224  0.00508242  1
  H+  H356  1  0.39298192  0.57418740  0.56370617  1
  H+  H357  1  0.58814264  0.16407904  0.09676725  1
  H+  H358  1  0.84052080  0.90774240  0.09669272  1
  H+  H359  1  0.12144649  0.35346080  0.50092299  1
  H+  H360  1  0.07208810  0.89241247  0.75106493  1
  H+  H361  1  0.57383479  0.88730346  0.42678720  1
  H+  H362  1  0.91967799  0.81313735  0.26422302  1
  H+  H363  1  0.62395499  0.86305068  1.00809490  1
  H+  H364  1  0.18091166  0.09088354  0.26945837  1
  H+  H365  1  0.17377520  0.83864772  0.56550302  1
  H+  H366  1  0.13914810  0.30243594  0.96088650  1
  H+  H367  1  0.41152498  0.33125661  0.90002443  1
  H+  H368  1  0.83169781  0.90671922  0.42886183  1
  H+  H369  1  0.12596932  0.56918624  0.25870601  1
  H+  H370  1  0.33320359  0.91191271  0.05843426  1
  H+  H371  1  0.08723252  0.66288771  0.06034699  1
  H+  H372  1  0.80204408  1.00399170  0.71097914  1
  H+  H373  1  0.97126788  0.35386737  0.50535788  1
  H+  H374  1  0.41293406  0.58242564  0.23750305  1
  H+  H375  1  0.44698800  0.33047183  0.60945014  1
  H+  H376  1  0.70050372  0.88785451  0.89682010  1
  H+  H377  1  0.82674747  0.16023313  0.40353322  1
  H+  H378  1  0.65978543  0.07160847  0.60467240  1
  H+  H379  1  0.50957223  0.35383307  0.50715670  1
  H+  H380  1  0.56954313  0.92313444  0.06864998  1
  H+  H381  1  0.92761398  0.59514598  0.92968531  1
  H+  H382  1  0.61216002  0.22194855  0.00605179  1
  H+  H383  1  0.32843792  0.66383231  0.77062819  1
  O2-  O384  1  0.07428298  0.14388472  0.16167215  1
  O2-  O385  1  0.08777261  0.16612016  0.47078885  1
  O2-  O386  1  0.07526257  0.17961508  0.80583671  1
  O2-  O387  1  0.09516044  0.40553839  0.16333851  1
  O2-  O388  1  0.07581875  0.40827223  0.47614584  1
  O2-  O389  1  0.07509978  0.42796287  0.80459950  1
  O2-  O390  1  0.09136638  0.66678148  0.13813749  1
  O2-  O391  1  0.09192121  0.68243413  0.47930550  1
  O2-  O392  1  0.07790905  0.67147448  0.81521384  1
  O2-  O393  1  0.08940376  0.90857873  0.14313619  1
  O2-  O394  1  0.09234398  0.92335725  0.47675113  1
  O2-  O395  1  0.09972913  0.94341541  0.87829680  1
  O2-  O396  1  0.33372794  0.16219218  0.13662947  1
  O2-  O397  1  0.34425757  0.16444223  0.47689605  1
  O2-  O398  1  0.32130901  0.18809523  0.80362566  1
  O2-  O399  1  0.30076481  0.42185751  0.14713583  1
  O2-  O400  1  0.31887431  0.43179753  0.47044051  1
  O2-  O401  1  0.34945608  0.42953768  0.81439937  1
  O2-  O402  1  0.32878278  0.67256654  0.15505255  1
  O2-  O403  1  0.32140263  0.66643372  0.47914593  1
  O2-  O404  1  0.32679794  0.66206126  0.81611247  1
  O2-  O405  1  0.33621510  0.91803096  0.13685121  1
  O2-  O406  1  0.33625581  0.92774278  0.48029325  1
  O2-  O407  1  0.32003758  0.90761782  0.81765478  1
  O2-  O408  1  0.59060200  0.16071012  0.14265188  1
  O2-  O409  1  0.58504796  0.16037922  0.48513154  1
  O2-  O410  1  0.66315958  0.16358153  0.81428644  1
  O2-  O411  1  0.58954714  0.40929813  0.18557845  1
  O2-  O412  1  0.60122091  0.40955431  0.46738679  1
  O2-  O413  1  0.60299993  0.41504976  0.82360943  1
  O2-  O414  1  0.57928030  0.66417540  0.15303724  1
  O2-  O415  1  0.57936064  0.65165248  0.48819147  1
  O2-  O416  1  0.59367210  0.68158066  0.82636805  1
  O2-  O417  1  0.54731436  0.91397943  0.14927922  1
  O2-  O418  1  0.55478157  0.85591646  0.46708788  1
  O2-  O419  1  0.57521546  0.91060034  0.80449519  1
  O2-  O420  1  0.79040315  0.17779500  0.13152502  1
  O2-  O421  1  0.83030300  0.15963650  0.47782124  1
  O2-  O422  1  0.81647037  0.19672529  0.80625703  1
  O2-  O423  1  0.85300684  0.41594133  0.14361219  1
  O2-  O424  1  0.83954852  0.41686013  0.48176064  1
  O2-  O425  1  0.86407075  0.40350980  0.82656574  1
  O2-  O426  1  0.83377846  0.65865419  0.14499487  1
  O2-  O427  1  0.83387218  0.65320915  0.47484926  1
  O2-  O428  1  0.85142887  0.67446076  0.82235688  1
  O2-  O429  1  0.84351459  0.90195679  0.14245520  1
  O2-  O430  1  0.83327752  0.90911569  0.47323343  1
  O2-  O431  1  0.84599421  0.92618191  0.81691227  1
  O2-  O432  1  0.17150939  0.06914378  0.19205100  1
  O2-  O433  1  0.17630327  0.09155815  0.51437013  1
  O2-  O434  1  0.16897104  0.11319012  0.84617367  1
  O2-  O435  1  0.13495772  0.35826697  0.18905988  1
  O2-  O436  1  0.15660641  0.32788564  0.51593836  1
  O2-  O437  1  0.16872855  0.35658819  0.83397522  1
  O2-  O438  1  0.16327465  0.57938995  0.18661552  1
  O2-  O439  1  0.13820867  0.57107643  0.53297392  1
  O2-  O440  1  0.15821171  0.58836330  0.85089980  1
  O2-  O441  1  0.17207936  0.82810226  0.18849442  1
  O2-  O442  1  0.17413494  0.84184826  0.52007250  1
  O2-  O443  1  0.17432468  0.84801289  0.86659350  1
  O2-  O444  1  0.42320427  0.08466724  0.17610868  1
  O2-  O445  1  0.42122753  0.08484519  0.53266878  1
  O2-  O446  1  0.41108803  0.09367788  0.84794104  1
  O2-  O447  1  0.37595759  0.32196056  0.19426766  1
  O2-  O448  1  0.45164052  0.32525405  0.52742799  1
  O2-  O449  1  0.42017166  0.33810049  0.85587523  1
  O2-  O450  1  0.40726865  0.57915185  0.19197742  1
  O2-  O451  1  0.40682139  0.58624025  0.51930635  1
  O2-  O452  1  0.42135859  0.59117563  0.86005482  1
  O2-  O453  1  0.40374753  0.82886436  0.20263438  1
  O2-  O454  1  0.40168976  0.83057666  0.52081649  1
  O2-  O455  1  0.40789649  0.82789518  0.85519969  1
  O2-  O456  1  0.70890633  0.10567103  0.15443089  1
  O2-  O457  1  0.66492529  0.07718108  0.52259599  1
  O2-  O458  1  0.61376401  0.07857025  0.84470925  1
  O2-  O459  1  0.68838803  0.32455132  0.19150193  1
  O2-  O460  1  0.67057360  0.32840769  0.51685273  1
  O2-  O461  1  0.68854781  0.31979207  0.85960307  1
  O2-  O462  1  0.66748360  0.58926001  0.19561505  1
  O2-  O463  1  0.67193568  0.56292712  0.51748931  1
  O2-  O464  1  0.68278459  0.59605661  0.85069106  1
  O2-  O465  1  0.63023411  0.83603645  0.18861765  1
  O2-  O466  1  0.67577594  0.82422263  0.52105792  1
  O2-  O467  1  0.68821102  0.85908684  0.85742340  1
  O2-  O468  1  0.92064494  0.06159609  0.20786420  1
  O2-  O469  1  0.91990020  0.08198706  0.51131230  1
  O2-  O470  1  0.91726268  0.09820353  0.85585304  1
  O2-  O471  1  0.92068045  0.32331413  0.19113772  1
  O2-  O472  1  0.91149459  0.32617817  0.52143107  1
  O2-  O473  1  0.90820789  0.35542052  0.84331393  1
  O2-  O474  1  0.92558308  0.58246767  0.18131362  1
  O2-  O475  1  0.92485475  0.58272225  0.51975874  1
  O2-  O476  1  0.93229956  0.59948092  0.86217026  1
  O2-  O477  1  0.92533040  0.82020488  0.18863474  1
  O2-  O478  1  0.88539926  0.80680969  0.52640684  1
  O2-  O479  1  0.92836604  0.84246252  0.86057226  1
  O2-  O480  1  0.18813562  0.10533573  0.31359748  1
  O2-  O481  1  0.17633954  0.09735195  0.63724671  1
  O2-  O482  1  0.14710378  0.08440665  0.97086175  1
  O2-  O483  1  0.16803518  0.34895510  0.31021199  1
  O2-  O484  1  0.18085602  0.35829615  0.63824082  1
  O2-  O485  1  0.14795773  0.32638552  1.00170289  1
  O2-  O486  1  0.09428194  0.55904065  0.29813278  1
  O2-  O487  1  0.16127158  0.59153695  0.65025842  1
  O2-  O488  1  0.14458763  0.56784601  0.96824034  1
  O2-  O489  1  0.16097936  0.84345413  0.31126567  1
  O2-  O490  1  0.16015893  0.83192723  0.64332300  1
  O2-  O491  1  0.17438147  0.82174214  0.97462436  1
  O2-  O492  1  0.45131583  0.14563255  0.29554222  1
  O2-  O493  1  0.41966305  0.08050651  0.65827203  1
  O2-  O494  1  0.42011671  0.08096566  0.97973065  1
  O2-  O495  1  0.42189015  0.33961227  0.31708141  1
  O2-  O496  1  0.44059737  0.32922301  0.65416823  1
  O2-  O497  1  0.40125857  0.33437965  0.99223792  1
  O2-  O498  1  0.42493109  0.58788562  0.31462576  1
  O2-  O499  1  0.34206381  0.53762018  0.63266326  1
  O2-  O500  1  0.41348121  0.57658253  0.98479854  1
  O2-  O501  1  0.44307418  0.84179438  0.31768416  1
  O2-  O502  1  0.39794926  0.82569136  0.64614994  1
  O2-  O503  1  0.41500033  0.83031103  0.97765709  1
  O2-  O504  1  0.66977408  0.08042908  0.32355400  1
  O2-  O505  1  0.65597751  0.06642444  0.64953307  1
  O2-  O506  1  0.65202465  0.07535459  0.97020128  1
  O2-  O507  1  0.67665161  0.32587981  0.31661444  1
  O2-  O508  1  0.65707995  0.30995462  0.63388059  1
  O2-  O509  1  0.67314020  0.32705283  0.97948214  1
  O2-  O510  1  0.65947592  0.56744592  0.31690997  1
  O2-  O511  1  0.72941261  0.54095477  0.63587581  1
  O2-  O512  1  0.67467658  0.59770485  0.97211056  1
  O2-  O513  1  0.66142110  0.82585880  0.30987393  1
  O2-  O514  1  0.67055268  0.84055404  0.64149027  1
  O2-  O515  1  0.64925488  0.82665396  0.99294351  1
  O2-  O516  1  0.91762877  0.09438602  0.32027638  1
  O2-  O517  1  0.93050985  0.09344800  0.63291941  1
  O2-  O518  1  0.90754481  0.08313736  0.98189103  1
  O2-  O519  1  0.91003826  0.32448988  0.31314588  1
  O2-  O520  1  0.92372950  0.32819378  0.64972814  1
  O2-  O521  1  0.90530478  0.33110622  0.96976341  1
  O2-  O522  1  0.94848613  0.56525859  0.30283500  1
  O2-  O523  1  0.89259233  0.56208422  0.64172167  1
  O2-  O524  1  0.92553137  0.59363734  0.97783829  1
  O2-  O525  1  0.91334146  0.81015724  0.31008567  1
  O2-  O526  1  0.90807375  0.82429282  0.63554344  1
  O2-  O527  1  0.91004406  0.82927982  0.98277940  1
  O2-  O528  1  0.06384212  0.14920984  0.03499805  1
  O2-  O529  1  0.09368223  0.18458697  0.34737022  1
  O2-  O530  1  0.09374546  0.18532934  0.68024910  1
  O2-  O531  1  0.06624329  0.42247860  0.00923910  1
  O2-  O532  1  0.07377594  0.41568822  0.35629619  1
  O2-  O533  1  0.09324568  0.43054077  0.68235744  1
  O2-  O534  1  0.08595881  0.66260113  0.01454926  1
  O2-  O535  1  0.09122834  0.68763499  0.35710048  1
  O2-  O536  1  0.07225690  0.66719474  0.69427201  1
  O2-  O537  1  0.07316545  0.89464960  0.01811462  1
  O2-  O538  1  0.07306785  0.89690832  0.35638599  1
  O2-  O539  1  0.07335116  0.91493974  0.61634608  1
  O2-  O540  1  0.31330528  0.14585427  0.01379813  1
  O2-  O541  1  0.34249465  0.18026450  0.35254917  1
  O2-  O542  1  0.33461931  0.17038243  0.69110794  1
  O2-  O543  1  0.31818809  0.41498044  0.02476730  1
  O2-  O544  1  0.33312543  0.41678912  0.34745702  1
  O2-  O545  1  0.40532687  0.44431919  0.69484584  1
  O2-  O546  1  0.34590418  0.68059309  0.02948980  1
  O2-  O547  1  0.34877233  0.67130612  0.35158491  1
  O2-  O548  1  0.32426053  0.66170537  0.69055674  1
  O2-  O549  1  0.33109228  0.90880937  0.01303103  1
  O2-  O550  1  0.38909976  0.94772716  0.36170687  1
  O2-  O551  1  0.32060170  0.91265308  0.69383978  1
  O2-  O552  1  0.58099326  0.16227567  0.02262334  1
  O2-  O553  1  0.58978904  0.16070402  0.35908510  1
  O2-  O554  1  0.58471319  0.15411609  0.69972383  1
  O2-  O555  1  0.58393881  0.42221496  -0.00804501  1
  O2-  O556  1  0.57758424  0.41330073  0.35533995  1
  O2-  O557  1  0.60547452  0.40853213  0.69733514  1
  O2-  O558  1  0.58110575  0.65836090  0.03024120  1
  O2-  O559  1  0.58347742  0.66513301  0.36123502  1
  O2-  O560  1  0.56116998  0.70681610  0.70898186  1
  O2-  O561  1  0.57921109  0.91954301  0.02448676  1
  O2-  O562  1  0.59678929  0.92234739  0.35587586  1
  O2-  O563  1  0.56419772  0.89934839  0.67941904  1
  O2-  O564  1  0.81692831  0.16302991  0.01175956  1
  O2-  O565  1  0.82263300  0.15947977  0.35746481  1
  O2-  O566  1  0.80730039  0.10228917  0.70168505  1
  O2-  O567  1  0.84009265  0.42232926  0.01935647  1
  O2-  O568  1  0.83631807  0.41055098  0.35643353  1
  O2-  O569  1  0.86740159  0.41339475  0.71259695  1
  O2-  O570  1  0.83518934  0.66384729  0.02268953  1
  O2-  O571  1  0.82780692  0.64742985  0.34886733  1
  O2-  O572  1  0.85447328  0.67853290  0.69271562  1
  O2-  O573  1  0.82964213  0.91168018  0.02236653  1
  O2-  O574  1  0.83467102  0.90752004  0.31778663  1
  O2-  O575  1  0.81537618  0.95687863  0.70245989  1
