# generated using pymatgen
data_H2O
_symmetry_space_group_name_H-M   'P 1'
_cell_length_a   17.99034546
_cell_length_b   17.98759094
_cell_length_c   21.99983234
_cell_angle_alpha   89.99509348
_cell_angle_beta   90.00469148
_cell_angle_gamma   119.98955746
_symmetry_Int_Tables_number   1
_chemical_formula_structural   H2O
_chemical_formula_sum   'H384 O192'
_cell_volume   6166.06637965
_cell_formula_units_Z   192
loop_
 _symmetry_equiv_pos_site_id
 _symmetry_equiv_pos_as_xyz
  1  'x, y, z'
loop_
 _atom_type_symbol
 _atom_type_oxidation_number
  H+  1.0
  O2-  -2.0
loop_
 _atom_site_type_symbol
 _atom_site_label
 _atom_site_symmetry_multiplicity
 _atom_site_fract_x
 _atom_site_fract_y
 _atom_site_fract_z
 _atom_site_occupancy
  H+  H0  1  0.38476330  0.52104392  0.32663990  1
  H+  H1  1  0.40133676  0.77964925  0.16404243  1
  H+  H2  1  0.13306205  0.77331261  0.51715136  1
  H+  H3  1  0.89051011  1.03088575  0.32587763  1
  H+  H4  1  0.77928726  0.89809525  0.33653973  1
  H+  H5  1  0.71814539  0.10277517  0.16895786  1
  H+  H6  1  0.89101849  1.02976804  0.66387265  1
  H+  H7  1  0.35174010  0.21619256  0.67215788  1
  H+  H8  1  0.39573830  0.26392027  0.17523296  1
  H+  H9  1  0.63578888  0.60952973  0.83771723  1
  H+  H10  1  0.15498561  0.56611642  0.56427106  1
  H+  H11  1  0.10302007  0.63581525  0.49248466  1
  H+  H12  1  0.62185203  0.36446549  0.99427468  1
  H+  H13  1  0.03270437  0.14262899  0.67325805  1
  H+  H14  1  0.89423621  0.61453234  0.84278737  1
  H+  H15  1  0.28509795  0.39434455  0.82696528  1
  H+  H16  1  0.39697597  0.61308704  0.50907652  1
  H+  H17  1  0.13228653  0.01208365  0.11585370  1
  H+  H18  1  0.27932956  0.62459758  0.34405499  1
  H+  H19  1  0.95895453  0.24032353  0.38385725  1
  H+  H20  1  0.24969254  0.14823649  0.17576239  1
  H+  H21  1  0.60639900  0.51166390  0.32325995  1
  H+  H22  1  0.23200123  0.11465852  0.33146506  1
  H+  H23  1  0.37220753  0.73267345  0.67769399  1
  H+  H24  1  0.98444509  0.11372766  0.32499170  1
  H+  H25  1  0.66303371  0.33411426  0.23226102  1
  H+  H26  1  0.36868940  0.64270615  0.67241446  1
  H+  H27  1  0.40392626  0.07916296  0.93836638  1
  H+  H28  1  0.52669783  0.65453682  0.34358359  1
  H+  H29  1  0.36583660  0.23030141  0.49579967  1
  H+  H30  1  0.38563930  0.11343420  0.33387107  1
  H+  H31  1  0.77766265  0.64296754  0.51373061  1
  H+  H32  1  0.62037136  0.73141449  0.82366323  1
  H+  H33  1  0.38346632  0.85995641  0.50686110  1
  H+  H34  1  0.77876363  0.63307094  0.15295571  1
  H+  H35  1  0.10085579  0.46628467  1.00282582  1
  H+  H36  1  0.83742074  0.57991873  0.68513643  1
  H+  H37  1  0.04491732  0.40692291  0.37972807  1
  H+  H38  1  0.76824970  0.66242737  0.36356218  1
  H+  H39  1  0.14306931  0.36372225  0.34436966  1
  H+  H40  1  0.53138021  0.63935080  0.49714355  1
  H+  H41  1  0.57709440  0.17847100  0.51341185  1
  H+  H42  1  0.38375190  0.99993096  0.84841653  1
  H+  H43  1  0.39585042  0.87514607  0.66864360  1
  H+  H44  1  0.64145227  0.78470702  0.17540112  1
  H+  H45  1  0.61327615  0.97213444  0.82582838  1
  H+  H46  1  0.26357628  0.13346456  0.82438747  1
  H+  H47  1  0.34066399  0.66251697  0.09727760  1
  H+  H48  1  0.47399828  0.11281604  0.66330626  1
  H+  H49  1  0.60419894  0.22037794  0.16892428  1
  H+  H50  1  0.29841846  0.66215226  0.16430000  1
  H+  H51  1  0.11835618  0.22562522  0.34568055  1
  H+  H52  1  0.39272549  0.36340890  0.83984328  1
  H+  H53  1  0.11423220  0.89090402  0.49889423  1
  H+  H54  1  0.66024024  0.13477644  0.50740164  1
  H+  H55  1  0.96929595  0.84767102  0.17571613  1
  H+  H56  1  0.72240836  0.35764797  0.17171003  1
  H+  H57  1  0.38775654  0.52304364  0.65950286  1
  H+  H58  1  0.64088846  0.87035872  0.65907644  1
  H+  H59  1  0.37365144  0.35184436  0.65880338  1
  H+  H60  1  0.77390285  0.63273611  0.83563234  1
  H+  H61  1  0.38921292  0.61596723  0.82952144  1
  H+  H62  1  0.11504831  0.87568474  0.67842667  1
  H+  H63  1  0.39700577  0.63504935  0.17353665  1
  H+  H64  1  0.97401149  0.37133679  0.83425007  1
  H+  H65  1  0.54212508  0.84970499  0.43083628  1
  H+  H66  1  0.87154664  0.89387262  0.48861961  1
  H+  H67  1  0.22382624  0.59854133  0.83551210  1
  H+  H68  1  0.14538125  0.78348380  0.32861367  1
  H+  H69  1  0.67023396  0.27646428  0.49333939  1
  H+  H70  1  0.03466759  0.63865342  0.15052616  1
  H+  H71  1  0.52135708  0.38109264  0.82510679  1
  H+  H72  1  0.75712015  0.38334353  1.00103865  1
  H+  H73  1  0.71984016  0.35952695  0.84555027  1
  H+  H74  1  0.54200330  0.66389954  0.16869509  1
  H+  H75  1  0.33333861  0.16796071  0.09792676  1
  H+  H76  1  0.16922319  0.65183985  0.18180523  1
  H+  H77  1  0.14732424  0.54362772  0.09077143  1
  H+  H78  1  0.64056688  0.79032299  0.32520065  1
  H+  H79  1  0.91936958  0.08362373  0.60258181  1
  H+  H80  1  0.91273747  0.83319867  0.26690325  1
  H+  H81  1  0.07358618  0.16800970  0.06200343  1
  H+  H82  1  0.73488638  0.36100642  0.65346969  1
  H+  H83  1  1.02828417  0.64146801  1.01402635  1
  H+  H84  1  0.00781823  0.71200105  0.36618711  1
  H+  H85  1  0.60741248  0.38966801  0.34048913  1
  H+  H86  1  0.48290431  0.87124377  0.98506583  1
  H+  H87  1  0.35521483  0.13038570  0.16102880  1
  H+  H88  1  0.35343897  0.22208995  0.82277445  1
  H+  H89  1  0.63052171  0.35742984  0.84280572  1
  H+  H90  1  0.85927885  0.71946486  -0.00924526  1
  H+  H91  1  0.36813996  0.39122958  0.33748765  1
  H+  H92  1  0.12845285  0.36018826  -0.01335113  1
  H+  H93  1  0.14961117  0.76118063  0.66351137  1
  H+  H94  1  0.90216003  0.16174972  0.34201664  1
  H+  H95  1  0.09917813  0.63884065  0.71938166  1
  H+  H96  1  0.89473323  0.28085315  0.65203817  1
  H+  H97  1  0.62831657  0.88207350  0.17018647  1
  H+  H98  1  0.37257093  0.97782288  0.33283911  1
  H+  H99  1  0.47569608  0.36308231  0.33593804  1
  H+  H100  1  0.77666128  0.89002940  0.15752163  1
  H+  H101  1  0.90680344  0.91511285  0.65651401  1
  H+  H102  1  0.62329987  0.98523362  0.67429213  1
  H+  H103  1  0.60738093  0.41949063  0.73752492  1
  H+  H104  1  0.59503279  0.60037774  1.01125929  1
  H+  H105  1  0.94490330  0.33491045  0.16409120  1
  H+  H106  1  0.89179996  0.78579208  0.83446231  1
  H+  H107  1  0.01877953  0.12388552  0.16318110  1
  H+  H108  1  0.83323069  0.68607964  0.45604424  1
  H+  H109  1  0.78607590  0.88931213  0.82368480  1
  H+  H110  1  0.65931267  0.57142793  0.89685776  1
  H+  H111  1  0.60727348  0.12855864  0.82869096  1
  H+  H112  1  0.22184950  0.08745510  0.99483904  1
  H+  H113  1  0.36216268  0.22665837  0.34557367  1
  H+  H114  1  0.14197447  0.29511663  0.51093454  1
  H+  H115  1  0.28965242  0.34841958  0.11592063  1
  H+  H116  1  0.61317050  0.73172663  0.66954503  1
  H+  H117  1  0.60841855  0.64658050  0.33682718  1
  H+  H118  1  0.47107545  0.11673571  0.46563920  1
  H+  H119  1  0.62800683  0.49860985  -0.01577762  1
  H+  H120  1  0.37161111  1.02462890  -0.00207465  1
  H+  H121  1  0.77537720  0.12545330  0.49297129  1
  H+  H122  1  0.82109513  0.36294525  0.34783411  1
  H+  H123  1  0.11365748  0.41442480  0.67601653  1
  H+  H124  1  0.09973283  0.67642605  0.09342354  1
  H+  H125  1  0.40820113  0.35749010  0.17891545  1
  H+  H126  1  -0.00847067  0.90587444  0.00458252  1
  H+  H127  1  0.35901271  -0.02963333  0.16435061  1
  H+  H128  1  0.84393758  0.20508114  0.15488636  1
  H+  H129  1  0.02746019  0.89436041  0.49506372  1
  H+  H130  1  0.12775379  0.10189738  0.84317713  1
  H+  H131  1  0.84911077  0.75550936  0.35863636  1
  H+  H132  1  0.85088950  0.47060069  0.01120269  1
  H+  H133  1  0.39829590  0.86168623  0.31935850  1
  H+  H134  1  0.05465030  0.38604096  0.08861843  1
  H+  H135  1  0.86686695  0.83898594  -0.02384156  1
  H+  H136  1  0.01281369  0.87989825  0.83214299  1
  H+  H137  1  0.62056148  -0.01849090  1.00478820  1
  H+  H138  1  0.62886104  0.65932819  0.16006857  1
  H+  H139  1  -0.02600906  0.11722541  0.83533534  1
  H+  H140  1  0.82251135  0.36314006  0.49781472  1
  H+  H141  1  0.37353616  0.98567733  0.68132404  1
  H+  H142  1  0.39395621  0.87031231  0.98522685  1
  H+  H143  1  0.15498204  0.59919328  0.32984262  1
  H+  H144  1  0.07432207  0.44067386  0.14794184  1
  H+  H145  1  0.11568452  0.73035229  0.99962520  1
  H+  H146  1  0.53770586  0.39003740  0.15904504  1
  H+  H147  1  0.11522803  0.71106220  0.81080077  1
  H+  H148  1  0.13456931  0.60682766  0.98788866  1
  H+  H149  1  0.62274552  0.47730969  0.49645996  1
  H+  H150  1  0.39324487  0.77158164  0.32002104  1
  H+  H151  1  0.27007130  0.88104698  1.00039027  1
  H+  H152  1  0.86639771  0.72046448  0.15838545  1
  H+  H153  1  0.35239528  0.86573132  0.82639277  1
  H+  H154  1  0.07267333  -0.00138590  1.00822978  1
  H+  H155  1  0.15686599  0.51395757  0.33779129  1
  H+  H156  1  0.35921128  0.99467359  0.48032236  1
  H+  H157  1  0.87413816  0.72352635  0.65636612  1
  H+  H158  1  0.03688325  0.89522958  0.67139194  1
  H+  H159  1  0.16854918  0.34641394  0.60897106  1
  H+  H160  1  0.60144035  0.21319413  0.83194938  1
  H+  H161  1  1.01530044  0.14466566  1.00248622  1
  H+  H162  1  -0.01776649  0.37127607  0.64823163  1
  H+  H163  1  0.88336503  0.10966268  0.49716352  1
  H+  H164  1  0.89548689  0.59659439  0.35241086  1
  H+  H165  1  0.71090190  0.36565617  0.33010302  1
  H+  H166  1  0.15040167  0.37835611  0.83689834  1
  H+  H167  1  0.48433629  0.36219676  0.50581806  1
  H+  H168  1  0.32367492  0.90664584  0.06239814  1
  H+  H169  1  0.41875419  0.84144870  0.60786387  1
  H+  H170  1  0.08663927  0.17002609  0.76865563  1
  H+  H171  1  0.91213942  0.82860436  0.91479401  1
  H+  H172  1  0.47041734  0.85772968  0.50441620  1
  H+  H173  1  0.73234036  0.13307697  0.67569314  1
  H+  H174  1  0.11267403  0.14040592  0.50163342  1
  H+  H175  1  0.86218987  0.14161952  -0.00143923  1
  H+  H176  1  0.86845696  0.61114315  0.36926494  1
  H+  H177  1  0.71787798  0.59197704  0.98455480  1
  H+  H178  1  0.36814794  0.88516503  0.16114702  1
  H+  H179  1  0.86649562  0.46121224  0.67536668  1
  H+  H180  1  0.64221670  0.52985699  0.16046537  1
  H+  H181  1  0.09610402  0.21921589  0.16788209  1
  H+  H182  1  0.48615622  0.36166258  0.99062841  1
  H+  H183  1  0.10864364  0.53353629  0.66860697  1
  H+  H184  1  0.24814238  0.84762842  0.31683796  1
  H+  H185  1  0.64487826  0.86570765  0.83007229  1
  H+  H186  1  0.86497285  0.51267908  0.50860895  1
  H+  H187  1  0.97449334  0.87171972  0.32607572  1
  H+  H188  1  0.26562658  0.61912016  1.01227037  1
  H+  H189  1  0.63867905  0.39570546  0.67351500  1
  H+  H190  1  0.88198770  0.10407707  0.16871767  1
  H+  H191  1  0.72363322  0.11045092  0.83774457  1
  H+  H192  1  0.52454223  0.88526949  0.16227483  1
  H+  H193  1  0.84632181  0.37133082  0.15036375  1
  H+  H194  1  0.42132459  0.55899512  0.17316607  1
  H+  H195  1  0.64231401  0.11773553  0.99454190  1
  H+  H196  1  0.09554938  0.87770898  0.34902753  1
  H+  H197  1  0.12941033  0.27173309  -0.01099464  1
  H+  H198  1  0.85857156  0.23330252  0.82218464  1
  H+  H199  1  0.91402029  0.56625510  0.60231269  1
  H+  H200  1  0.62350824  0.27695303  0.33007582  1
  H+  H201  1  0.11847584  0.64935805  0.37284519  1
  H+  H202  1  0.35862354  0.71786131  0.82591926  1
  H+  H203  1  0.63034763  0.52254070  0.66138067  1
  H+  H204  1  0.14583536  0.87419601  0.97449795  1
  H+  H205  1  0.67319710  0.05122920  0.27006563  1
  H+  H206  1  0.86778155  0.89673807  0.33512956  1
  H+  H207  1  0.89153159  0.78551884  0.51844731  1
  H+  H208  1  0.16009722  0.54902816  0.12375379  1
  H+  H209  1  0.61397719  0.23041591  0.65319546  1
  H+  H210  1  0.90104335  0.33448085  0.55406882  1
  H+  H211  1  0.62416014  0.97540733  0.37693973  1
  H+  H212  1  0.12162439  0.14334438  0.67515458  1
  H+  H213  1  0.09973545  0.94898730  0.13161743  1
  H+  H214  1  0.31353678  0.44157836  0.13420178  1
  H+  H215  1  0.13756099  0.28475947  0.66650929  1
  H+  H216  1  0.86769055  0.97359757  0.16019338  1
  H+  H217  1  0.37376772  0.48013470  0.49561115  1
  H+  H218  1  0.10640416  0.86791272  0.16566437  1
  H+  H219  1  0.39542729  0.36376839  -0.01486230  1
  H+  H220  1  0.14314793  1.02136980  0.66317495  1
  H+  H221  1  0.89270893  0.28816494  0.32247364  1
  H+  H222  1  0.63231182  0.24730385  0.01358132  1
  H+  H223  1  0.60689475  0.87297812  0.48479252  1
  H+  H224  1  0.18645964  0.34785945  0.17663738  1
  H+  H225  1  0.92154436  0.38538732  0.29742164  1
  H+  H226  1  0.61475896  0.97895681  0.16395692  1
  H+  H227  1  0.59622429  0.18169841  0.41523891  1
  H+  H228  1  0.92041426  0.58357729  1.07075031  1
  H+  H229  1  0.14064934  1.03121767  0.51112688  1
  H+  H230  1  0.63967143  0.61098547  0.50822045  1
  H+  H231  1  0.28606384  0.89123349  0.67927434  1
  H+  H232  1  0.14681967  0.14467943  0.17904721  1
  H+  H233  1  0.23697379  0.37456894  0.51052201  1
  H+  H234  1  0.37452056  0.48295036  0.82494197  1
  H+  H235  1  0.61132920  0.64132282  0.67034500  1
  H+  H236  1  0.61244301  0.14684477  0.35302596  1
  H+  H237  1  0.72947406  0.11616514  0.99183737  1
  H+  H238  1  0.86028317  0.14526629  0.81704523  1
  H+  H239  1  0.61012676  0.47184476  0.82665315  1
  H+  H240  1  0.67207415  0.84101564  0.60030875  1
  H+  H241  1  0.88654165  0.51400310  0.15553190  1
  H+  H242  1  0.11732579  0.62315239  0.81674838  1
  H+  H243  1  0.39735588  0.36684539  0.50340319  1
  H+  H244  1  0.77653461  0.89276001  0.67762357  1
  H+  H245  1  0.23042469  0.11225633  0.66308473  1
  H+  H246  1  0.88801409  0.02628839  0.83323448  1
  H+  H247  1  0.88309369  0.85401797  0.17303556  1
  H+  H248  1  0.51808101  0.61706686  1.00993729  1
  H+  H249  1  0.99457135  0.98056137  0.62654119  1
  H+  H250  1  0.63008104  0.10575936  0.17769007  1
  H+  H251  1  0.88389965  0.03341048  0.98749736  1
  H+  H252  1  0.21547556  0.84601027  0.83267112  1
  H+  H253  1  0.11583227  0.22908928  0.82721133  1
  H+  H254  1  0.72971119  0.86773189  0.50124797  1
  H+  H255  1  0.67578066  0.83799779  0.88964865  1
  H+  H256  1  0.48263160  0.62133926  0.83125527  1
  H+  H257  1  0.64761272  0.86981448  -0.01595750  1
  H+  H258  1  0.11889649  0.13678311  0.34390334  1
  H+  H259  1  0.35905199  0.62903128  1.00550388  1
  H+  H260  1  0.86105259  0.48077815  0.83206573  1
  H+  H261  1  0.53193873  0.89675385  0.67168271  1
  H+  H262  1  0.46706119  0.10722515  0.17630381  1
  H+  H263  1  0.87954164  0.76771036  0.65663851  1
  H+  H264  1  0.42203214  0.59979113  0.92175833  1
  H+  H265  1  0.63312996  0.39439748  0.48911131  1
  H+  H266  1  0.90907201  0.48785893  0.31864760  1
  H+  H267  1  0.13379363  0.50975622  0.83441797  1
  H+  H268  1  0.63915826  0.03706760  0.51143753  1
  H+  H269  1  0.14387176  0.76095330  0.16723197  1
  H+  H270  1  0.08350546  0.92601438  0.40285997  1
  H+  H271  1  0.58028416  0.16544535  0.10927163  1
  H+  H272  1  0.24102895  0.85693321  0.17151815  1
  H+  H273  1  0.22171453  0.86280527  0.51414875  1
  H+  H274  1  0.88321596  0.37029187  0.83969214  1
  H+  H275  1  0.87746273  0.36196013  -0.01342275  1
  H+  H276  1  0.37509937  0.62155987  0.33997705  1
  H+  H277  1  0.08064652  0.60568014  0.38008520  1
  H+  H278  1  0.64394162  0.77588795  0.50495785  1
  H+  H279  1  0.86266462  0.26936240  0.49951587  1
  H+  H280  1  0.12828937  0.01248220  0.84036707  1
  H+  H281  1  0.98088967  0.59225060  0.65682033  1
  H+  H282  1  0.36081675  0.72238494  0.49493974  1
  H+  H283  1  0.09627491  0.33951817  0.18043322  1
  H+  H284  1  0.27252187  0.39404459  0.67751505  1
  H+  H285  1  0.36368376  0.22839321  0.01249841  1
  H+  H286  1  0.47406759  0.85442217  0.83369196  1
  H+  H287  1  0.61265447  0.14252839  0.66638123  1
  H+  H288  1  0.41860485  0.82972621  0.89496278  1
  H+  H289  1  0.84295694  0.92692798  0.06382734  1
  H+  H290  1  0.73993909  0.52560535  0.70749890  1
  H+  H291  1  0.42433780  0.58194071  0.56909016  1
  H+  H292  1  0.42152427  0.32766810  0.27453058  1
  H+  H293  1  0.58705613  0.91733419  0.76446239  1
  H+  H294  1  0.91583741  0.08281143  0.23061475  1
  H+  H295  1  0.88798534  0.61456448  1.01470960  1
  H+  H296  1  0.01316108  0.63108520  0.50197443  1
  H+  H297  1  0.58708482  0.67161075  0.76478589  1
  H+  H298  1  0.11745915  0.44828714  0.42885792  1
  H+  H299  1  0.35976619  0.13633000  0.01159989  1
  H+  H300  1  0.58060453  0.41379069  0.05281425  1
  H+  H301  1  0.41592231  0.59122584  0.26902008  1
  H+  H302  1  0.05554051  0.34654403  0.79485519  1
  H+  H303  1  0.17022292  0.05714122  0.93300549  1
  H+  H304  1  0.83093954  0.67066955  0.05536694  1
  H+  H305  1  0.85626273  0.36895865  0.68059147  1
  H+  H306  1  0.66564792  0.07760699  0.89794215  1
  H+  H307  1  0.42507006  0.83306831  0.22703227  1
  H+  H308  1  0.81669074  0.40419061  0.09194347  1
  H+  H309  1  0.32037767  0.16008476  0.73444271  1
  H+  H310  1  0.79909449  0.40085176  0.40748170  1
  H+  H311  1  0.16911504  0.08672983  0.57267054  1
  H+  H312  1  0.15429613  0.33263955  0.27814097  1
  H+  H313  1  0.87831463  0.88915362  0.82646163  1
  H+  H314  1  0.59125420  0.91805157  0.06163287  1
  H+  H315  1  0.07246970  0.42827721  0.73758432  1
  H+  H316  1  0.67192359  0.85251752  0.23402417  1
  H+  H317  1  0.27718470  0.62786595  0.49460117  1
  H+  H318  1  0.32722144  0.43014260  0.03653889  1
  H+  H319  1  0.00977205  0.37882387  -0.00226427  1
  H+  H320  1  0.65631319  0.32764957  0.93664080  1
  H+  H321  1  0.58998831  0.67209316  0.43717353  1
  H+  H322  1  0.40598426  0.32278391  0.60115808  1
  H+  H323  1  0.19714326  0.61277800  0.23660561  1
  H+  H324  1  0.73499450  0.86953596  0.98180485  1
  H+  H325  1  0.86094264  0.23037294  0.00229347  1
  H+  H326  1  0.93095477  0.86843648  0.56422986  1
  H+  H327  1  0.34098232  0.42228005  0.43556866  1
  H+  H328  1  0.16941061  0.33923654  0.89576500  1
  H+  H329  1  0.82362533  0.64069092  0.77622674  1
  H+  H330  1  0.94802391  0.52178887  0.25429560  1
  H+  H331  1  0.71633373  0.60497265  0.66144316  1
  H+  H332  1  0.18622431  0.11533030  0.24270878  1
  H+  H333  1  0.08593925  0.16718390  0.43918024  1
  H+  H334  1  0.38148139  0.10576289  0.67151494  1
  H+  H335  1  0.92292403  0.95582724  0.02192405  1
  H+  H336  1  0.27034268  0.94991196  0.44756237  1
  H+  H337  1  0.82307119  0.15079795  0.09439849  1
  H+  H338  1  0.91036435  0.08896464  0.92530351  1
  H+  H339  1  0.97723448  0.60646386  0.83040218  1
  H+  H340  1  0.33912274  0.42106892  0.73280457  1
  H+  H341  1  0.33048137  0.16716500  0.40517620  1
  H+  H342  1  0.68687211  0.09840042  0.61072295  1
  H+  H343  1  0.12513806  0.84632771  0.83442219  1
  H+  H344  1  0.66895588  0.58672366  0.21986374  1
  H+  H345  1  0.88792273  1.01351087  0.49371574  1
  H+  H346  1  0.47595627  0.11684054  0.33549939  1
  H+  H347  1  0.27495472  0.14156824  0.50006626  1
  H+  H348  1  0.34046016  0.91676981  0.39022672  1
  H+  H349  1  0.15402065  0.44572094  0.52040675  1
  H+  H350  1  0.16211044  0.82562983  0.92023078  1
  H+  H351  1  0.84064897  0.92334434  0.42726458  1
  H+  H352  1  0.40947238  0.07954077  0.23588564  1
  H+  H353  1  0.07115486  0.72616464  0.41911128  1
  H+  H354  1  0.91126676  0.33593870  0.92640023  1
  H+  H355  1  -0.01677268  0.11377952  0.49916607  1
  H+  H356  1  0.34140319  0.65940583  0.40648673  1
  H+  H357  1  0.65211949  0.88637322  0.32100865  1
  H+  H358  1  0.83919591  0.92198589  0.73816441  1
  H+  H359  1  0.38522648  0.53105346  0.97337412  1
  H+  H360  1  0.89188318  0.60671009  0.16088118  1
  H+  H361  1  0.82579227  0.41559037  0.77486421  1
  H+  H362  1  0.58621936  0.42219253  0.40325764  1
  H+  H363  1  0.84395657  0.16444932  0.43528753  1
  H+  H364  1  0.66087664  0.57820577  0.56993937  1
  H+  H365  1  0.88067563  0.30901292  0.22214366  1
  H+  H366  1  0.69193129  0.34723955  0.58759098  1
  H+  H367  1  0.26667475  0.38615119  0.98192116  1
  H+  H368  1  0.42022284  0.32762101  0.89772559  1
  H+  H369  1  0.68708885  0.22223416  0.05485420  1
  H+  H370  1  0.39409616  0.12340403  0.49442046  1
  H+  H371  1  0.47143217  1.09107109  0.84756773  1
  H+  H372  1  0.14226706  0.02569571  0.32372504  1
  H+  H373  1  0.16164479  0.57097061  0.93037692  1
  H+  H374  1  0.17111500  0.82714104  0.61000490  1
  H+  H375  1  0.33088266  0.90606163  0.76894625  1
  H+  H376  1  0.18145083  0.81262607  0.23717584  1
  H+  H377  1  0.62627363  0.39461302  0.15618239  1
  H+  H378  1  0.07876119  0.90825970  0.77399844  1
  H+  H379  1  0.55775462  0.53641273  0.27618179  1
  H+  H380  1  0.87893329  0.60796686  0.51357470  1
  H+  H381  1  0.27808197  0.39045993  0.33846854  1
  H+  H382  1  0.47725446  0.61346386  0.65882952  1
  H+  H383  1  0.33101931  0.66257536  0.76425308  1
  O2-  O384  1  0.08094890  0.16149628  0.15136751  1
  O2-  O385  1  0.07953391  0.16725318  0.48441493  1
  O2-  O386  1  0.08265521  0.16825327  0.81404287  1
  O2-  O387  1  0.04772080  0.38084792  0.13500257  1
  O2-  O388  1  0.12266301  0.47358753  0.50261732  1
  O2-  O389  1  0.06901536  0.40553101  0.80184514  1
  O2-  O390  1  0.09688237  0.67501186  0.13970102  1
  O2-  O391  1  0.07387055  0.66938387  0.48823031  1
  O2-  O392  1  0.09072006  0.65197678  0.79350859  1
  O2-  O393  1  0.06556892  0.88294887  0.14818505  1
  O2-  O394  1  0.08854041  0.92373684  0.48061464  1
  O2-  O395  1  0.07791046  0.90636328  0.81897890  1
  O2-  O396  1  0.33210059  0.16774723  0.14653638  1
  O2-  O397  1  0.33331092  0.16895852  0.48107237  1
  O2-  O398  1  0.32047874  0.16435811  0.80424811  1
  O2-  O399  1  0.26649482  0.38695108  0.12008090  1
  O2-  O400  1  0.34086467  0.41931073  0.48052298  1
  O2-  O401  1  0.34504806  0.42139025  0.81127903  1
  O2-  O402  1  0.35398886  0.67672819  0.14361954  1
  O2-  O403  1  0.33649524  0.66292920  0.47795248  1
  O2-  O404  1  0.32813818  0.65729797  0.81023413  1
  O2-  O405  1  0.33021957  0.90932684  0.14974481  1
  O2-  O406  1  0.31163171  0.93574673  0.46511459  1
  O2-  O407  1  0.31920872  0.89423549  0.81363114  1
  O2-  O408  1  0.57309827  0.15920962  0.15451066  1
  O2-  O409  1  0.62354447  0.19504520  0.48398706  1
  O2-  O410  1  0.57089420  0.15326597  0.81734200  1
  O2-  O411  1  0.59598489  0.42555036  0.14256375  1
  O2-  O412  1  0.59488875  0.41792377  0.47874908  1
  O2-  O413  1  0.58287343  0.41121732  0.81136322  1
  O2-  O414  1  0.60455509  0.69817521  0.16328834  1
  O2-  O415  1  0.59238712  0.67084858  0.48224570  1
  O2-  O416  1  0.58713679  0.66973314  0.81004557  1
  O2-  O417  1  0.58809911  0.91663423  0.14929161  1
  O2-  O418  1  0.56737642  0.89021894  0.46440143  1
  O2-  O419  1  0.58420529  0.91177924  0.80968064  1
  O2-  O420  1  0.81891345  0.14444595  0.13993024  1
  O2-  O421  1  0.83789198  0.15280219  0.47973835  1
  O2-  O422  1  0.82490093  0.17239832  0.80824729  1
  O2-  O423  1  0.82127217  0.40775689  0.13800282  1
  O2-  O424  1  0.79187861  0.39718142  0.48335945  1
  O2-  O425  1  0.82631142  0.41786257  0.81995097  1
  O2-  O426  1  0.84016816  0.66188039  0.13989399  1
  O2-  O427  1  0.83916794  0.67654742  0.50024666  1
  O2-  O428  1  0.83362926  0.66109105  0.81899892  1
  O2-  O429  1  0.83663857  0.91355727  0.14408710  1
  O2-  O430  1  0.84231980  0.92611877  0.47334038  1
  O2-  O431  1  0.84664662  0.92133929  0.80900664  1
  O2-  O432  1  0.19885390  0.14548685  0.20135309  1
  O2-  O433  1  0.16855684  0.09126894  0.52649381  1
  O2-  O434  1  0.15988888  0.07310382  0.85598007  1
  O2-  O435  1  0.13254262  0.31880011  0.20056437  1
  O2-  O436  1  0.17742100  0.35453591  0.52561541  1
  O2-  O437  1  0.17678938  0.34406512  0.85036805  1
  O2-  O438  1  0.21872308  0.65730369  0.20517835  1
  O2-  O439  1  0.17037490  0.56556087  0.52046184  1
  O2-  O440  1  0.16327494  0.56902627  0.85126112  1
  O2-  O441  1  0.17796293  0.82127414  0.18862135  1
  O2-  O442  1  0.16296030  0.83429024  0.53122818  1
  O2-  O443  1  0.15402924  0.81295982  0.84705940  1
  O2-  O444  1  0.40581216  0.07604314  0.19069923  1
  O2-  O445  1  0.42587697  0.09064651  0.49613503  1
  O2-  O446  1  0.41533592  0.05611653  0.86894749  1
  O2-  O447  1  0.43056899  0.32234200  0.19531153  1
  O2-  O448  1  0.42285317  0.33195491  0.51780995  1
  O2-  O449  1  0.42002114  0.32926122  0.85211596  1
  O2-  O450  1  0.43015852  0.60866886  0.19651103  1
  O2-  O451  1  0.42782110  0.58337293  0.52256869  1
  O2-  O452  1  0.42167132  0.58789669  0.84573502  1
  O2-  O453  1  0.42814310  0.83962150  0.18124698  1
  O2-  O454  1  0.41063093  0.82777403  0.52103128  1
  O2-  O455  1  0.41390396  0.82228963  0.84908028  1
  O2-  O456  1  0.66004625  0.07346516  0.18900674  1
  O2-  O457  1  0.68272081  0.09546307  0.52218657  1
  O2-  O458  1  0.66363539  0.07399250  0.85285686  1
  O2-  O459  1  0.66178008  0.32876268  0.18707836  1
  O2-  O460  1  0.70249068  0.35003668  0.50640399  1
  O2-  O461  1  0.65924914  0.32675230  0.86006062  1
  O2-  O462  1  0.67318622  0.59120527  0.17527278  1
  O2-  O463  1  0.66793356  0.57948526  0.52436676  1
  O2-  O464  1  0.66335392  0.57602836  0.85069029  1
  O2-  O465  1  0.66866971  0.85140443  0.18787901  1
  O2-  O466  1  0.66975435  0.83811524  0.51631298  1
  O2-  O467  1  0.67657813  0.83604181  0.84386781  1
  O2-  O468  1  0.91593616  0.07821424  0.18538108  1
  O2-  O469  1  0.91821815  0.07828207  0.51030226  1
  O2-  O470  1  0.91234452  0.08708707  0.84772427  1
  O2-  O471  1  0.88344975  0.30656954  0.17669328  1
  O2-  O472  1  0.88161679  0.32909250  0.51061097  1
  O2-  O473  1  0.91416796  0.33944948  0.85291120  1
  O2-  O474  1  0.92629952  0.57669322  0.16346647  1
  O2-  O475  1  0.90549314  0.57170324  0.52290329  1
  O2-  O476  1  0.92232274  0.58009992  0.85258834  1
  O2-  O477  1  0.90868873  0.82146255  0.19192591  1
  O2-  O478  1  0.92325207  0.84989973  0.52040615  1
  O2-  O479  1  0.92222635  0.84479080  0.85063083  1
  O2-  O480  1  0.17331769  0.08762121  0.31186370  1
  O2-  O481  1  0.16767451  0.08061323  0.64666897  1
  O2-  O482  1  0.17153393  0.03894717  0.97560697  1
  O2-  O483  1  0.16851639  0.33381154  0.32228549  1
  O2-  O484  1  0.16589462  0.34631025  0.65391984  1
  O2-  O485  1  0.16068537  0.33211911  0.97152896  1
  O2-  O486  1  0.18799145  0.57161054  0.31722164  1
  O2-  O487  1  0.13540684  0.59288197  0.64727875  1
  O2-  O488  1  0.15852617  0.56980527  0.97593246  1
  O2-  O489  1  0.19261825  0.80313075  0.29827134  1
  O2-  O490  1  0.17189926  0.82275707  0.65505305  1
  O2-  O491  1  0.16500061  0.83299529  0.96642720  1
  O2-  O492  1  0.41722176  0.08491911  0.31775495  1
  O2-  O493  1  0.41039253  0.07392868  0.65775710  1
  O2-  O494  1  0.39715039  0.08448503  0.98360975  1
  O2-  O495  1  0.41535583  0.33227978  0.31918152  1
  O2-  O496  1  0.39882214  0.31647361  0.64560843  1
  O2-  O497  1  0.42097292  0.32750157  0.97671508  1
  O2-  O498  1  0.41308499  0.58489985  0.31512253  1
  O2-  O499  1  0.41789041  0.58245442  0.64133970  1
  O2-  O500  1  0.41610465  0.59407878  0.96712510  1
  O2-  O501  1  0.42422234  0.82885493  0.30189874  1
  O2-  O502  1  0.42608474  0.84408238  0.65223097  1
  O2-  O503  1  0.42438404  0.84224027  0.96779736  1
  O2-  O504  1  0.69393947  0.04830678  0.31158560  1
  O2-  O505  1  0.67660402  0.09098153  0.65484084  1
  O2-  O506  1  0.66774653  0.08367862  0.97857395  1
  O2-  O507  1  0.65136553  0.33517272  0.31161411  1
  O2-  O508  1  0.67890683  0.34003299  0.63181700  1
  O2-  O509  1  0.65870117  0.33274324  0.98224019  1
  O2-  O510  1  0.61195708  0.56184729  0.29838587  1
  O2-  O511  1  0.65737045  0.58268867  0.64481548  1
  O2-  O512  1  0.65850829  0.56187013  0.96872818  1
  O2-  O513  1  0.67552835  0.84887818  0.30742635  1
  O2-  O514  1  0.67093141  0.83853048  0.64529531  1
  O2-  O515  1  0.67682305  0.84110820  0.96517029  1
  O2-  O516  1  0.92458316  0.09121046  0.30986472  1
  O2-  O517  1  0.93195905  0.08684541  0.64592902  1
  O2-  O518  1  0.91088759  0.09326216  0.97095852  1
  O2-  O519  1  0.87611512  0.32373726  0.29763021  1
  O2-  O520  1  0.92512211  0.33574863  0.62837901  1
  O2-  O521  1  0.90999839  0.33348874  0.97278386  1
  O2-  O522  1  0.95773827  0.49870506  0.29196979  1
  O2-  O523  1  0.91868350  0.56395329  0.64728568  1
  O2-  O524  1  0.92035731  0.58340278  1.02603874  1
  O2-  O525  1  0.91375492  0.84181460  0.31253789  1
  O2-  O526  1  0.95692532  0.91889064  0.63174857  1
  O2-  O527  1  0.90354343  0.81604175  0.96301368  1
  O2-  O528  1  0.07531771  0.17745856  0.01798321  1
  O2-  O529  1  0.08667381  0.16468130  0.35975396  1
  O2-  O530  1  0.09274733  0.17512847  0.68956638  1
  O2-  O531  1  0.06894315  0.40462081  0.01648476  1
  O2-  O532  1  0.10630900  0.42894528  0.38480351  1
  O2-  O533  1  0.07718891  0.43817833  0.68923972  1
  O2-  O534  1  0.09237133  0.67281866  0.01926583  1
  O2-  O535  1  0.06425110  0.75384668  0.38200575  1
  O2-  O536  1  0.09357834  0.63880259  0.67296579  1
  O2-  O537  1  0.01520850  0.96078579  0.02729323  1
  O2-  O538  1  0.08242632  0.92341871  0.35715180  1
  O2-  O539  1  0.09215045  0.91332760  0.69179336  1
  O2-  O540  1  0.33300252  0.16977057  0.03155113  1
  O2-  O541  1  0.33122464  0.16540762  0.35927776  1
  O2-  O542  1  0.32080216  0.15561957  0.68787219  1
  O2-  O543  1  0.32934284  0.41993207  -0.00673565  1
  O2-  O544  1  0.33983232  0.42476573  0.35072012  1
  O2-  O545  1  0.33504510  0.42166906  0.68734916  1
  O2-  O546  1  0.32230971  0.64282180  0.03210304  1
  O2-  O547  1  0.34183915  0.65639582  0.35961543  1
  O2-  O548  1  0.33974878  0.67180343  0.69068231  1
  O2-  O549  1  0.32889485  0.91152240  0.01785218  1
  O2-  O550  1  0.34623979  0.91598878  0.34538204  1
  O2-  O551  1  0.34572704  0.92098487  0.69449879  1
  O2-  O552  1  0.62921059  0.19617609  0.03820383  1
  O2-  O553  1  0.58087813  0.17338862  0.36942409  1
  O2-  O554  1  0.57754142  0.17057684  0.66690898  1
  O2-  O555  1  0.57782313  0.40669492  0.00852795  1
  O2-  O556  1  0.57825425  0.42057790  0.35774820  1
  O2-  O557  1  0.63398094  0.44081246  0.69643960  1
  O2-  O558  1  0.55889550  0.61360840  0.03800087  1
  O2-  O559  1  0.58793866  0.68391998  0.35516772  1
  O2-  O560  1  0.58075994  0.67138530  0.68501986  1
  O2-  O561  1  0.59203579  0.91949088  0.01696541  1
  O2-  O562  1  0.62474997  0.96385551  0.33328728  1
  O2-  O563  1  0.59304542  0.92284045  0.68548070  1
  O2-  O564  1  0.83148179  0.16990227  0.01793961  1
  O2-  O565  1  0.90160321  0.20953040  0.36613770  1
  O2-  O566  1  0.82573455  0.20884942  0.70492583  1
  O2-  O567  1  0.81847876  0.40734019  0.01732829  1
  O2-  O568  1  0.80521584  0.40550098  0.36182332  1
  O2-  O569  1  0.82932794  0.40287316  0.69313722  1
  O2-  O570  1  0.83096815  0.66084895  0.01106750  1
  O2-  O571  1  0.80790876  0.71171006  0.38772223  1
  O2-  O572  1  0.79054374  0.58496066  0.70469620  1
  O2-  O573  1  0.85965418  0.93856729  0.02027175  1
  O2-  O574  1  0.83928087  0.92829237  0.35259028  1
  O2-  O575  1  0.83710567  0.92659460  0.69165970  1
