# generated using pymatgen
data_H2O
_symmetry_space_group_name_H-M   'P 1'
_cell_length_a   17.98193535
_cell_length_b   17.97860658
_cell_length_c   22.00233482
_cell_angle_alpha   90.00363839
_cell_angle_beta   89.99782422
_cell_angle_gamma   119.98529590
_symmetry_Int_Tables_number   1
_chemical_formula_structural   H2O
_chemical_formula_sum   'H384 O192'
_cell_volume   6161.07067001
_cell_formula_units_Z   192
loop_
 _symmetry_equiv_pos_site_id
 _symmetry_equiv_pos_as_xyz
  1  'x, y, z'
loop_
 _atom_type_symbol
 _atom_type_oxidation_number
  H+  1.0
  O2-  -2.0
loop_
 _atom_site_type_symbol
 _atom_site_label
 _atom_site_symmetry_multiplicity
 _atom_site_fract_x
 _atom_site_fract_y
 _atom_site_fract_z
 _atom_site_occupancy
  H+  H0  1  0.15999810  0.59074139  0.89447426  1
  H+  H1  1  0.23407109  0.12725231  0.00011378  1
  H+  H2  1  0.76412315  0.37381907  0.14255663  1
  H+  H3  1  0.61591433  0.26638824  0.31303097  1
  H+  H4  1  0.38100693  0.53043726  0.66389847  1
  H+  H5  1  0.28764289  0.89223805  0.66802010  1
  H+  H6  1  0.64277210  0.02741901  0.83746112  1
  H+  H7  1  0.38460627  0.77365063  0.83320399  1
  H+  H8  1  0.96368845  0.60281715  0.53176146  1
  H+  H9  1  0.48871069  0.36676792  0.98841206  1
  H+  H10  1  0.60939897  0.71926401  0.82584327  1
  H+  H11  1  0.12798392  0.52570807  0.33127589  1
  H+  H12  1  0.88597411  0.27390932  0.67074180  1
  H+  H13  1  0.89811670  0.36100071  0.30490403  1
  H+  H14  1  0.21735928  0.11959864  0.15985946  1
  H+  H15  1  0.85066699  0.18352593  0.78777823  1
  H+  H16  1  0.09075328  0.18598199  0.44705824  1
  H+  H17  1  0.87517601  0.13934426  0.33036695  1
  H+  H18  1  0.22450589  0.62663143  0.99049842  1
  H+  H19  1  0.88201678  0.77449799  0.33012503  1
  H+  H20  1  0.36177385  0.47813081  0.82654581  1
  H+  H21  1  0.14443212  0.12643159  0.82201657  1
  H+  H22  1  0.37067373  0.22993517  1.00562698  1
  H+  H23  1  0.38382616  0.77824061  0.16688029  1
  H+  H24  1  0.03445817  0.14903343  0.82397651  1
  H+  H25  1  0.61376559  0.79944308  0.67996795  1
  H+  H26  1  0.21674186  0.88882637  0.89301972  1
  H+  H27  1  0.31047930  0.89261838  0.30939424  1
  H+  H28  1  0.47569182  0.36861041  0.32996929  1
  H+  H29  1  0.86194452  0.50438474  0.98059316  1
  H+  H30  1  0.85449659  0.96424167  0.14155340  1
  H+  H31  1  0.85674788  0.38882475  0.84274871  1
  H+  H32  1  0.50801623  0.72293100  0.37009680  1
  H+  H33  1  0.27043632  0.14425373  0.33921228  1
  H+  H34  1  0.77825234  0.88251894  0.99009502  1
  H+  H35  1  0.66984526  0.07311800  0.54024934  1
  H+  H36  1  0.12224939  0.85766659  0.16716167  1
  H+  H37  1  0.88112629  0.77097168  0.51162474  1
  H+  H38  1  0.87278661  0.61162274  0.34164255  1
  H+  H39  1  0.53493509  0.38886691  0.15680635  1
  H+  H40  1  0.85439040  0.63347044  0.50349922  1
  H+  H41  1  0.63195012  0.15389737  0.83379561  1
  H+  H42  1  0.63736831  0.77173519  0.98464974  1
  H+  H43  1  0.52218886  0.64035296  0.49915259  1
  H+  H44  1  0.25114141  0.34428345  0.48321902  1
  H+  H45  1  0.02686235  0.13532340  -0.00084343  1
  H+  H46  1  0.21589437  0.84048315  1.01421744  1
  H+  H47  1  0.52436899  0.64045601  0.15295283  1
  H+  H48  1  0.43523799  0.84026075  0.55601672  1
  H+  H49  1  0.62112205  0.14328045  0.15137807  1
  H+  H50  1  0.32106374  0.65466966  0.10467928  1
  H+  H51  1  0.00793220  0.13365013  0.16809023  1
  H+  H52  1  0.36676094  0.21779626  0.15879012  1
  H+  H53  1  0.33581896  0.18415261  0.75311731  1
  H+  H54  1  0.10401690  0.38721408  0.16539508  1
  H+  H55  1  0.36978189  -0.01262748  0.66151579  1
  H+  H56  1  0.39406350  0.61575338  0.50428706  1
  H+  H57  1  0.60084909  0.17974795  0.09150787  1
  H+  H58  1  0.11784094  0.39434151  0.34441301  1
  H+  H59  1  0.28805486  0.16454171  0.66321256  1
  H+  H60  1  0.78218106  0.13945089  0.47715883  1
  H+  H61  1  0.13178295  0.38051697  0.65462780  1
  H+  H62  1  0.47493058  0.38312200  0.67355792  1
  H+  H63  1  0.86536534  0.09886805  0.15589811  1
  H+  H64  1  0.77883381  0.63890894  0.01023354  1
  H+  H65  1  0.43434460  0.95226956  0.32967137  1
  H+  H66  1  0.89244473  0.50149711  0.15949777  1
  H+  H67  1  0.62038865  0.48453037  0.83877548  1
  H+  H68  1  0.36304545  0.23812431  0.81866925  1
  H+  H69  1  0.26325781  0.63065350  0.16502751  1
  H+  H70  1  0.86128964  0.47607458  0.68512570  1
  H+  H71  1  0.34127532  0.87390063  1.01285605  1
  H+  H72  1  0.60419669  0.92361324  0.39723879  1
  H+  H73  1  0.83452485  0.91720709  0.40113525  1
  H+  H74  1  0.66905647  0.28368112  0.00015467  1
  H+  H75  1  0.47033943  0.61973074  0.66390999  1
  H+  H76  1  0.63116129  0.01971311  0.99043678  1
  H+  H77  1  0.01728195  0.39539028  0.67056317  1
  H+  H78  1  0.21440765  0.62079979  0.32858298  1
  H+  H79  1  0.40525261  1.03199805  0.84171072  1
  H+  H80  1  0.71791491  0.60540273  0.17186241  1
  H+  H81  1  0.41471206  0.13318802  -0.00313383  1
  H+  H82  1  0.26417395  0.39651764  0.67442824  1
  H+  H83  1  0.61815493  0.39412661  0.83916879  1
  H+  H84  1  0.76966431  0.64036299  0.34167300  1
  H+  H85  1  0.76816886  0.90004391  0.67168694  1
  H+  H86  1  -0.01686085  0.35584818  0.51200776  1
  H+  H87  1  0.36388986  1.00130349  0.16479828  1
  H+  H88  1  0.71064093  0.85227702  0.81375401  1
  H+  H89  1  0.37193051  0.89076891  0.81589566  1
  H+  H90  1  0.42297540  0.09302785  0.56125735  1
  H+  H91  1  0.72869737  0.86795440  0.49961602  1
  H+  H92  1  0.36444716  0.73429560  0.67161382  1
  H+  H93  1  0.81676923  0.62548855  0.09596156  1
  H+  H94  1  0.48315659  0.37952250  0.51658999  1
  H+  H95  1  0.43988856  0.57563338  0.25943811  1
  H+  H96  1  0.98207106  0.12204714  0.51331912  1
  H+  H97  1  0.07528937  0.65021088  0.10498621  1
  H+  H98  1  0.47487711  0.85721465  0.31781664  1
  H+  H99  1  0.86547623  0.88923149  0.49735906  1
  H+  H100  1  0.12583862  0.39709144  0.00842803  1
  H+  H101  1  1.03920093  0.72932387  0.71064556  1
  H+  H102  1  0.78547655  0.14027795  0.70332340  1
  H+  H103  1  0.87090333  0.22834217  0.48693694  1
  H+  H104  1  0.60634850  0.39430088  0.68810758  1
  H+  H105  1  0.60231496  0.88217945  0.15188424  1
  H+  H106  1  0.62810052  0.52581961  0.17482988  1
  H+  H107  1  1.01989114  0.88734386  0.15879388  1
  H+  H108  1  0.02655761  0.14267739  0.35630179  1
  H+  H109  1  0.12102111  0.16569302  0.66710821  1
  H+  H110  1  0.12929002  -0.04733370  0.61647837  1
  H+  H111  1  0.38693718  0.36139343  0.51104118  1
  H+  H112  1  0.32228570  0.91705675  0.27952463  1
  H+  H113  1  0.11205923  0.23398263  0.34977157  1
  H+  H114  1  0.61673890  0.66899310  0.67031313  1
  H+  H115  1  0.82323754  0.15276488  0.08453038  1
  H+  H116  1  0.54749342  0.16377830  -0.00042133  1
  H+  H117  1  0.35294741  0.71881921  0.32897177  1
  H+  H118  1  0.28206704  0.38333007  -0.01027812  1
  H+  H119  1  0.61670220  0.48187591  0.49609340  1
  H+  H120  1  0.89823695  0.27339084  0.31291220  1
  H+  H121  1  0.01626232  0.61879436  0.16388119  1
  H+  H122  1  0.38312980  0.61742518  0.82976136  1
  H+  H123  1  0.09417418  0.70493829  0.01698579  1
  H+  H124  1  0.73332927  0.37491569  0.84464489  1
  H+  H125  1  0.22172111  0.36191741  0.32439219  1
  H+  H126  1  0.89590020  0.35972769  0.51790814  1
  H+  H127  1  0.98943721  0.61396459  0.31478074  1
  H+  H128  1  0.63203916  0.78516219  0.32629605  1
  H+  H129  1  0.10869555  0.73747257  0.83397579  1
  H+  H130  1  0.63810430  0.53601950  0.32963851  1
  H+  H131  1  0.53383304  0.88572316  0.47825779  1
  H+  H132  1  0.12364921  0.40282870  0.81441855  1
  H+  H133  1  0.12872140  0.61017375  0.17539543  1
  H+  H134  1  0.73510006  0.11460960  0.84499794  1
  H+  H135  1  0.34693416  0.12021873  0.15386262  1
  H+  H136  1  0.80494116  0.91180299  0.86960523  1
  H+  H137  1  0.31701812  0.91889736  0.45054672  1
  H+  H138  1  0.13754131  0.02901086  0.33914060  1
  H+  H139  1  0.18939056  0.83441527  0.31493639  1
  H+  H140  1  0.14983046  0.79944959  0.95515012  1
  H+  H141  1  0.38193848  0.13336599  0.32223121  1
  H+  H142  1  0.86923891  0.98030110  0.49599488  1
  H+  H143  1  0.47140047  0.61287859  0.83050106  1
  H+  H144  1  0.10937255  0.22943667  0.98457797  1
  H+  H145  1  0.09811767  0.85726619  0.69042358  1
  H+  H146  1  0.85299000  0.21285255  -0.00997108  1
  H+  H147  1  0.73754235  0.40034022  0.40870860  1
  H+  H148  1  0.86187416  -0.02012592  0.66743174  1
  H+  H149  1  0.38899498  0.36650142  0.83745725  1
  H+  H150  1  0.15323668  0.06307440  0.65711108  1
  H+  H151  1  0.67760453  0.59248891  0.90457458  1
  H+  H152  1  0.51269606  0.05802216  0.72598934  1
  H+  H153  1  0.07922623  0.62276612  0.57719551  1
  H+  H154  1  0.12380605  0.38545998  0.49932991  1
  H+  H155  1  0.10355875  0.62530962  0.66773823  1
  H+  H156  1  0.27082997  0.13243426  0.48654361  1
  H+  H157  1  0.49187001  0.12125215  0.84485402  1
  H+  H158  1  0.72889035  0.36377040  0.52506797  1
  H+  H159  1  0.00800322  0.61298041  0.00876517  1
  H+  H160  1  0.10416717  0.26395353  0.18172200  1
  H+  H161  1  0.52082598  0.88541781  0.82740301  1
  H+  H162  1  0.63342919  0.09188195  0.69202897  1
  H+  H163  1  0.61721243  0.39252574  0.49986395  1
  H+  H164  1  0.09763892  0.53487595  0.65414669  1
  H+  H165  1  0.09801606  0.88031875  0.34035374  1
  H+  H166  1  0.86163423  0.62991154  0.00978662  1
  H+  H167  1  0.62938216  0.24308847  0.83315815  1
  H+  H168  1  0.38114441  0.63726737  1.00151926  1
  H+  H169  1  0.08502354  0.94722988  0.61578459  1
  H+  H170  1  0.38693438  0.52101317  0.97250798  1
  H+  H171  1  0.11797153  0.48914250  0.16431200  1
  H+  H172  1  0.89364130  0.86412001  0.96587003  1
  H+  H173  1  0.12937478  1.03130564  0.16200313  1
  H+  H174  1  0.14453926  0.51405291  0.50742840  1
  H+  H175  1  0.14539284  0.28078629  0.82880435  1
  H+  H176  1  0.11325301  0.88337178  0.00983769  1
  H+  H177  1  0.62559800  0.88452089  0.48156114  1
  H+  H178  1  0.85779338  0.72668907  0.69311760  1
  H+  H179  1  0.15833159  0.57944108  0.23607818  1
  H+  H180  1  0.38663676  0.77793747  0.98343291  1
  H+  H181  1  0.40489672  0.35847717  0.17648844  1
  H+  H182  1  0.38838536  0.53199244  0.16324498  1
  H+  H183  1  0.48588207  0.12519815  0.50347624  1
  H+  H184  1  0.20123781  0.83133352  0.51506123  1
  H+  H185  1  0.41028943  0.51747268  0.31920459  1
  H+  H186  1  0.61857825  0.14084261  0.48479529  1
  H+  H187  1  -0.04186474  0.84148628  0.67088503  1
  H+  H188  1  0.76149723  0.12217659  0.14429779  1
  H+  H189  1  0.40633581  0.87829661  0.64961649  1
  H+  H190  1  0.60038028  0.38943028  0.33958199  1
  H+  H191  1  0.51344858  0.13819126  0.33389583  1
  H+  H192  1  0.64310033  0.52759142  0.99378743  1
  H+  H193  1  0.10280869  0.62011025  0.51108517  1
  H+  H194  1  0.27373958  0.87515328  0.16387325  1
  H+  H195  1  0.86893005  0.25620687  0.15398262  1
  H+  H196  1  0.77593628  0.34251408  0.38964093  1
  H+  H197  1  0.13153516  0.02612317  0.50751622  1
  H+  H198  1  0.25768301  0.14183972  0.81441146  1
  H+  H199  1  0.39491094  0.13398443  0.65361891  1
  H+  H200  1  0.87638153  0.14674011  0.84422183  1
  H+  H201  1  0.62744648  1.01463218  0.16328375  1
  H+  H202  1  0.70027156  0.35505970  0.31788199  1
  H+  H203  1  0.11499218  0.74717981  0.53119539  1
  H+  H204  1  0.36078386  0.64472376  0.67335912  1
  H+  H205  1  0.64179602  0.89619316  0.33049003  1
  H+  H206  1  0.12621514  0.62168661  0.83864895  1
  H+  H207  1  0.02868000  0.39035195  0.33878885  1
  H+  H208  1  0.24955008  0.88449031  0.82847328  1
  H+  H209  1  0.37468463  0.04241888  0.31560274  1
  H+  H210  1  0.33731045  0.16883448  0.06478639  1
  H+  H211  1  0.36216434  0.13827685  0.48598063  1
  H+  H212  1  0.63057523  0.61765556  0.50524278  1
  H+  H213  1  0.79797813  0.38735905  0.05334179  1
  H+  H214  1  0.88041676  0.89794451  0.85207519  1
  H+  H215  1  0.62944398  0.86045875  0.83191663  1
  H+  H216  1  0.76741291  0.12233850  -0.00514378  1
  H+  H217  1  0.63683270  0.51889827  0.67218050  1
  H+  H218  1  0.10194163  0.88004302  0.50046103  1
  H+  H219  1  0.17493933  0.58020460  0.56276445  1
  H+  H220  1  0.38247826  0.61595957  0.17263351  1
  H+  H221  1  0.63789859  0.77904343  0.50151307  1
  H+  H222  1  0.76382058  0.53466744  0.12695136  1
  H+  H223  1  0.23625891  0.41808787  0.53173059  1
  H+  H224  1  0.84814706  0.36379617  0.13559031  1
  H+  H225  1  0.77294438  0.63799713  0.70343390  1
  H+  H226  1  0.76712839  0.63645238  0.49901518  1
  H+  H227  1  0.04053132  0.90091748  0.84910312  1
  H+  H228  1  0.97025671  0.86459072  0.33128812  1
  H+  H229  1  -0.03473509  0.65251953  0.83908878  1
  H+  H230  1  0.90899789  0.78236160  0.87438690  1
  H+  H231  1  0.14456018  0.77443155  0.67535178  1
  H+  H232  1  0.03189475  0.89164692  -0.00469134  1
  H+  H233  1  0.08369067  0.71122883  0.30369525  1
  H+  H234  1  0.89104883  0.01324741  0.32949486  1
  H+  H235  1  0.63381719  0.77222507  0.16397685  1
  H+  H236  1  0.37685394  0.25309387  0.66969056  1
  H+  H237  1  0.14814256  0.03699692  0.82724442  1
  H+  H238  1  0.63212459  0.15234071  -0.00066752  1
  H+  H239  1  0.12849005  0.60932261  -0.00443779  1
  H+  H240  1  0.74275806  0.61937839  0.84945142  1
  H+  H241  1  0.87277494  0.26768075  0.87486878  1
  H+  H242  1  0.88594911  0.85866830  0.16750593  1
  H+  H243  1  0.63436028  0.39862751  0.00843082  1
  H+  H244  1  0.60879659  0.88399106  0.99864040  1
  H+  H245  1  0.13319349  0.49061348  0.01023147  1
  H+  H246  1  0.37002540  0.72737728  0.48700792  1
  H+  H247  1  0.51501497  0.64861811  0.33706796  1
  H+  H248  1  0.27822646  0.30839831  0.20701107  1
  H+  H249  1  0.38737803  0.27619400  0.32567947  1
  H+  H250  1  0.62382691  0.39098658  0.15290387  1
  H+  H251  1  0.86179243  0.88329502  0.34144288  1
  H+  H252  1  0.35454232  0.39691146  0.67643344  1
  H+  H253  1  0.63757972  0.26993962  0.15918068  1
  H+  H254  1  0.36982327  0.38656379  0.97488611  1
  H+  H255  1  0.36203144  0.38044784  0.33130560  1
  H+  H256  1  0.42133283  0.71474188  0.04662746  1
  H+  H257  1  0.01570732  0.88360305  0.49986923  1
  H+  H258  1  0.63894144  0.61538421  0.99281522  1
  H+  H259  1  0.86835636  0.51931382  0.34839364  1
  H+  H260  1  0.19480448  0.35373995  0.18589925  1
  H+  H261  1  0.76801285  0.87602493  0.14215636  1
  H+  H262  1  0.37813260  0.86850131  0.16593793  1
  H+  H263  1  0.51196592  0.88304292  0.15209548  1
  H+  H264  1  0.64070078  0.01663523  0.48181980  1
  H+  H265  1  0.13913707  0.11827779  0.34433119  1
  H+  H266  1  0.40720438  0.87150244  0.49696202  1
  H+  H267  1  0.90669826  0.03823344  0.84516131  1
  H+  H268  1  0.13666893  0.82119470  0.25309950  1
  H+  H269  1  0.88019400  0.61093138  0.68069542  1
  H+  H270  1  0.89224118  0.11746515  0.50383156  1
  H+  H271  1  0.97941794  0.12551063  0.66185645  1
  H+  H272  1  0.48780477  0.86397396  0.65281107  1
  H+  H273  1  0.58223865  0.90799613  0.76926536  1
  H+  H274  1  0.57582262  0.67574557  0.43775576  1
  H+  H275  1  0.85653616  0.38493165  0.67938219  1
  H+  H276  1  0.58078469  0.42027798  0.40335125  1
  H+  H277  1  0.84512764  0.33876937  0.96871718  1
  H+  H278  1  0.39207787  0.99883709  0.48691276  1
  H+  H279  1  0.74224189  0.12279856  0.31879683  1
  H+  H280  1  0.09332254  0.62022524  0.30998495  1
  H+  H281  1  0.61266322  0.63882384  0.15444491  1
  H+  H282  1  0.32047635  0.39463566  0.24145653  1
  H+  H283  1  0.57627292  0.91115923  0.05848891  1
  H+  H284  1  0.12292659  0.24221499  0.50790881  1
  H+  H285  1  0.63964030  -0.00764150  0.33451296  1
  H+  H286  1  0.86511737  0.47868054  0.52462033  1
  H+  H287  1  0.71950370  0.37286081  0.67592580  1
  H+  H288  1  0.88306258  0.58164251  0.17059408  1
  H+  H289  1  0.90854187  0.32283584  0.20852178  1
  H+  H290  1  0.44317927  0.10178088  0.93816939  1
  H+  H291  1  0.43035063  0.82235866  0.25314402  1
  H+  H292  1  0.33080513  0.67362247  0.76263578  1
  H+  H293  1  0.42004507  0.58951259  0.56653185  1
  H+  H294  1  0.91643601  0.09468839  0.60473765  1
  H+  H295  1  0.84891667  0.17352961  0.38911523  1
  H+  H296  1  0.93783491  0.09632435  0.90376657  1
  H+  H297  1  0.59399441  0.42240515  0.06418623  1
  H+  H298  1  0.13076722  0.13908451  -0.00234115  1
  H+  H299  1  0.47186194  0.86759514  0.98527901  1
  H+  H300  1  0.41341822  0.83635587  0.89178213  1
  H+  H301  1  0.66524074  0.82979460  0.92489714  1
  H+  H302  1  0.11962406  0.76509424  0.17000242  1
  H+  H303  1  0.14749990  0.32963406  0.27252195  1
  H+  H304  1  0.90162878  0.58139065  0.58752857  1
  H+  H305  1  0.66848523  0.83504332  0.22145300  1
  H+  H306  1  0.16679877  0.34790490  0.59792999  1
  H+  H307  1  0.95931488  0.07264089  0.27899914  1
  H+  H308  1  0.43562385  0.33119979  0.23417491  1
  H+  H309  1  0.16871782  0.82763680  0.61305916  1
  H+  H310  1  0.32081058  0.47455245  0.08093662  1
  H+  H311  1  0.14131507  0.03797378  0.99950840  1
  H+  H312  1  0.33478128  0.17333495  0.39613560  1
  H+  H313  1  0.27006471  0.64327937  0.82239618  1
  H+  H314  1  0.65685593  0.58701269  0.56624261  1
  H+  H315  1  0.23574123  0.36916245  0.83706081  1
  H+  H316  1  0.83735106  0.90514495  0.04841810  1
  H+  H317  1  0.65880420  0.34308865  0.61808304  1
  H+  H318  1  0.68918833  0.09008936  0.63763691  1
  H+  H319  1  0.28180165  0.63696668  0.49025258  1
  H+  H320  1  0.08446739  0.41166530  0.44058394  1
  H+  H321  1  0.39932806  0.07342531  0.21850780  1
  H+  H322  1  0.32080007  0.66861663  0.39274320  1
  H+  H323  1  0.86106209  0.67378201  0.79136254  1
  H+  H324  1  0.63931019  0.27806059  0.51437825  1
  H+  H325  1  0.91085574  0.32252738  0.60616137  1
  H+  H326  1  0.05978458  0.87585656  0.74983107  1
  H+  H327  1  0.07599948  0.91066933  0.40359954  1
  H+  H328  1  0.58079756  0.66696199  0.05763982  1
  H+  H329  1  0.08570033  0.43494469  0.72460093  1
  H+  H330  1  0.28017093  0.28233738  0.45098951  1
  H+  H331  1  0.84673883  0.42731743  0.46362270  1
  H+  H332  1  0.17669508  0.10866268  0.59346825  1
  H+  H333  1  0.06795414  0.68051025  0.77288416  1
  H+  H334  1  0.66313609  0.33210986  0.21818262  1
  H+  H335  1  0.31486236  0.89472329  0.08060645  1
  H+  H336  1  0.43734734  0.95567551  0.40081219  1
  H+  H337  1  0.35361285  0.46021844  0.08330901  1
  H+  H338  1  0.09084937  0.69499422  0.41653230  1
  H+  H339  1  0.42297157  0.35893579  0.60969082  1
  H+  H340  1  0.52311038  0.63505634  -0.00350307  1
  H+  H341  1  0.90914297  0.82740871  0.57234043  1
  H+  H342  1  0.47887952  0.36671745  0.83852800  1
  H+  H343  1  0.58046997  0.42727780  0.74812153  1
  H+  H344  1  0.41843477  0.59145792  0.92148472  1
  H+  H345  1  0.82720668  0.66907503  0.40334596  1
  H+  H346  1  0.87665971  0.85668830  0.66274963  1
  H+  H347  1  0.32882083  0.41880632  0.76760400  1
  H+  H348  1  0.57785453  0.15054922  0.74868221  1
  H+  H349  1  0.14655627  0.32953183  0.91281907  1
  H+  H350  1  0.47678071  0.12144885  0.65890444  1
  H+  H351  1  0.66776582  0.07705914  0.22132196  1
  H+  H352  1  0.61674580  0.63441684  0.82750574  1
  H+  H353  1  0.73240022  0.86453913  0.32562008  1
  H+  H354  1  0.10263106  0.14279484  0.16623461  1
  H+  H355  1  0.89509677  1.02085038  -0.00948790  1
  H+  H356  1  0.63004451  0.95995373  0.68277426  1
  H+  H357  1  0.58355387  0.17247322  0.43082123  1
  H+  H358  1  0.53890234  0.07712967  0.36097647  1
  H+  H359  1  0.87441575  0.14564274  0.68847616  1
  H+  H360  1  0.13440430  0.69886856  0.41597991  1
  H+  H361  1  0.05751947  0.30021633  0.94398315  1
  H+  H362  1  0.97273525  0.61987089  0.67811551  1
  H+  H363  1  0.83316248  0.41400726  0.77852353  1
  H+  H364  1  0.71870288  0.55523705  0.63159873  1
  H+  H365  1  0.66919157  0.59260707  0.26986810  1
  H+  H366  1  0.08685696  0.18030706  0.76017595  1
  H+  H367  1  0.91571771  0.83845062  0.23049013  1
  H+  H368  1  0.34899841  0.92731165  0.75598673  1
  H+  H369  1  0.07823008  0.91600463  0.09826293  1
  H+  H370  1  0.42822121  0.33144779  0.92931755  1
  H+  H371  1  0.11710985  0.48770779  0.81807600  1
  H+  H372  1  0.10052677  0.43173265  0.09653923  1
  H+  H373  1  0.31864854  0.39478708  0.38809308  1
  H+  H374  1  0.65020031  0.11832330  0.31873288  1
  H+  H375  1  0.89977674  0.57927365  0.93113940  1
  H+  H376  1  0.11152048  0.24948221  0.66997280  1
  H+  H377  1  0.68000177  0.34540928  0.90609797  1
  H+  H378  1  0.12946207  0.90417792  0.83501048  1
  H+  H379  1  0.66456435  0.07979013  0.93089690  1
  H+  H380  1  0.87166446  0.05737199  0.21773068  1
  H+  H381  1  0.58241041  0.67245397  0.73595783  1
  H+  H382  1  0.89028767  0.10868119  0.99249681  1
  H+  H383  1  0.13652112  0.11885227  0.50612490  1
  O2-  O384  1  0.06970562  0.17495168  0.16324567  1
  O2-  O385  1  0.09130594  0.18244600  0.49266849  1
  O2-  O386  1  0.09330866  0.17764093  0.80547400  1
  O2-  O387  1  0.08873726  0.42886635  0.14420689  1
  O2-  O388  1  0.08440454  0.40984906  0.48571380  1
  O2-  O389  1  0.09217495  0.43052445  0.79847215  1
  O2-  O390  1  0.07877169  0.65598699  0.15015428  1
  O2-  O391  1  0.07087182  0.64154172  0.53546960  1
  O2-  O392  1  0.06808578  0.67836003  0.82132453  1
  O2-  O393  1  0.08111665  0.91664613  0.14335548  1
  O2-  O394  1  0.07622315  0.91325615  0.48384130  1
  O2-  O395  1  0.09140882  0.92724254  0.82207949  1
  O2-  O396  1  0.32695679  0.16213570  0.13982494  1
  O2-  O397  1  0.32918786  0.16364712  0.46856626  1
  O2-  O398  1  0.32829263  0.17916538  0.79913198  1
  O2-  O399  1  0.30424021  0.37029261  0.20049538  1
  O2-  O400  1  0.29856495  0.34276640  0.45772671  1
  O2-  O401  1  0.33482554  0.41697045  0.81300542  1
  O2-  O402  1  0.32376340  0.65825326  0.14945507  1
  O2-  O403  1  0.34015220  0.66751986  0.47142816  1
  O2-  O404  1  0.33124346  0.67143546  0.80912184  1
  O2-  O405  1  0.33160559  0.90541108  0.14627941  1
  O2-  O406  1  0.37586029  0.94245670  0.46470897  1
  O2-  O407  1  0.34549714  0.92522719  0.80133084  1
  O2-  O408  1  0.59777445  0.17950400  0.13669631  1
  O2-  O409  1  0.59040000  0.17525209  0.47590528  1
  O2-  O410  1  0.60139928  0.18272559  0.81691175  1
  O2-  O411  1  0.59464189  0.42435938  0.14058353  1
  O2-  O412  1  0.58828082  0.42152780  0.48052406  1
  O2-  O413  1  0.58646494  0.42374970  0.82458184  1
  O2-  O414  1  0.58390556  0.66967611  0.13645882  1
  O2-  O415  1  0.58360104  0.67156379  0.48196936  1
  O2-  O416  1  0.58150822  0.65872866  0.81109400  1
  O2-  O417  1  0.57357326  0.91313072  0.13572476  1
  O2-  O418  1  0.59447046  0.91634187  0.46202247  1
  O2-  O419  1  0.58306515  0.91532598  0.81414812  1
  O2-  O420  1  0.82281662  0.15104447  0.13009742  1
  O2-  O421  1  0.84391630  0.17078195  0.46588692  1
  O2-  O422  1  0.84303038  0.17571882  0.83284631  1
  O2-  O423  1  0.81948030  0.39653829  0.11932086  1
  O2-  O424  1  0.84101736  0.41796651  0.50757776  1
  O2-  O425  1  0.82872559  0.41769462  0.82337190  1
  O2-  O426  1  0.79940804  0.59507980  0.13775384  1
  O2-  O427  1  0.82824410  0.66555264  0.48493364  1
  O2-  O428  1  0.86683287  0.67775442  0.83708203  1
  O2-  O429  1  0.82786296  0.90428377  0.12603766  1
  O2-  O430  1  0.83837464  0.92088726  0.47899920  1
  O2-  O431  1  0.84870104  0.92696274  0.83837668  1
  O2-  O432  1  0.15585665  0.09339345  0.17115915  1
  O2-  O433  1  0.16644956  0.08747652  0.51993646  1
  O2-  O434  1  0.18085815  0.10057596  0.83409098  1
  O2-  O435  1  0.13329832  0.32902381  0.19572299  1
  O2-  O436  1  0.18771613  0.36042501  0.52461179  1
  O2-  O437  1  0.17240909  0.33991427  0.84677348  1
  O2-  O438  1  0.16011928  0.57910959  0.19034684  1
  O2-  O439  1  0.17793632  0.57698093  0.51832563  1
  O2-  O440  1  0.16139005  0.59483809  0.84952676  1
  O2-  O441  1  0.14774579  0.82452844  0.18687677  1
  O2-  O442  1  0.14489104  0.81220813  0.53263797  1
  O2-  O443  1  0.19466037  0.86372420  0.85317305  1
  O2-  O444  1  0.38406304  0.06412798  0.17549677  1
  O2-  O445  1  0.42428787  0.09006991  0.51571281  1
  O2-  O446  1  0.43293761  0.08878200  0.86143989  1
  O2-  O447  1  0.43739269  0.33026238  0.18837255  1
  O2-  O448  1  0.42873916  0.35921430  0.53897928  1
  O2-  O449  1  0.41666199  0.33233475  0.85015139  1
  O2-  O450  1  0.41854496  0.58867068  0.18203725  1
  O2-  O451  1  0.42651177  0.58941676  0.52164153  1
  O2-  O452  1  0.41149991  0.58547600  0.84614621  1
  O2-  O453  1  0.41696073  0.83874528  0.17984306  1
  O2-  O454  1  0.43493473  0.83855835  0.51035027  1
  O2-  O455  1  0.41761142  0.83580487  0.84629864  1
  O2-  O456  1  0.66389405  0.07618798  0.17655796  1
  O2-  O457  1  0.66964293  0.07876133  0.49626890  1
  O2-  O458  1  0.67221075  0.08643977  0.85464376  1
  O2-  O459  1  0.66741645  0.33385103  0.17347287  1
  O2-  O460  1  0.66586280  0.33709512  0.53128718  1
  O2-  O461  1  0.67184365  0.34367135  0.86147877  1
  O2-  O462  1  0.65904487  0.58723080  0.18786835  1
  O2-  O463  1  0.66060447  0.58674379  0.52148815  1
  O2-  O464  1  0.68085335  0.59349207  0.85858723  1
  O2-  O465  1  0.66467218  0.83419675  0.17662774  1
  O2-  O466  1  0.66667229  0.84220675  0.50973836  1
  O2-  O467  1  0.66146668  0.82861945  0.84154937  1
  O2-  O468  1  0.89137041  0.06562041  0.17565344  1
  O2-  O469  1  0.91990066  0.08803235  0.52424777  1
  O2-  O470  1  0.93675625  0.09973842  0.85828563  1
  O2-  O471  1  0.89548263  0.31801995  0.16492464  1
  O2-  O472  1  0.92111686  0.32241746  0.52554730  1
  O2-  O473  1  0.89334423  0.32663942  0.89206499  1
  O2-  O474  1  0.91970437  0.55675499  0.18165143  1
  O2-  O475  1  0.90117422  0.57712523  0.54147489  1
  O2-  O476  1  0.90295187  0.62232787  0.85327702  1
  O2-  O477  1  0.92132574  0.83663202  0.18592524  1
  O2-  O478  1  0.91240870  0.83156956  0.52679640  1
  O2-  O479  1  0.93325358  0.84412376  0.88593160  1
  O2-  O480  1  0.17062575  0.09062169  0.32820976  1
  O2-  O481  1  0.18219892  0.12016373  0.63884845  1
  O2-  O482  1  0.17108726  0.09969640  0.98800135  1
  O2-  O483  1  0.15811272  0.33270227  0.31747181  1
  O2-  O484  1  0.16128539  0.34720804  0.64416240  1
  O2-  O485  1  0.11609092  0.31545617  0.95495020  1
  O2-  O486  1  0.15185128  0.58419057  0.31251604  1
  O2-  O487  1  0.11371236  0.59223231  0.63628514  1
  O2-  O488  1  0.16587563  0.58749811  0.97708661  1
  O2-  O489  1  0.13069628  0.81296178  0.30085542  1
  O2-  O490  1  0.18219238  0.83410697  0.65704821  1
  O2-  O491  1  0.14908000  0.80836462  0.99873672  1
  O2-  O492  1  0.41362595  0.10288314  0.30656442  1
  O2-  O493  1  0.42085969  0.09934776  0.63820766  1
  O2-  O494  1  0.45443389  0.11386170  0.98263235  1
  O2-  O495  1  0.41869199  0.33662107  0.30853603  1
  O2-  O496  1  0.41578237  0.35290144  0.65580599  1
  O2-  O497  1  0.42785219  0.33525949  0.97460961  1
  O2-  O498  1  0.45989721  0.56582527  0.29892182  1
  O2-  O499  1  0.41163356  0.58989179  0.64663771  1
  O2-  O500  1  0.41907345  0.58539763  0.96706071  1
  O2-  O501  1  0.43900848  0.80480867  0.29487716  1
  O2-  O502  1  0.43127440  0.84348138  0.63345327  1
  O2-  O503  1  0.41171355  0.83776501  0.96917564  1
  O2-  O504  1  0.68049167  0.08771749  0.30584350  1
  O2-  O505  1  0.67556198  0.07243337  0.67983331  1
  O2-  O506  1  0.66620188  0.08062007  0.97653244  1
  O2-  O507  1  0.64235582  0.32642724  0.29995383  1
  O2-  O508  1  0.65867403  0.34846954  0.66261236  1
  O2-  O509  1  0.70137037  0.35041893  0.98900170  1
  O2-  O510  1  0.67494487  0.59526918  0.31482902  1
  O2-  O511  1  0.68064585  0.57326966  0.64964497  1
  O2-  O512  1  0.67272103  0.58828419  0.97874654  1
  O2-  O513  1  0.67343552  0.84283917  0.30771405  1
  O2-  O514  1  0.64685760  0.86215015  0.66970637  1
  O2-  O515  1  0.66868412  0.83275435  0.96982599  1
  O2-  O516  1  0.92503939  0.07442097  0.31280082  1
  O2-  O517  1  0.91731244  0.09415395  0.65009287  1
  O2-  O518  1  0.92728377  0.08367737  0.98048246  1
  O2-  O519  1  0.93112740  0.33295185  0.29556961  1
  O2-  O520  1  0.90922418  0.33112589  0.65071873  1
  O2-  O521  1  0.88179403  0.31321331  0.95788914  1
  O2-  O522  1  0.90109272  0.57649578  0.33093448  1
  O2-  O523  1  0.91055649  0.58334292  0.66182230  1
  O2-  O524  1  0.90248758  0.56645183  0.97461368  1
  O2-  O525  1  0.91001607  0.83529271  0.31536037  1
  O2-  O526  1  0.90086226  0.81904201  0.65104637  1
  O2-  O527  1  0.93105831  0.83980809  0.95289189  1
  O2-  O528  1  0.09095016  0.17328274  0.00662680  1
  O2-  O529  1  0.08623804  0.17697570  0.37104973  1
  O2-  O530  1  0.08489221  0.18776650  0.68469627  1
  O2-  O531  1  0.11293078  0.43549728  0.03278834  1
  O2-  O532  1  0.08567527  0.42332105  0.35869528  1
  O2-  O533  1  0.07961312  0.43450520  0.67870465  1
  O2-  O534  1  0.06702805  0.64161067  0.02621493  1
  O2-  O535  1  0.05406436  0.64593691  0.29939732  1
  O2-  O536  1  0.06188717  0.68972931  0.70666889  1
  O2-  O537  1  0.08776314  0.92098687  0.01674033  1
  O2-  O538  1  0.07422047  0.91468487  0.35839584  1
  O2-  O539  1  0.04370883  0.84451510  0.71046358  1
  O2-  O540  1  0.33666551  0.16889621  0.01884736  1
  O2-  O541  1  0.33430803  0.17785972  0.35007379  1
  O2-  O542  1  0.34696247  0.18930080  0.68064790  1
  O2-  O543  1  0.33508394  0.41512209  -0.03301326  1
  O2-  O544  1  0.32792916  0.40887774  0.34357215  1
  O2-  O545  1  0.32368900  0.42661718  0.69192790  1
  O2-  O546  1  0.36734537  0.67769817  0.02560346  1
  O2-  O547  1  0.30691429  0.66575404  0.34874980  1
  O2-  O548  1  0.33397805  0.67703776  0.69053879  1
  O2-  O549  1  0.30064540  0.88693290  0.03345312  1
  O2-  O550  1  0.47422281  0.96911312  0.36388305  1
  O2-  O551  1  0.35104401  0.92872774  0.67719800  1
  O2-  O552  1  0.61176145  0.19199984  0.01311015  1
  O2-  O553  1  0.56566692  0.14071430  0.35321900  1
  O2-  O554  1  0.55738725  0.11333754  0.71034170  1
  O2-  O555  1  0.59687956  0.42264760  0.01845156  1
  O2-  O556  1  0.57558397  0.42227919  0.35796989  1
  O2-  O557  1  0.57732673  0.42730187  0.70251130  1
  O2-  O558  1  0.58340500  0.66794190  0.01213318  1
  O2-  O559  1  0.54931030  0.70385876  0.36221260  1
  O2-  O560  1  0.58049316  0.68653077  0.69178307  1
  O2-  O561  1  0.57640739  0.91227088  0.01272628  1
  O2-  O562  1  0.61290402  0.93055368  0.34929954  1
  O2-  O563  1  0.59272117  0.89698767  0.69149852  1
  O2-  O564  1  0.82991128  0.15434853  0.00766364  1
  O2-  O565  1  0.84678818  0.17192451  0.34324700  1
  O2-  O566  1  0.84817277  0.17700719  0.70933204  1
  O2-  O567  1  0.79321575  0.38737877  0.00491604  1
  O2-  O568  1  0.78027760  0.39821320  0.38229501  1
  O2-  O569  1  0.82806285  0.41469635  0.69815906  1
  O2-  O570  1  0.83523936  0.66004198  0.03047593  1
  O2-  O571  1  0.83110135  0.67002872  0.35820347  1
  O2-  O572  1  0.83387059  0.67074986  0.71588373  1
  O2-  O573  1  0.83982221  0.91049527  0.00278183  1
  O2-  O574  1  0.83261525  0.91657349  0.35544570  1
  O2-  O575  1  0.82908373  0.91736549  0.67588236  1
