# generated using pymatgen
data_H2O
_symmetry_space_group_name_H-M   'P 1'
_cell_length_a   17.95746551
_cell_length_b   17.97376319
_cell_length_c   22.01383617
_cell_angle_alpha   89.99799600
_cell_angle_beta   89.96249066
_cell_angle_gamma   120.01540535
_symmetry_Int_Tables_number   1
_chemical_formula_structural   H2O
_chemical_formula_sum   'H384 O192'
_cell_volume   6152.37570529
_cell_formula_units_Z   192
loop_
 _symmetry_equiv_pos_site_id
 _symmetry_equiv_pos_as_xyz
  1  'x, y, z'
loop_
 _atom_type_symbol
 _atom_type_oxidation_number
  H+  1.0
  O2-  -2.0
loop_
 _atom_site_type_symbol
 _atom_site_label
 _atom_site_symmetry_multiplicity
 _atom_site_fract_x
 _atom_site_fract_y
 _atom_site_fract_z
 _atom_site_occupancy
  H+  H0  1  0.06355206  0.41957765  0.81795400  1
  H+  H1  1  0.50290374  0.52945669  0.26165529  1
  H+  H2  1  0.53064543  0.36360367  0.82884117  1
  H+  H3  1  0.40443325  0.10619489  0.97794925  1
  H+  H4  1  0.78282542  0.38074536  0.34390744  1
  H+  H5  1  0.89685118  0.16743355  0.81382353  1
  H+  H6  1  0.62837750  0.00863090  0.16277074  1
  H+  H7  1  1.01711554  0.37390784  0.67363531  1
  H+  H8  1  0.32551928  0.71928329  0.82567534  1
  H+  H9  1  0.87893629  0.87393857  0.84986856  1
  H+  H10  1  0.02649780  0.13695235  0.81501083  1
  H+  H11  1  0.90351269  0.40745709  0.83010030  1
  H+  H12  1  0.25528364  0.63910295  0.15858055  1
  H+  H13  1  0.78109884  0.39376747  0.16841423  1
  H+  H14  1  0.39964537  0.81535519  0.51331265  1
  H+  H15  1  -0.02158173  0.61194278  0.32888886  1
  H+  H16  1  0.18817981  0.59392113  0.99321863  1
  H+  H17  1  0.79051135  0.39369020  0.68311706  1
  H+  H18  1  0.96201161  0.85501849  0.17256774  1
  H+  H19  1  0.39203074  0.37700153  0.51256634  1
  H+  H20  1  0.33133207  0.39825406  0.76919945  1
  H+  H21  1  0.60062977  0.86597893  0.33526272  1
  H+  H22  1  0.60885522  0.12136594  0.32866505  1
  H+  H23  1  0.53797504  0.85414313  0.49172144  1
  H+  H24  1  0.63169281  0.86345153  0.66093698  1
  H+  H25  1  0.38113397  0.51807408  0.67517224  1
  H+  H26  1  0.15524029  0.15039333  0.99749248  1
  H+  H27  1  0.80722625  0.51298003  0.43369068  1
  H+  H28  1  0.64063544  0.25191664  0.66784569  1
  H+  H29  1  0.27522691  0.89447813  0.34084111  1
  H+  H30  1  0.85973998  0.20441293  -0.00639538  1
  H+  H31  1  0.36850358  -0.02754487  1.00183606  1
  H+  H32  1  0.77122786  0.11931479  0.32825859  1
  H+  H33  1  0.61066115  0.61951099  0.35224942  1
  H+  H34  1  0.62341753  0.76717383  0.15675074  1
  H+  H35  1  0.39059788  0.26358949  0.85656664  1
  H+  H36  1  0.84492815  0.43625165  0.11056746  1
  H+  H37  1  0.08447288  0.15925123  0.75290922  1
  H+  H38  1  0.85832044  0.97994871  0.66088829  1
  H+  H39  1  0.02194268  0.65638710  0.16607875  1
  H+  H40  1  0.10283707  0.99903597  0.67611338  1
  H+  H41  1  0.52565117  0.38772250  0.33635569  1
  H+  H42  1  0.16132767  0.31805362  0.89056208  1
  H+  H43  1  0.37005766  0.76858518  0.16012662  1
  H+  H44  1  0.72342207  0.09523618  0.98590574  1
  H+  H45  1  0.78379877  0.88214380  0.50049013  1
  H+  H46  1  0.14468645  0.25900854  0.51030309  1
  H+  H47  1  0.60290216  0.38052463  0.49332272  1
  H+  H48  1  0.81022741  0.39567710  0.01922226  1
  H+  H49  1  0.99408775  0.62082249  0.52374484  1
  H+  H50  1  0.75435669  0.38094856  0.84324208  1
  H+  H51  1  0.11274953  0.47052846  0.16085231  1
  H+  H52  1  0.35868795  0.36653982  0.83120129  1
  H+  H53  1  0.13115236  0.61792427  0.33194417  1
  H+  H54  1  0.07326417  0.91955936  0.76375952  1
  H+  H55  1  0.56847501  0.37810951  0.00315668  1
  H+  H56  1  0.38379322  0.03121323  0.32362570  1
  H+  H57  1  0.98471719  0.10872097  0.15047504  1
  H+  H58  1  0.35054404  0.15642787  0.49320238  1
  H+  H59  1  0.03226467  0.39714198  0.49288515  1
  H+  H60  1  0.37418246  0.92952539  0.49945964  1
  H+  H61  1  0.82345983  0.93409811  0.90453422  1
  H+  H62  1  0.59683866  0.87300429  0.99989975  1
  H+  H63  1  0.57442955  0.05581819  0.51043179  1
  H+  H64  1  0.10609548  -0.02288255  0.82275075  1
  H+  H65  1  0.37613449  0.53186126  -0.01094055  1
  H+  H66  1  0.23394395  0.85295468  0.83658174  1
  H+  H67  1  0.64714516  0.26124566  0.17364242  1
  H+  H68  1  0.10936068  0.89660710  0.16302926  1
  H+  H69  1  0.11292769  0.39220665  0.33221306  1
  H+  H70  1  0.11203486  0.73849208  1.00559244  1
  H+  H71  1  0.92630254  0.84196716  0.60248351  1
  H+  H72  1  0.13925492  0.87174212  0.32899573  1
  H+  H73  1  0.26124554  0.67258616  0.48965631  1
  H+  H74  1  0.17088815  0.84562536  0.26904942  1
  H+  H75  1  0.83050165  0.16761237  0.42822733  1
  H+  H76  1  0.63395559  0.75081322  0.35038182  1
  H+  H77  1  0.75691235  0.89285072  0.85246940  1
  H+  H78  1  0.63912568  0.52642960  0.99140426  1
  H+  H79  1  0.51308675  0.13287031  0.48656554  1
  H+  H80  1  0.76927198  0.88450389  0.14201869  1
  H+  H81  1  0.88056458  0.17554733  0.65614643  1
  H+  H82  1  0.36019743  -0.01277311  0.84163944  1
  H+  H83  1  0.59625979  0.62585425  0.00213267  1
  H+  H84  1  0.10172375  0.97123620  -0.00005282  1
  H+  H85  1  0.60552755  0.63509321  0.15918221  1
  H+  H86  1  -0.02804407  0.11909821  0.65051626  1
  H+  H87  1  0.91420411  0.44165952  0.03349288  1
  H+  H88  1  0.11017805  0.13832418  0.33340415  1
  H+  H89  1  0.71199376  0.85086709  0.99006126  1
  H+  H90  1  0.12536981  0.23024109  0.15117787  1
  H+  H91  1  0.09931065  0.13401650  0.49014297  1
  H+  H92  1  0.20843310  0.37279736  0.96814015  1
  H+  H93  1  0.67292713  0.27196699  0.99682982  1
  H+  H94  1  0.37451691  0.86546450  0.15573107  1
  H+  H95  1  0.57680805  0.94888565  0.83280104  1
  H+  H96  1  0.89211694  0.53478574  0.17799071  1
  H+  H97  1  0.22362624  0.27058402  0.54719211  1
  H+  H98  1  0.04714394  0.60101297  0.65612233  1
  H+  H99  1  0.89965404  0.87028826  0.50902816  1
  H+  H100  1  0.22468896  0.10899899  0.83287396  1
  H+  H101  1  0.08277995  0.96978112  0.16299227  1
  H+  H102  1  0.61313281  0.35068949  0.82340852  1
  H+  H103  1  0.35282004  0.39793844  0.34843795  1
  H+  H104  1  0.77781942  0.88140582  0.34880452  1
  H+  H105  1  0.90297339  1.02165040  -0.02002924  1
  H+  H106  1  0.88433865  1.02532996  0.50660291  1
  H+  H107  1  -0.01748760  0.62300969  0.82121075  1
  H+  H108  1  0.85488933  0.72227524  0.00264440  1
  H+  H109  1  0.11529890  0.73974359  0.33972813  1
  H+  H110  1  0.35004967  0.95342382  0.69833724  1
  H+  H111  1  0.26976619  0.75609080  0.46114773  1
  H+  H112  1  0.34365160  0.71512708  0.68005446  1
  H+  H113  1  0.89595210  0.27902738  0.50060445  1
  H+  H114  1  0.39003534  0.50757887  0.83756278  1
  H+  H115  1  0.64659408  0.53005370  0.17514036  1
  H+  H116  1  0.21809065  0.08661246  0.96855975  1
  H+  H117  1  0.60685906  0.97543633  0.68139953  1
  H+  H118  1  0.62864874  1.01177618  -0.01136295  1
  H+  H119  1  0.72859767  0.62146207  0.17297524  1
  H+  H120  1  0.36974778  0.30737988  1.04064556  1
  H+  H121  1  0.61027316  0.84995052  0.84362332  1
  H+  H122  1  0.77247659  0.88988392  0.66500874  1
  H+  H123  1  0.63515175  0.00969372  0.32178734  1
  H+  H124  1  0.27338267  0.25998639  1.01336506  1
  H+  H125  1  0.62046293  0.64579542  0.68093410  1
  H+  H126  1  0.15036794  0.79029626  0.52096940  1
  H+  H127  1  0.64406901  0.61595120  0.84360478  1
  H+  H128  1  0.38059992  0.05603153  0.51153636  1
  H+  H129  1  0.54538809  0.41271705  0.67865589  1
  H+  H130  1  0.13724974  0.11417717  0.82513253  1
  H+  H131  1  0.40834407  0.62552861  0.52593213  1
  H+  H132  1  0.37575861  0.53108619  0.33029220  1
  H+  H133  1  0.77962206  0.63350558  0.34709903  1
  H+  H134  1  0.88531036  0.35140175  0.32895650  1
  H+  H135  1  0.59454851  0.41528490  0.73918635  1
  H+  H136  1  0.02016811  0.90329494  0.67049435  1
  H+  H137  1  0.64650425  0.05780280  0.89117661  1
  H+  H138  1  0.12168249  0.35156147  0.17006110  1
  H+  H139  1  0.11586164  0.85895703  0.83985752  1
  H+  H140  1  0.49462375  0.10854426  0.98762405  1
  H+  H141  1  0.35733029  0.10961025  0.83640122  1
  H+  H142  1  0.13293386  0.52826843  0.32886088  1
  H+  H143  1  0.72687429  0.12186409  0.64581405  1
  H+  H144  1  0.52518210  0.63188019  0.82962176  1
  H+  H145  1  0.82798587  0.90991534  0.04974531  1
  H+  H146  1  0.50592835  0.10512130  0.81085471  1
  H+  H147  1  0.35312862  0.83467575  0.84146397  1
  H+  H148  1  -0.02950592  0.85576683  -0.00876071  1
  H+  H149  1  0.21786033  0.36435532  0.32625728  1
  H+  H150  1  0.47558582  0.11504910  0.32040723  1
  H+  H151  1  0.66967980  0.32040338  0.39911188  1
  H+  H152  1  0.33708786  0.14819667  -0.08379212  1
  H+  H153  1  0.46912510  0.86073707  0.15272431  1
  H+  H154  1  0.90693654  0.31855711  0.11549208  1
  H+  H155  1  0.13347834  0.35616353  0.66082048  1
  H+  H156  1  0.91256684  0.61134229  0.66773583  1
  H+  H157  1  0.37175054  0.85148553  0.98919235  1
  H+  H158  1  0.36198688  0.14880408  0.33748946  1
  H+  H159  1  0.38810497  0.87829146  0.33641430  1
  H+  H160  1  0.27207828  0.38004402  0.67937911  1
  H+  H161  1  0.89344594  0.03969226  0.83850722  1
  H+  H162  1  0.85213690  0.20245940  0.15421933  1
  H+  H163  1  0.75163538  0.62132602  0.52223170  1
  H+  H164  1  0.41025851  0.33625095  0.18247428  1
  H+  H165  1  0.62914711  0.86140165  0.48761107  1
  H+  H166  1  0.46246324  0.62057103  0.17280428  1
  H+  H167  1  0.88290787  0.73356033  0.67488020  1
  H+  H168  1  0.12025225  0.21474853  0.66396471  1
  H+  H169  1  0.42019174  0.30367487  0.67498367  1
  H+  H170  1  0.52621266  0.63711140  0.68164909  1
  H+  H171  1  0.62410517  0.13126118  0.00139140  1
  H+  H172  1  0.88780911  0.01481990  0.33503944  1
  H+  H173  1  0.91137378  0.09614440  0.59301197  1
  H+  H174  1  0.50653742  0.87279638  -0.00481257  1
  H+  H175  1  0.48243988  0.90814479  0.53756007  1
  H+  H176  1  0.88139355  0.10719628  0.32900869  1
  H+  H177  1  0.94894371  0.35459031  0.98656662  1
  H+  H178  1  0.85730147  0.51732863  0.98398156  1
  H+  H179  1  0.88766305  0.52464869  0.88779611  1
  H+  H180  1  0.12844944  1.03161158  0.51031269  1
  H+  H181  1  0.86045428  0.21067636  0.32952084  1
  H+  H182  1  0.01966950  0.38602824  0.15889832  1
  H+  H183  1  0.85479272  0.87316118  -0.00632922  1
  H+  H184  1  0.93040227  0.30224406  0.82182171  1
  H+  H185  1  0.21236932  0.12365810  0.50978392  1
  H+  H186  1  0.65433802  0.84283253  0.20557058  1
  H+  H187  1  0.13428210  0.25795599  0.82128038  1
  H+  H188  1  0.86120206  0.73834885  0.82710527  1
  H+  H189  1  0.14141362  0.15132613  0.15250795  1
  H+  H190  1  0.47442604  0.62241133  -0.00125851  1
  H+  H191  1  0.37900834  0.28468526  0.33225855  1
  H+  H192  1  0.47886099  0.86669371  0.33484850  1
  H+  H193  1  0.88584125  0.64946522  0.50220059  1
  H+  H194  1  0.39201982  0.81141883  0.93014712  1
  H+  H195  1  0.62604030  0.12930757  0.15732024  1
  H+  H196  1  0.27138221  0.89000116  0.00042631  1
  H+  H197  1  0.87318679  0.32568353  0.66886503  1
  H+  H198  1  0.86050013  0.64001342  0.15740614  1
  H+  H199  1  0.55185597  0.38781054  0.15289114  1
  H+  H200  1  0.62547519  0.76860311  0.84284378  1
  H+  H201  1  0.87380028  0.76661208  0.17191209  1
  H+  H202  1  0.34474907  0.63896634  0.16183445  1
  H+  H203  1  0.69238920  0.48163488  0.54470873  1
  H+  H204  1  0.89553536  1.02048003  0.15155676  1
  H+  H205  1  0.10562542  0.67338020  0.57645303  1
  H+  H206  1  0.28016909  0.16090816  0.18568131  1
  H+  H207  1  0.44406628  0.83281096  0.83486506  1
  H+  H208  1  0.37460845  0.28130642  0.51153834  1
  H+  H209  1  0.25596288  0.88097088  0.67965600  1
  H+  H210  1  0.65385097  0.59855872  0.52322627  1
  H+  H211  1  0.86978736  0.51733333  0.48549941  1
  H+  H212  1  0.52486954  0.57659825  0.25529954  1
  H+  H213  1  0.94687345  0.68534573  0.81544294  1
  H+  H214  1  0.63687351  0.38501720  0.16315866  1
  H+  H215  1  0.53812703  0.13077500  0.15936995  1
  H+  H216  1  0.68526790  0.36598683  -0.00504554  1
  H+  H217  1  0.73281337  0.61658685  0.84632177  1
  H+  H218  1  0.96832010  0.87362167  0.83635654  1
  H+  H219  1  0.13314772  0.79217561  0.17577245  1
  H+  H220  1  0.13759861  0.87118812  0.99230922  1
  H+  H221  1  0.93974194  0.10026581  0.89288970  1
  H+  H222  1  0.63308617  0.77509917  0.66424900  1
  H+  H223  1  0.13761232  0.39865830  0.80835726  1
  H+  H224  1  0.15158198  0.27240791  0.97372434  1
  H+  H225  1  0.43987290  0.23064412  0.21352572  1
  H+  H226  1  0.46223775  0.43647539  0.19868484  1
  H+  H227  1  0.65971302  0.38702133  0.67295124  1
  H+  H228  1  0.53537432  0.62320039  0.51449445  1
  H+  H229  1  0.07474004  0.54776768  0.19357877  1
  H+  H230  1  0.25022863  0.62820440  0.67364613  1
  H+  H231  1  0.67217753  0.79146870  0.28829915  1
  H+  H232  1  0.51399123  0.16158889  0.65162052  1
  H+  H233  1  0.05874224  0.48905771  1.00979696  1
  H+  H234  1  0.37020319  0.84464113  0.67232933  1
  H+  H235  1  0.34079848  0.49699857  0.14808001  1
  H+  H236  1  0.22480641  0.87668311  0.17108709  1
  H+  H237  1  0.36299738  0.17817238  0.78898121  1
  H+  H238  1  0.90236249  0.51689392  0.66816176  1
  H+  H239  1  0.76111109  0.63914181  0.00595186  1
  H+  H240  1  0.84587369  0.59404351  0.96408345  1
  H+  H241  1  0.63559215  0.35485174  0.34785660  1
  H+  H242  1  0.86775584  0.88384104  0.34285906  1
  H+  H243  1  0.85520429  0.42382274  0.73984961  1
  H+  H244  1  0.12314833  0.90398211  0.49224257  1
  H+  H245  1  1.02301302  0.88850578  0.33891100  1
  H+  H246  1  0.11501528  0.66502691  0.16430690  1
  H+  H247  1  0.36603587  0.97244020  0.15312260  1
  H+  H248  1  0.26614936  0.65158550  0.33742979  1
  H+  H249  1  0.37553403  0.62466808  -0.00072185  1
  H+  H250  1  0.17223701  0.57828335  0.55904131  1
  H+  H251  1  0.72487392  0.09054099  0.16506384  1
  H+  H252  1  0.91776597  0.59342011  0.23661768  1
  H+  H253  1  0.34254755  0.71652459  0.00166638  1
  H+  H254  1  0.27036947  0.14336423  0.33667234  1
  H+  H255  1  0.64266054  0.51800615  0.33096986  1
  H+  H256  1  0.21583985  0.36934685  0.16552496  1
  H+  H257  1  0.21606018  0.07075352  0.16017011  1
  H+  H258  1  0.85528932  0.14036313  0.48888221  1
  H+  H259  1  0.62792496  0.15511411  0.66359654  1
  H+  H260  1  0.41871731  0.58189206  0.58545810  1
  H+  H261  1  0.10710346  0.22696785  0.33247238  1
  H+  H262  1  0.13431796  0.89248345  0.66323497  1
  H+  H263  1  0.33404221  0.39565144  -0.00359613  1
  H+  H264  1  0.69471986  0.37851736  0.61029836  1
  H+  H265  1  0.27734564  0.90993685  0.49867309  1
  H+  H266  1  0.59046188  0.87427027  0.14085441  1
  H+  H267  1  0.89304415  0.51803813  0.32566021  1
  H+  H268  1  0.43667596  0.19860133  0.69989185  1
  H+  H269  1  0.51777491  0.88595517  0.67996335  1
  H+  H270  1  0.36225138  0.48470613  0.50265880  1
  H+  H271  1  0.85801492  0.31680975  0.95424353  1
  H+  H272  1  0.50591975  0.35839442  0.48655657  1
  H+  H273  1  0.96858020  0.11804956  0.50152368  1
  H+  H274  1  0.65195899  0.75799327  0.51621177  1
  H+  H275  1  0.89804951  0.10571984  0.98440098  1
  H+  H276  1  0.60046110  0.71812232  1.00424767  1
  H+  H277  1  0.37440420  0.58520467  0.84142030  1
  H+  H278  1  0.67231106  0.58333687  0.27441733  1
  H+  H279  1  0.39885881  0.10170016  0.17096314  1
  H+  H280  1  0.73832020  0.43616746  0.51275470  1
  H+  H281  1  0.61185846  0.21114914  0.34229207  1
  H+  H282  1  0.65588293  0.54342383  0.67957530  1
  H+  H283  1  0.23448651  0.34778622  0.82912177  1
  H+  H284  1  0.84658924  0.42915411  0.39599896  1
  H+  H285  1  0.37731697  0.77813152  0.33259912  1
  H+  H286  1  0.41718292  0.08468214  0.65364861  1
  H+  H287  1  0.38410129  0.62343203  0.33031590  1
  H+  H288  1  0.83100378  0.14795090  0.05503774  1
  H+  H289  1  0.52249379  0.62335101  0.35299313  1
  H+  H290  1  0.88823400  0.87033665  0.65806915  1
  H+  H291  1  0.68726262  0.59702323  0.61834686  1
  H+  H292  1  0.07736312  0.16948246  0.42940776  1
  H+  H293  1  0.33551466  0.93266726  0.40031169  1
  H+  H294  1  0.57094783  0.65667452  0.09791238  1
  H+  H295  1  0.58256828  0.89687958  0.39749899  1
  H+  H296  1  0.08459993  0.92483741  0.39782029  1
  H+  H297  1  0.14859989  0.06873070  0.91936182  1
  H+  H298  1  0.08626744  0.76100043  0.84202181  1
  H+  H299  1  0.29140058  0.65612359  0.75689932  1
  H+  H300  1  0.60839697  0.98844593  0.51211121  1
  H+  H301  1  0.84165801  0.91670247  0.44035688  1
  H+  H302  1  0.17571034  0.86099436  0.57097228  1
  H+  H303  1  0.42293658  0.07534113  0.23314694  1
  H+  H304  1  0.55454181  0.89271876  0.77272857  1
  H+  H305  1  0.07500078  0.91757233  0.06262709  1
  H+  H306  1  0.21129151  0.53745876  0.82340722  1
  H+  H307  1  0.95387863  0.34854208  0.88539838  1
  H+  H308  1  0.98400994  0.98263359  0.74566771  1
  H+  H309  1  0.43423550  0.23154646  0.14191001  1
  H+  H310  1  0.02244756  0.38776293  0.33399417  1
  H+  H311  1  0.66427717  0.06508716  0.26021076  1
  H+  H312  1  0.85020605  0.67237381  0.44149365  1
  H+  H313  1  0.34534361  0.41296334  0.14753436  1
  H+  H314  1  0.17371321  0.08751595  0.26588176  1
  H+  H315  1  0.41499334  0.33061774  0.91009641  1
  H+  H316  1  0.07919206  0.68349092  0.06568365  1
  H+  H317  1  0.62138103  0.41882567  0.06314087  1
  H+  H318  1  0.91050144  0.32395527  0.26726173  1
  H+  H319  1  0.84223064  0.67732319  0.76947707  1
  H+  H320  1  0.86816423  0.63308451  0.34374734  1
  H+  H321  1  0.13443270  0.02454410  0.32390115  1
  H+  H322  1  0.40440334  0.59180783  0.23306285  1
  H+  H323  1  0.86683898  0.20020810  0.75597187  1
  H+  H324  1  0.03740342  0.42348000  0.06561773  1
  H+  H325  1  0.27904869  0.38940234  0.50086821  1
  H+  H326  1  0.91063953  0.82714140  0.26849494  1
  H+  H327  1  0.42511886  0.12911109  0.56315237  1
  H+  H328  1  0.32813838  0.91461063  0.09145527  1
  H+  H329  1  0.57742618  0.15491563  0.75996069  1
  H+  H330  1  0.09066159  0.42488981  0.72366030  1
  H+  H331  1  0.64659359  0.82105140  0.93391197  1
  H+  H332  1  0.92313144  0.32144063  0.56478285  1
  H+  H333  1  0.67328985  0.82665424  0.56987504  1
  H+  H334  1  0.64446501  0.06627697  0.60235486  1
  H+  H335  1  0.66298334  0.58600731  0.93166858  1
  H+  H336  1  0.16304463  0.33233784  0.26374359  1
  H+  H337  1  0.08404709  0.42744151  0.43003993  1
  H+  H338  1  0.85374508  0.87741304  0.15074298  1
  H+  H339  1  0.95668437  1.00169921  0.75384750  1
  H+  H340  1  0.03111293  0.89683526  0.49382022  1
  H+  H341  1  0.92362311  0.57760388  0.57499911  1
  H+  H342  1  0.91393562  0.82868172  0.92985216  1
  H+  H343  1  0.88881926  0.76996932  0.32931598  1
  H+  H344  1  0.82748494  0.66542360  0.09614161  1
  H+  H345  1  0.10927432  0.52368705  0.65697667  1
  H+  H346  1  0.30924311  0.43554700  0.05147560  1
  H+  H347  1  0.57438183  0.39938434  0.39845714  1
  H+  H348  1  0.15786277  0.83540263  0.93177544  1
  H+  H349  1  0.41604240  0.05504384  0.89387866  1
  H+  H350  1  0.13292676  0.10963511  0.60839396  1
  H+  H351  1  0.41397009  0.82238911  0.61649966  1
  H+  H352  1  0.69735743  0.33540623  0.89978061  1
  H+  H353  1  0.42628635  0.34435342  0.60748452  1
  H+  H354  1  0.12652132  0.64359298  0.51631004  1
  H+  H355  1  0.61378222  1.08041907  0.83030446  1
  H+  H356  1  0.36692066  0.38873471  0.67696343  1
  H+  H357  1  0.86617211  0.12099723  0.14914506  1
  H+  H358  1  0.67462445  0.31707663  0.23486568  1
  H+  H359  1  0.14116541  0.52403307  0.49616538  1
  H+  H360  1  0.40091541  0.35380787  0.27909015  1
  H+  H361  1  0.31951852  0.69399036  0.39803141  1
  H+  H362  1  0.12164188  0.79858296  0.66288078  1
  H+  H363  1  0.14951991  0.58385863  0.24170271  1
  H+  H364  1  0.56440665  0.13018954  0.42863649  1
  H+  H365  1  0.58842134  0.67079237  0.77312825  1
  H+  H366  1  0.31819615  0.18193787  0.43390778  1
  H+  H367  1  0.48248908  0.27049361  0.75240339  1
  H+  H368  1  -0.01864632  0.11214577  0.33004113  1
  H+  H369  1  0.56070414  0.90770876  0.08357346  1
  H+  H370  1  0.37779036  0.60525196  0.67497658  1
  H+  H371  1  0.90325507  0.78247682  0.50957749  1
  H+  H372  1  0.79471591  0.64612704  0.67933351  1
  H+  H373  1  0.34418026  0.20150106  -0.02480454  1
  H+  H374  1  0.32044520  0.42871685  0.40455605  1
  H+  H375  1  0.08166105  0.68218316  0.39949083  1
  H+  H376  1  0.88071238  0.36470646  0.16325104  1
  H+  H377  1  0.59668216  0.16371386  0.06089029  1
  H+  H378  1  0.11305113  0.61671666  0.99498772  1
  H+  H379  1  0.29548966  0.87901002  0.77823440  1
  H+  H380  1  0.17101760  0.32372067  0.60727212  1
  H+  H381  1  0.31335845  0.65926563  0.06220853  1
  H+  H382  1  0.14379316  0.19320621  0.05939333  1
  H+  H383  1  0.58694836  0.64424808  0.45227852  1
  O2-  O384  1  0.10794070  0.17340001  0.13151962  1
  O2-  O385  1  0.07396452  0.16925363  0.47447769  1
  O2-  O386  1  0.08799699  0.16675474  0.79807238  1
  O2-  O387  1  0.07965592  0.41258471  0.14297513  1
  O2-  O388  1  0.09110241  0.43311686  0.47454559  1
  O2-  O389  1  0.12202586  0.44259193  0.79832505  1
  O2-  O390  1  0.08280568  0.69318530  0.15102184  1
  O2-  O391  1  0.10202705  0.68005023  0.53148273  1
  O2-  O392  1  0.00045297  0.68277855  0.80973395  1
  O2-  O393  1  0.06996499  0.91547297  0.14445963  1
  O2-  O394  1  0.09096650  0.93139796  0.47617313  1
  O2-  O395  1  0.07131949  0.91607807  0.80905503  1
  O2-  O396  1  0.40461819  0.23074555  0.17952699  1
  O2-  O397  1  0.31445183  0.18150702  0.47893356  1
  O2-  O398  1  0.33681056  0.15269314  0.82980962  1
  O2-  O399  1  0.31289639  0.43863482  0.12907976  1
  O2-  O400  1  0.33592122  0.42822991  0.48160746  1
  O2-  O401  1  0.32507320  0.39281759  0.81503482  1
  O2-  O402  1  0.31496349  0.66876523  0.14359262  1
  O2-  O403  1  0.30419627  0.72900651  0.46950354  1
  O2-  O404  1  0.27477384  0.65992909  0.80455686  1
  O2-  O405  1  0.32938625  0.91252401  0.13786278  1
  O2-  O406  1  0.33611365  0.94600455  0.47942653  1
  O2-  O407  1  0.29656785  0.88036333  0.82329969  1
  O2-  O408  1  0.59837231  0.16389215  0.14457455  1
  O2-  O409  1  0.56334965  0.12836411  0.47343585  1
  O2-  O410  1  0.56810610  0.13587494  0.80263301  1
  O2-  O411  1  0.61305206  0.41921943  0.14357621  1
  O2-  O412  1  0.55470664  0.36040690  0.46374668  1
  O2-  O413  1  0.56517185  0.35179612  0.80005287  1
  O2-  O414  1  0.57273581  0.66243334  0.14332603  1
  O2-  O415  1  0.59418539  0.64788990  0.49719756  1
  O2-  O416  1  0.58729722  0.66853453  0.81848545  1
  O2-  O417  1  0.55917662  0.90564566  0.13015972  1
  O2-  O418  1  0.59297691  0.88454969  0.46953322  1
  O2-  O419  1  0.54330121  0.88567784  0.81729115  1
  O2-  O420  1  0.82610298  0.14400508  0.13750247  1
  O2-  O421  1  0.83126845  0.17530953  0.47235548  1
  O2-  O422  1  0.87720176  0.20726198  0.80008097  1
  O2-  O423  1  0.84259213  0.42915045  0.15678909  1
  O2-  O424  1  0.82246453  0.47594848  0.45663094  1
  O2-  O425  1  0.87057212  0.43934483  0.82289617  1
  O2-  O426  1  0.82755136  0.66731998  0.14222934  1
  O2-  O427  1  0.85243568  0.67642072  0.48678326  1
  O2-  O428  1  0.84063361  0.67786596  0.81469507  1
  O2-  O429  1  0.83000423  0.91022700  0.12941427  1
  O2-  O430  1  0.84432218  0.91841968  0.48544646  1
  O2-  O431  1  0.82051181  0.92778184  0.86032219  1
  O2-  O432  1  0.21876625  0.11660945  0.18562506  1
  O2-  O433  1  0.15195155  0.09175054  0.52558539  1
  O2-  O434  1  0.16263998  0.08110873  0.84400293  1
  O2-  O435  1  0.15909142  0.32831102  0.18399236  1
  O2-  O436  1  0.19405801  0.30188024  0.53629497  1
  O2-  O437  1  0.16815162  0.31926521  0.84004682  1
  O2-  O438  1  0.13753782  0.57788518  0.19610833  1
  O2-  O439  1  0.17568754  0.58619628  0.51440960  1
  O2-  O440  1  0.26860463  0.58641141  0.83797992  1
  O2-  O441  1  0.16728506  0.85375908  0.19036401  1
  O2-  O442  1  0.17903391  0.85405583  0.52615689  1
  O2-  O443  1  0.13470293  0.81906430  0.85630648  1
  O2-  O444  1  0.42798202  0.07244490  0.18701165  1
  O2-  O445  1  0.41279925  0.11878605  0.51875069  1
  O2-  O446  1  0.39840258  0.04982972  0.85037837  1
  O2-  O447  1  0.40484788  0.38534072  0.19689458  1
  O2-  O448  1  0.41374418  0.33970951  0.52891052  1
  O2-  O449  1  0.41663967  0.32587553  0.86597021  1
  O2-  O450  1  0.40207120  0.59469782  0.18758182  1
  O2-  O451  1  0.42556461  0.58476639  0.53961748  1
  O2-  O452  1  0.41857425  0.56904175  0.84795203  1
  O2-  O453  1  0.40605695  0.83266226  0.17009482  1
  O2-  O454  1  0.44755685  0.84417681  0.54242337  1
  O2-  O455  1  0.38193928  0.79985728  0.85092694  1
  O2-  O456  1  0.66470997  0.06619778  0.18161214  1
  O2-  O457  1  0.57821736  0.01124806  0.53658655  1
  O2-  O458  1  0.63582720  0.04350544  0.84756733  1
  O2-  O459  1  0.67438614  0.32194020  0.19070020  1
  O2-  O460  1  0.69084173  0.42555980  0.54099012  1
  O2-  O461  1  0.69401363  0.34588278  0.85629860  1
  O2-  O462  1  0.66834544  0.58909720  0.19012602  1
  O2-  O463  1  0.69472487  0.58258932  0.54143390  1
  O2-  O464  1  0.67268862  0.58622935  0.86192504  1
  O2-  O465  1  0.65225072  0.83195434  0.16209963  1
  O2-  O466  1  0.68016197  0.82088149  0.52488366  1
  O2-  O467  1  0.64813402  0.82827163  0.85992818  1
  O2-  O468  1  0.92523420  0.08105512  0.16580517  1
  O2-  O469  1  0.90908090  0.08683807  0.51840154  1
  O2-  O470  1  0.93621914  0.10073668  0.84680518  1
  O2-  O471  1  0.90724789  0.32619187  0.15952560  1
  O2-  O472  1  0.93136596  0.33560897  0.52134728  1
  O2-  O473  1  0.96156780  0.36222570  0.84134334  1
  O2-  O474  1  0.92015562  0.59622169  0.19123082  1
  O2-  O475  1  0.93023127  0.58998004  0.52993716  1
  O2-  O476  1  0.92614969  0.51875353  0.85651174  1
  O2-  O477  1  0.90257507  0.82669113  0.18906552  1
  O2-  O478  1  0.93374190  0.84346167  0.52384250  1
  O2-  O479  1  0.90993257  0.84140642  0.85536969  1
  O2-  O480  1  0.16543865  0.08640682  0.31023724  1
  O2-  O481  1  0.13731666  0.11318705  0.65369143  1
  O2-  O482  1  0.15589959  0.06788065  0.96467325  1
  O2-  O483  1  0.15833032  0.33093495  0.30907367  1
  O2-  O484  1  0.16541000  0.32513395  0.65240272  1
  O2-  O485  1  0.15610165  0.32298883  0.95097648  1
  O2-  O486  1  0.16278326  0.59029932  0.31460942  1
  O2-  O487  1  0.14911889  0.58331434  0.63990784  1
  O2-  O488  1  0.12825615  0.57222539  0.98123530  1
  O2-  O489  1  0.17086215  0.84188428  0.31452672  1
  O2-  O490  1  0.16186411  0.85720478  0.64970287  1
  O2-  O491  1  0.17112008  0.84473582  0.97634330  1
  O2-  O492  1  0.41464085  0.08953546  0.30490860  1
  O2-  O493  1  0.45102824  0.14398037  0.64018628  1
  O2-  O494  1  0.43406298  0.07263640  0.97245322  1
  O2-  O495  1  0.41048475  0.34768462  0.32237357  1
  O2-  O496  1  0.43379536  0.35674941  0.65213219  1
  O2-  O497  1  0.33788162  0.29453068  1.00259458  1
  O2-  O498  1  0.41099701  0.59116259  0.31418001  1
  O2-  O499  1  0.41144487  0.57909323  0.66018957  1
  O2-  O500  1  0.41141343  0.59697287  0.98339501  1
  O2-  O501  1  0.41569768  0.84328645  0.32128365  1
  O2-  O502  1  0.40362291  0.81601483  0.66136430  1
  O2-  O503  1  0.39816204  0.81662085  0.97529499  1
  O2-  O504  1  0.66588363  0.06929408  0.30567560  1
  O2-  O505  1  0.66360688  0.08621047  0.64471555  1
  O2-  O506  1  0.66193175  0.07232610  0.97420884  1
  O2-  O507  1  0.66900372  0.32382504  0.35472647  1
  O2-  O508  1  0.69113357  0.36022352  0.65347653  1
  O2-  O509  1  0.71423397  0.33284496  0.98492757  1
  O2-  O510  1  0.67299373  0.58053004  0.31959298  1
  O2-  O511  1  0.68490213  0.60357681  0.66327886  1
  O2-  O512  1  0.65558358  0.58519955  0.97842942  1
  O2-  O513  1  0.66434928  0.80845550  0.32877775  1
  O2-  O514  1  0.66136255  0.83327592  0.64475364  1
  O2-  O515  1  0.64917948  0.82006230  0.98000456  1
  O2-  O516  1  0.91682976  0.07610281  0.31851656  1
  O2-  O517  1  0.91258730  0.10199183  0.63864712  1
  O2-  O518  1  0.93340491  0.08243360  0.96704272  1
  O2-  O519  1  0.91260711  0.31898076  0.31129860  1
  O2-  O520  1  0.90232686  0.29552966  0.65102468  1
  O2-  O521  1  0.90644208  0.30698044  0.95912086  1
  O2-  O522  1  0.91794630  0.57990230  0.31416421  1
  O2-  O523  1  0.93600595  0.57615727  0.65013178  1
  O2-  O524  1  0.84438921  0.54203435  0.94828763  1
  O2-  O525  1  0.91587382  0.83033321  0.31390641  1
  O2-  O526  1  0.92428457  0.84289288  0.64779462  1
  O2-  O527  1  0.91025876  0.82512193  0.97550329  1
  O2-  O528  1  0.17126152  0.20683322  0.01781043  1
  O2-  O529  1  0.07702107  0.16590141  0.34808018  1
  O2-  O530  1  0.08426664  0.15123487  0.67336238  1
  O2-  O531  1  0.00976472  0.43473070  0.03086661  1
  O2-  O532  1  0.08376744  0.42442234  0.34571358  1
  O2-  O533  1  0.07865257  0.41754348  0.67884530  1
  O2-  O534  1  0.07817049  0.67878151  0.02116470  1
  O2-  O535  1  0.08460890  0.67850891  0.35539632  1
  O2-  O536  1  0.11123240  0.63928383  0.65094675  1
  O2-  O537  1  0.07475468  0.91217543  0.01786117  1
  O2-  O538  1  0.08455084  0.92215481  0.35217993  1
  O2-  O539  1  0.08223652  0.93791759  0.68580711  1
  O2-  O540  1  0.33181541  0.14419056  -0.03912638  1
  O2-  O541  1  0.33104692  0.17857011  0.35126275  1
  O2-  O542  1  0.42713460  0.23389710  0.73069799  1
  O2-  O543  1  0.31278745  0.43561079  0.00583404  1
  O2-  O544  1  0.31930712  0.42667998  0.35896156  1
  O2-  O545  1  0.33187605  0.41246638  0.69594584  1
  O2-  O546  1  0.31595437  0.65566892  0.01734753  1
  O2-  O547  1  0.32653750  0.68711031  0.35364160  1
  O2-  O548  1  0.30714190  0.65369684  0.69505614  1
  O2-  O549  1  0.33099633  0.91288340  0.01817137  1
  O2-  O550  1  0.33678202  0.92541034  0.35527969  1
  O2-  O551  1  0.31128301  0.89152510  0.69927980  1
  O2-  O552  1  0.59771976  0.16658862  0.01591148  1
  O2-  O553  1  0.57481948  0.14762679  0.34392969  1
  O2-  O554  1  0.60158430  0.18976542  0.67789204  1
  O2-  O555  1  0.62558596  0.41933214  0.01804355  1
  O2-  O556  1  0.58489188  0.41177081  0.35264811  1
  O2-  O557  1  0.60396879  0.43720539  0.69622144  1
  O2-  O558  1  0.56644598  0.65680417  0.01930046  1
  O2-  O559  1  0.58057084  0.64815546  0.37135865  1
  O2-  O560  1  0.58684277  0.67374715  0.69448597  1
  O2-  O561  1  0.56608848  0.90456683  0.01237673  1
  O2-  O562  1  0.57502722  0.89947019  0.35183011  1
  O2-  O563  1  0.57839505  0.91410376  0.69368736  1
  O2-  O564  1  0.83006766  0.14465340  0.00990951  1
  O2-  O565  1  0.83259030  0.14921122  0.34256205  1
  O2-  O566  1  0.84905781  0.20528556  0.67212348  1
  O2-  O567  1  0.86075823  0.44436166  0.04035074  1
  O2-  O568  1  0.84572718  0.41356264  0.35227406  1
  O2-  O569  1  0.85155595  0.41398391  0.69534452  1
  O2-  O570  1  0.82164463  0.66316422  0.02033268  1
  O2-  O571  1  0.84064448  0.66481885  0.36135333  1
  O2-  O572  1  0.85715890  0.67326762  0.68958222  1
  O2-  O573  1  0.82386936  0.90535558  0.00450838  1
  O2-  O574  1  0.83973384  0.91638847  0.35927589  1
  O2-  O575  1  0.83491901  0.91994114  0.67408827  1
