# generated using pymatgen
data_H2O
_symmetry_space_group_name_H-M   'P 1'
_cell_length_a   17.98045347
_cell_length_b   17.98044597
_cell_length_c   21.97876715
_cell_angle_alpha   90.00315226
_cell_angle_beta   89.99880017
_cell_angle_gamma   120.03149887
_symmetry_Int_Tables_number   1
_chemical_formula_structural   H2O
_chemical_formula_sum   'H384 O192'
_cell_volume   6151.72799748
_cell_formula_units_Z   192
loop_
 _symmetry_equiv_pos_site_id
 _symmetry_equiv_pos_as_xyz
  1  'x, y, z'
loop_
 _atom_type_symbol
 _atom_type_oxidation_number
  H+  1.0
  O2-  -2.0
loop_
 _atom_site_type_symbol
 _atom_site_label
 _atom_site_symmetry_multiplicity
 _atom_site_fract_x
 _atom_site_fract_y
 _atom_site_fract_z
 _atom_site_occupancy
  H+  H0  1  0.42811832  0.08059665  0.89247588  1
  H+  H1  1  0.48155138  0.13083132  0.50101751  1
  H+  H2  1  0.10714158  0.64145707  0.00633943  1
  H+  H3  1  0.63999739  0.35936715  0.15959659  1
  H+  H4  1  0.46701892  0.86379692  0.31892490  1
  H+  H5  1  0.89930046  0.05485393  0.48336386  1
  H+  H6  1  0.71652881  0.35425655  0.84018755  1
  H+  H7  1  0.35595650  0.63519819  0.16937571  1
  H+  H8  1  0.52153489  0.14216150  0.33317736  1
  H+  H9  1  0.97592153  0.12683090  0.33923453  1
  H+  H10  1  0.85772587  0.39745344  0.49320369  1
  H+  H11  1  0.63179523  0.03134197  0.48954936  1
  H+  H12  1  0.89081400  0.03870111  0.64871722  1
  H+  H13  1  0.85462875  0.38949701  -0.01413989  1
  H+  H14  1  0.56053989  0.70909379  0.67225748  1
  H+  H15  1  0.13712536  0.61630124  0.83186842  1
  H+  H16  1  0.98021480  0.37223346  0.50071484  1
  H+  H17  1  0.27673104  0.90734526  0.49185689  1
  H+  H18  1  0.21270538  0.56276706  0.55476618  1
  H+  H19  1  0.67804444  0.09670697  0.91798549  1
  H+  H20  1  0.84998923  0.37371782  0.83289536  1
  H+  H21  1  0.59422726  0.38274744  0.49476086  1
  H+  H22  1  0.87168968  0.52128039  0.64857549  1
  H+  H23  1  0.90087102  1.01930835  0.84682540  1
  H+  H24  1  0.63286727  0.60402037  0.84950740  1
  H+  H25  1  0.61057138  0.22606014  0.15966722  1
  H+  H26  1  0.75920679  0.62620641  1.01689117  1
  H+  H27  1  0.36031437  0.72516650  0.83178545  1
  H+  H28  1  0.90066701  0.11792157  0.18272619  1
  H+  H29  1  0.95239673  0.61536276  0.65282674  1
  H+  H30  1  0.38356777  0.51926392  0.84246500  1
  H+  H31  1  0.11383104  0.86412098  0.33602837  1
  H+  H32  1  0.64621697  0.86179083  0.84081510  1
  H+  H33  1  0.67343528  1.03337079  0.01318310  1
  H+  H34  1  0.62792999  0.26594377  0.83214288  1
  H+  H35  1  0.38804466  0.38485449  0.41923889  1
  H+  H36  1  0.10268937  0.89597200  0.68783304  1
  H+  H37  1  0.65099082  0.80738999  0.64937040  1
  H+  H38  1  0.12626074  0.60008881  0.16905385  1
  H+  H39  1  0.18230750  0.19800054  0.32531158  1
  H+  H40  1  0.01924668  0.64318268  0.00725319  1
  H+  H41  1  0.71331881  0.36702963  0.50833868  1
  H+  H42  1  0.83254672  0.46171556  -0.02138773  1
  H+  H43  1  0.22799632  0.61183277  0.32403245  1
  H+  H44  1  0.78113929  0.38020014  0.17885326  1
  H+  H45  1  0.15612137  0.76474373  0.52328689  1
  H+  H46  1  0.28099894  0.39526030  0.53221571  1
  H+  H47  1  0.58156858  0.52821878  0.71862956  1
  H+  H48  1  0.11990626  0.87420324  0.49638651  1
  H+  H49  1  0.11412375  0.13739822  0.00076062  1
  H+  H50  1  0.28421166  0.14654444  0.67386175  1
  H+  H51  1  0.59832550  0.88585617  0.16838763  1
  H+  H52  1  0.61983071  0.39217689  0.34046366  1
  H+  H53  1  0.38426532  0.79288112  0.50020785  1
  H+  H54  1  0.87609724  0.09229679  0.99651420  1
  H+  H55  1  0.88595373  0.76447797  0.01699577  1
  H+  H56  1  0.85401067  0.48318213  0.49665381  1
  H+  H57  1  0.64133198  0.51585809  0.50230619  1
  H+  H58  1  0.15680800  0.57267941  0.22931742  1
  H+  H59  1  0.73054547  0.85525165  0.83843740  1
  H+  H60  1  0.26868953  0.13234692  0.14555074  1
  H+  H61  1  0.85198311  0.11850524  0.86030395  1
  H+  H62  1  0.84843490  0.61747342  0.16973732  1
  H+  H63  1  0.78183075  0.12745265  0.82361668  1
  H+  H64  1  0.37506172  0.48177083  0.35547648  1
  H+  H65  1  0.74941432  0.13209617  0.63311896  1
  H+  H66  1  0.74211846  0.84814681  0.50405818  1
  H+  H67  1  0.70124663  0.58546655  0.16790690  1
  H+  H68  1  0.36968651  0.38334604  0.83256596  1
  H+  H69  1  0.28912025  0.39261097  0.35565169  1
  H+  H70  1  0.72075815  0.11841667  0.31962057  1
  H+  H71  1  0.38802567  0.88243665  0.49645302  1
  H+  H72  1  0.38808567  0.01953607  0.32038502  1
  H+  H73  1  0.35929214  0.72455866  0.33663678  1
  H+  H74  1  0.20637143  0.87330351  0.67101195  1
  H+  H75  1  0.87728166  0.51647044  0.84477603  1
  H+  H76  1  0.09448884  0.41696812  0.65689859  1
  H+  H77  1  0.35325395  0.22443702  0.14805838  1
  H+  H78  1  0.11409404  0.62879653  0.50340375  1
  H+  H79  1  0.91901114  0.07198682  0.94076754  1
  H+  H80  1  0.09840679  0.41415836  0.09571643  1
  H+  H81  1  0.61756830  0.90354380  0.64332508  1
  H+  H82  1  0.25240152  0.14596543  0.49953892  1
  H+  H83  1  0.36638535  0.12423250  0.33734289  1
  H+  H84  1  0.76528186  0.38933870  0.67235598  1
  H+  H85  1  0.14590353  0.78316721  0.98975681  1
  H+  H86  1  0.62184303  0.60400370  -0.00120910  1
  H+  H87  1  0.88722533  0.88344799  0.67334696  1
  H+  H88  1  0.97747110  0.87568142  0.68645236  1
  H+  H89  1  0.86908883  0.84689258  0.19051696  1
  H+  H90  1  1.02792550  0.14278791  0.66306536  1
  H+  H91  1  0.39032125  0.02121508  0.83251905  1
  H+  H92  1  0.86703903  0.71626113  0.44796829  1
  H+  H93  1  0.88273899  0.25926369  0.13032657  1
  H+  H94  1  0.61669473  0.89334525  0.02367536  1
  H+  H95  1  0.69678087  0.30959910  0.98324773  1
  H+  H96  1  0.57351873  0.17010314  -0.01851887  1
  H+  H97  1  0.63891722  0.12418737  0.65676187  1
  H+  H98  1  0.43231811  0.34584355  0.23721405  1
  H+  H99  1  1.04735491  0.40187824  1.00721396  1
  H+  H100  1  0.39874113  0.37914245  0.66638309  1
  H+  H101  1  0.87930369  0.60490474  0.83926225  1
  H+  H102  1  0.37329153  0.77014583  0.17211066  1
  H+  H103  1  0.02641177  0.13832060  0.00944427  1
  H+  H104  1  0.36416055  0.13500108  0.83001797  1
  H+  H105  1  0.58448218  0.41882319  0.43008505  1
  H+  H106  1  0.88027862  0.76035440  0.34860573  1
  H+  H107  1  0.60603434  0.97848793  0.86869597  1
  H+  H108  1  0.61938373  0.38411961  0.67086685  1
  H+  H109  1  0.37208560  0.39951997  0.50138850  1
  H+  H110  1  0.36252631  -0.00083119  0.48779760  1
  H+  H111  1  0.38236485  0.11319140  0.16755824  1
  H+  H112  1  0.27789600  0.37958797  0.83075306  1
  H+  H113  1  0.61154657  0.71670235  0.82287212  1
  H+  H114  1  0.87328345  0.78561331  0.68707236  1
  H+  H115  1  0.21600044  0.10743830  0.97852810  1
  H+  H116  1  0.13204180  0.39293863  0.00289219  1
  H+  H117  1  0.13366235  0.75873341  0.16732039  1
  H+  H118  1  0.51960795  0.13807987  0.15915382  1
  H+  H119  1  0.44496676  0.62766868  0.66847539  1
  H+  H120  1  0.77815432  0.88249634  0.02931392  1
  H+  H121  1  0.56039319  0.58412095  0.67592533  1
  H+  H122  1  0.13771940  0.27075228  0.17816735  1
  H+  H123  1  0.14546514  0.03307065  0.65976988  1
  H+  H124  1  0.98422826  0.83786196  0.87357726  1
  H+  H125  1  0.02745127  0.24548168  0.39281387  1
  H+  H126  1  0.75161470  0.61202903  0.65868998  1
  H+  H127  1  0.48388901  0.35270378  0.32640830  1
  H+  H128  1  0.11403744  0.98490150  0.78719215  1
  H+  H129  1  0.23605968  0.82617332  0.56661822  1
  H+  H130  1  0.48558895  0.43052404  0.19929131  1
  H+  H131  1  0.99017724  0.11870888  0.17648688  1
  H+  H132  1  0.62311103  0.11856498  0.16856790  1
  H+  H133  1  0.13324632  0.35744943  0.17477561  1
  H+  H134  1  0.35818582  0.24974099  0.46497650  1
  H+  H135  1  0.11963586  0.48927230  0.50611385  1
  H+  H136  1  0.88924157  0.13511402  0.49668193  1
  H+  H137  1  0.41221167  0.03161169  0.98910025  1
  H+  H138  1  0.76923199  0.14222302  0.48986690  1
  H+  H139  1  0.10407117  0.54175963  0.65981791  1
  H+  H140  1  0.13881495  0.49869248  0.81659307  1
  H+  H141  1  0.37330421  0.49227269  0.52858339  1
  H+  H142  1  0.38766509  0.61350725  0.33254155  1
  H+  H143  1  0.78357251  0.05547192  0.14097835  1
  H+  H144  1  0.87853680  0.97634917  0.34658860  1
  H+  H145  1  0.61261247  0.38063063  0.82816252  1
  H+  H146  1  0.11901095  0.63118073  0.34240352  1
  H+  H147  1  0.48273933  0.87970017  0.99269378  1
  H+  H148  1  0.07621325  0.66057514  0.09802963  1
  H+  H149  1  0.86568131  0.38154476  0.15661286  1
  H+  H150  1  0.39274056  0.27349699  0.84694195  1
  H+  H151  1  0.66173182  0.82912840  1.08200950  1
  H+  H152  1  0.52609228  0.13512438  0.67247674  1
  H+  H153  1  0.94781019  0.83060039  0.18503360  1
  H+  H154  1  0.91886660  0.58446713  0.23827185  1
  H+  H155  1  0.16074137  0.04713856  0.20711527  1
  H+  H156  1  0.39698652  0.26106520  0.31987507  1
  H+  H157  1  0.80883040  0.68492550  0.75299809  1
  H+  H158  1  0.86543394  0.47342722  0.33766644  1
  H+  H159  1  0.01894950  0.88175558  0.06518122  1
  H+  H160  1  0.38371681  0.52657172  0.99736475  1
  H+  H161  1  0.15064102  0.28896875  0.52326075  1
  H+  H162  1  0.26503441  0.64319834  0.49195530  1
  H+  H163  1  0.36171497  0.39278547  0.16678734  1
  H+  H164  1  0.74315144  0.70134170  0.71385970  1
  H+  H165  1  0.36389950  0.48508813  0.68247919  1
  H+  H166  1  0.85271965  0.39003032  0.66647930  1
  H+  H167  1  0.51863172  0.63669438  0.34828147  1
  H+  H168  1  0.89504075  0.88435812  0.84162813  1
  H+  H169  1  0.74001175  0.86762567  0.34248067  1
  H+  H170  1  0.61807071  0.50165390  0.14582473  1
  H+  H171  1  0.63152102  0.76781160  1.02592630  1
  H+  H172  1  0.63485820  0.61339417  0.35189688  1
  H+  H173  1  0.24183117  0.63292354  0.67963981  1
  H+  H174  1  0.51556123  0.63474974  0.00710330  1
  H+  H175  1  0.13893276  0.52343063  0.32936725  1
  H+  H176  1  0.14287610  0.11928249  0.65659809  1
  H+  H177  1  0.27011774  0.88373729  0.33341240  1
  H+  H178  1  0.39876684  0.78751419  -0.00052950  1
  H+  H179  1  0.37826361  0.02233329  0.16786806  1
  H+  H180  1  0.02818162  0.39342481  0.35729187  1
  H+  H181  1  0.35586649  0.97982563  0.65904761  1
  H+  H182  1  0.15248375  0.35168816  0.69805361  1
  H+  H183  1  0.61248388  0.14507225  0.48406253  1
  H+  H184  1  0.87000603  0.97718449  0.17442630  1
  H+  H185  1  0.66003572  0.09414476  0.25955584  1
  H+  H186  1  0.30515900  0.65511808  0.73865854  1
  H+  H187  1  0.03887460  0.15640539  0.50266047  1
  H+  H188  1  0.23188333  0.87572379  0.82596674  1
  H+  H189  1  0.13566008  0.11029207  0.82287072  1
  H+  H190  1  0.63239633  0.26985847  0.66115743  1
  H+  H191  1  0.98325530  0.82067495  0.49232963  1
  H+  H192  1  0.10558473  0.46306525  0.15784433  1
  H+  H193  1  0.46935105  0.60910031  0.17861758  1
  H+  H194  1  0.87166562  0.60770164  0.45359790  1
  H+  H195  1  0.58383368  0.07654311  0.92550629  1
  H+  H196  1  0.47558967  0.86037201  0.84857933  1
  H+  H197  1  0.56538085  0.69425533  0.64064431  1
  H+  H198  1  0.95579301  0.36363952  0.65261033  1
  H+  H199  1  0.72504876  0.36649456  0.32087691  1
  H+  H200  1  0.26814240  0.38478460  0.16580261  1
  H+  H201  1  0.21759294  0.85492942  0.16444250  1
  H+  H202  1  0.65705836  0.57494630  0.94153866  1
  H+  H203  1  0.37902713  0.40276569  0.01398952  1
  H+  H204  1  0.13951042  -0.01150573  0.31419148  1
  H+  H205  1  0.14318684  0.53633845  0.99480766  1
  H+  H206  1  0.36709410  0.88370498  0.82215006  1
  H+  H207  1  0.87826778  0.61000159  0.99586320  1
  H+  H208  1  0.37873782  0.52233944  0.17974339  1
  H+  H209  1  0.37289781  0.23521080  0.67607995  1
  H+  H210  1  -0.01460475  0.60741381  0.33408779  1
  H+  H211  1  0.79603694  0.12715334  0.06516818  1
  H+  H212  1  0.47264370  0.61677707  0.51735417  1
  H+  H213  1  0.72151258  0.61794425  0.37013093  1
  H+  H214  1  0.61104461  0.72382837  0.35199699  1
  H+  H215  1  1.03451947  0.64612512  0.50127195  1
  H+  H216  1  0.35549646  0.64821831  0.49326988  1
  H+  H217  1  0.97928683  0.11418188  0.84437672  1
  H+  H218  1  0.35281510  0.88717591  0.15477463  1
  H+  H219  1  0.47162788  0.60836505  0.84281984  1
  H+  H220  1  0.57256292  0.46319524  0.99235285  1
  H+  H221  1  0.85922370  0.72379493  0.84310469  1
  H+  H222  1  0.95391314  0.33639612  0.85714418  1
  H+  H223  1  0.15378517  0.18631846  0.29760456  1
  H+  H224  1  0.60888089  0.90332759  0.31900306  1
  H+  H225  1  0.12086397  0.22645974  0.67237763  1
  H+  H226  1  0.14437622  0.87525586  0.81397650  1
  H+  H227  1  1.01854848  0.62943393  0.15965557  1
  H+  H228  1  0.52044586  -0.09456800  0.48186137  1
  H+  H229  1  0.63391730  0.27996395  0.32120843  1
  H+  H230  1  0.38079833  0.65569409  1.01303308  1
  H+  H231  1  0.22323106  0.61461462  0.84380665  1
  H+  H232  1  0.14727532  0.59342212  0.59890556  1
  H+  H233  1  0.91645784  0.32781079  1.03275070  1
  H+  H234  1  0.91282203  0.33498030  0.41213129  1
  H+  H235  1  0.65826935  0.85467584  0.37569946  1
  H+  H236  1  0.85903168  0.22364857  0.34789399  1
  H+  H237  1  0.60812668  0.13294289  0.83382150  1
  H+  H238  1  0.52037567  0.13057503  0.82124076  1
  H+  H239  1  0.89329420  0.93373749  0.50296766  1
  H+  H240  1  0.66922400  0.50771776  0.65112286  1
  H+  H241  1  0.02526825  0.86599936  0.34259284  1
  H+  H242  1  0.08813113  -0.15651852  0.15659996  1
  H+  H243  1  0.61676148  0.02400589  0.17466112  1
  H+  H244  1  0.08113932  0.73395279  0.67527126  1
  H+  H245  1  0.91129182  0.58628870  0.93445377  1
  H+  H246  1  0.62814619  0.27532013  0.50370853  1
  H+  H247  1  0.28330088  0.90148252  -0.00038529  1
  H+  H248  1  0.86811221  0.96977204  0.01699498  1
  H+  H249  1  0.97221112  0.34646879  0.12814488  1
  H+  H250  1  0.63819851  0.51743506  0.84623690  1
  H+  H251  1  0.39415439  0.11977639  0.65972807  1
  H+  H252  1  0.08635523  0.64885119  0.66560354  1
  H+  H253  1  0.23551858  0.35977774  -0.00751550  1
  H+  H254  1  0.51832381  0.36761545  0.14120857  1
  H+  H255  1  0.08778933  0.16757966  0.09910078  1
  H+  H256  1  0.15122457  0.38350312  0.33107051  1
  H+  H257  1  0.37026994  0.89820128  1.00445473  1
  H+  H258  1  0.82872482  0.40739183  0.77082661  1
  H+  H259  1  0.76716941  0.63618035  0.83804043  1
  H+  H260  1  0.88246569  0.36348229  0.35524990  1
  H+  H261  1  0.48203100  0.36227262  0.84036313  1
  H+  H262  1  0.37131913  0.17740392  -0.01382791  1
  H+  H263  1  0.77832358  0.90615558  0.66414240  1
  H+  H264  1  0.59961350  0.61790221  0.15788934  1
  H+  H265  1  0.85693527  0.13971226  0.63286203  1
  H+  H266  1  0.11381487  0.39543439  0.50423609  1
  H+  H267  1  0.60813984  0.71195224  0.16495514  1
  H+  H268  1  0.15348866  0.14040535  0.50873674  1
  H+  H269  1  0.61799721  0.48105570  0.34990828  1
  H+  H270  1  0.14054318  0.76128348  0.32284459  1
  H+  H271  1  0.89438000  0.59668477  0.34961912  1
  H+  H272  1  0.37945153  0.87723992  0.62022375  1
  H+  H273  1  0.35908668  0.63527233  0.83051127  1
  H+  H274  1  0.11575838  0.13101140  0.15490336  1
  H+  H275  1  0.60869569  0.62837213  0.50121568  1
  H+  H276  1  0.85314244  0.23187768  0.63155937  1
  H+  H277  1  0.14924409  0.36705016  0.83943143  1
  H+  H278  1  0.11276087  0.22601473  0.82449467  1
  H+  H279  1  0.46654967  0.38734882  0.46165403  1
  H+  H280  1  0.34783923  0.60556772  0.66776896  1
  H+  H281  1  0.88775599  0.51462748  0.18653480  1
  H+  H282  1  0.41132631  0.58279025  0.93613372  1
  H+  H283  1  0.86562625  0.25027702  0.86813875  1
  H+  H284  1  0.72692537  0.86519457  0.18172462  1
  H+  H285  1  0.53818034  0.39928239  0.66784410  1
  H+  H286  1  0.88702793  0.28091332  0.49790214  1
  H+  H287  1  0.57565941  0.65924187  0.44432410  1
  H+  H288  1  0.60548432  0.94669895  0.80280148  1
  H+  H289  1  0.90931664  0.34585801  0.58733545  1
  H+  H290  1  0.59019893  0.41670153  0.76866886  1
  H+  H291  1  0.50654827  0.88166196  0.16498265  1
  H+  H292  1  0.09511442  0.42934328  0.41089656  1
  H+  H293  1  0.32890281  0.92199358  0.09494941  1
  H+  H294  1  0.70871142  0.57215907  0.58671900  1
  H+  H295  1  0.74309350  0.11060683  0.16183241  1
  H+  H296  1  0.92926717  0.08715691  0.27549772  1
  H+  H297  1  0.17141873  0.32989458  0.89966717  1
  H+  H298  1  0.24396878  0.36920352  0.67715087  1
  H+  H299  1  0.40110922  0.83113959  0.23031431  1
  H+  H300  1  0.08903992  0.89411051  0.43383637  1
  H+  H301  1  0.58014250  0.92839936  0.07345789  1
  H+  H302  1  0.33425230  0.41973024  0.07121215  1
  H+  H303  1  0.09642524  0.19868091  0.44613581  1
  H+  H304  1  0.41183493  0.83419558  0.90369904  1
  H+  H305  1  0.26454874  0.62988458  0.16244217  1
  H+  H306  1  0.39673184  0.13843637  0.50370814  1
  H+  H307  1  0.81685560  0.64953437  0.07688769  1
  H+  H308  1  0.66048255  0.82825401  0.23588090  1
  H+  H309  1  0.57463712  0.93354858  0.42021581  1
  H+  H310  1  0.10697340  0.26333390  0.35310540  1
  H+  H311  1  0.94663420  0.94994042  0.79161603  1
  H+  H312  1  0.89041144  0.80984883  0.50373236  1
  H+  H313  1  0.65610804  0.32769872  0.59977658  1
  H+  H314  1  0.34180642  0.91202460  0.75926918  1
  H+  H315  1  0.32783497  0.66826214  0.39747109  1
  H+  H316  1  0.83352107  0.93731476  0.72680516  1
  H+  H317  1  0.17348823  0.83969891  0.92983963  1
  H+  H318  1  0.35008090  0.68362667  0.07287940  1
  H+  H319  1  0.15452541  0.07971509  0.92121315  1
  H+  H320  1  0.27475669  0.11581677  0.33099499  1
  H+  H321  1  0.90198608  0.80686455  0.28239411  1
  H+  H322  1  0.65921710  0.08890209  0.55104190  1
  H+  H323  1  0.91359914  0.60116382  0.56424629  1
  H+  H324  1  0.66151031  0.33790205  0.22643319  1
  H+  H325  1  0.85739625  0.13348166  0.33721223  1
  H+  H326  1  0.54410384  0.90343553  0.68389957  1
  H+  H327  1  0.97418701  0.36872350  0.24889882  1
  H+  H328  1  0.08359719  0.67176976  0.76211374  1
  H+  H329  1  0.87428569  0.88334886  0.34510815  1
  H+  H330  1  0.85356463  0.90104082  0.43642868  1
  H+  H331  1  0.14434940  0.27146098  0.99267269  1
  H+  H332  1  0.88444269  0.19476202  0.74043591  1
  H+  H333  1  0.60679371  -0.00914085  0.32268100  1
  H+  H334  1  0.83999014  0.91829366  0.11462628  1
  H+  H335  1  0.84184949  0.19338312  0.74049245  1
  H+  H336  1  0.09400384  0.66476026  0.40319374  1
  H+  H337  1  0.18814038  0.10441387  0.56708769  1
  H+  H338  1  0.92361020  0.09346829  0.58653777  1
  H+  H339  1  0.82085267  0.42126341  0.39809543  1
  H+  H340  1  0.83847173  0.70079001  0.17368123  1
  H+  H341  1  0.61236106  0.14704082  0.33399354  1
  H+  H342  1  0.58639104  0.16149113  0.73249764  1
  H+  H343  1  0.82603725  0.16590556  0.42970688  1
  H+  H344  1  0.81631250  0.47180569  0.08277520  1
  H+  H345  1  0.14356690  0.07695718  0.30185962  1
  H+  H346  1  0.63469629  0.03065940  0.64528723  1
  H+  H347  1  0.40786204  0.59684510  0.57469966  1
  H+  H348  1  0.42197922  0.34787545  0.60561411  1
  H+  H349  1  0.95807105  0.32172025  0.24384913  1
  H+  H350  1  0.34178870  0.17180206  0.77160538  1
  H+  H351  1  0.15258780  0.58518277  0.93326365  1
  H+  H352  1  0.32913150  0.15693171  0.05119653  1
  H+  H353  1  0.22423164  0.10814545  0.82608598  1
  H+  H354  1  0.42286662  0.09529879  0.59753306  1
  H+  H355  1  0.17206895  0.34184521  0.27322728  1
  H+  H356  1  0.64556161  0.76961390  0.50916925  1
  H+  H357  1  0.41473987  0.08134625  0.26134983  1
  H+  H358  1  0.07905920  0.43144169  0.72595257  1
  H+  H359  1  0.19644433  0.47623687  0.77578064  1
  H+  H360  1  0.37671725  0.85959836  0.32547543  1
  H+  H361  1  0.14803325  0.84190737  0.61314526  1
  H+  H362  1  0.58085811  0.63692943  0.77700882  1
  H+  H363  1  0.12977557  0.01343494  0.13920757  1
  H+  H364  1  0.34529336  0.42249631  0.74154833  1
  H+  H365  1  0.07795420  0.16697321  0.76433113  1
  H+  H366  1  0.91816293  0.32743347  0.95777452  1
  H+  H367  1  0.41778661  0.58206943  0.27459980  1
  H+  H368  1  0.77153451  0.43419069  0.08162020  1
  H+  H369  1  0.13125477  0.73865375  0.81565066  1
  H+  H370  1  0.32877331  0.92374632  0.39332606  1
  H+  H371  1  0.92419334  0.82287474  0.93037083  1
  H+  H372  1  0.17124506  0.34405886  0.58464744  1
  H+  H373  1  0.32740468  0.16665194  0.42277323  1
  H+  H374  1  0.93194854  0.68143151  0.52385434  1
  H+  H375  1  0.58111238  0.17697745  0.42641467  1
  H+  H376  1  0.56914178  0.65280715  0.06950930  1
  H+  H377  1  0.89231759  0.85614294  0.01646802  1
  H+  H378  1  0.68631260  0.85252193  0.58483842  1
  H+  H379  1  0.16461429  0.81786869  0.26074044  1
  H+  H380  1  0.72956598  0.60320741  0.49058268  1
  H+  H381  1  0.44630822  0.35730112  0.93674427  1
  H+  H382  1  0.55868877  0.38702159  0.07477634  1
  H+  H383  1  0.63432970  0.28979817  0.93028544  1
  O2-  O384  1  0.08751296  0.16517837  0.14496800  1
  O2-  O385  1  0.10070135  0.18760107  0.49066167  1
  O2-  O386  1  0.07931228  0.16536436  0.80947219  1
  O2-  O387  1  0.08311533  0.40417833  0.14045745  1
  O2-  O388  1  0.08422956  0.42460850  0.48755355  1
  O2-  O389  1  0.13729788  0.44867554  0.79054501  1
  O2-  O390  1  0.07882874  0.65720713  0.14411836  1
  O2-  O391  1  0.09498087  0.66795290  0.48762031  1
  O2-  O392  1  0.11643101  0.68112680  0.80010405  1
  O2-  O393  1  0.03605760  0.84873759  0.14523022  1
  O2-  O394  1  0.07995380  0.89023588  0.47884784  1
  O2-  O395  1  0.08003698  0.92305422  0.77141685  1
  O2-  O396  1  0.33093531  0.16554011  0.13416222  1
  O2-  O397  1  0.33146369  0.18579771  0.46728041  1
  O2-  O398  1  0.33576575  0.16808320  0.81662500  1
  O2-  O399  1  0.32834186  0.41863905  0.14972073  1
  O2-  O400  1  0.34687266  0.42576134  0.53377575  1
  O2-  O401  1  0.33863399  0.41256101  0.81573619  1
  O2-  O402  1  0.32700991  0.66557387  0.15237532  1
  O2-  O403  1  0.32552636  0.67652463  0.47566887  1
  O2-  O404  1  0.32748355  0.66465410  0.81656878  1
  O2-  O405  1  0.32268658  0.91792905  0.14054394  1
  O2-  O406  1  0.33243577  0.93973934  0.47074815  1
  O2-  O407  1  0.34137881  0.91698745  0.80390722  1
  O2-  O408  1  0.58032546  0.16497726  0.14567040  1
  O2-  O409  1  0.58153898  0.17642195  0.47225549  1
  O2-  O410  1  0.58252737  0.15975351  0.80794594  1
  O2-  O411  1  0.57336549  0.39220387  0.11895364  1
  O2-  O412  1  0.57459405  0.42066427  0.47610862  1
  O2-  O413  1  0.58566910  0.41584071  0.81339928  1
  O2-  O414  1  0.57184364  0.65396232  0.14793922  1
  O2-  O415  1  0.57724055  0.65841305  0.49029065  1
  O2-  O416  1  0.57822637  0.65253945  0.81980939  1
  O2-  O417  1  0.56912006  0.91596937  0.15256963  1
  O2-  O418  1  0.57994656  0.93798247  0.46491903  1
  O2-  O419  1  0.59403503  0.92569529  0.84454452  1
  O2-  O420  1  0.79904647  0.11561592  0.14456542  1
  O2-  O421  1  0.83118434  0.17355667  0.47517483  1
  O2-  O422  1  0.81346752  0.14355027  0.86179266  1
  O2-  O423  1  0.84436793  0.40926071  0.18479612  1
  O2-  O424  1  0.82285105  0.42423383  0.48134021  1
  O2-  O425  1  0.82229788  0.40483064  0.81571750  1
  O2-  O426  1  0.81313118  0.64298509  0.15495585  1
  O2-  O427  1  0.82632687  0.67598635  0.41430961  1
  O2-  O428  1  0.82484135  0.67159792  0.81763375  1
  O2-  O429  1  0.83298830  0.91700458  0.16023410  1
  O2-  O430  1  0.84926231  0.88431818  0.48088220  1
  O2-  O431  1  0.89033030  0.92350330  0.81119268  1
  O2-  O432  1  0.16179231  0.06568404  0.16445138  1
  O2-  O433  1  0.19002618  0.11390515  0.52118431  1
  O2-  O434  1  0.16034371  0.07231936  0.83019056  1
  O2-  O435  1  0.16522200  0.33064038  0.19410838  1
  O2-  O436  1  0.17982618  0.34888866  0.53987884  1
  O2-  O437  1  0.17132981  0.32946987  0.85346724  1
  O2-  O438  1  0.15627051  0.56917243  0.18408236  1
  O2-  O439  1  0.17188326  0.57285720  0.53206530  1
  O2-  O440  1  0.15985066  0.57942533  0.85073501  1
  O2-  O441  1  0.15883686  0.81970504  0.18273247  1
  O2-  O442  1  0.18799325  0.82334824  0.54265260  1
  O2-  O443  1  0.17032182  0.84775818  0.83788648  1
  O2-  O444  1  0.41010978  0.08206116  0.18503281  1
  O2-  O445  1  0.42183604  0.10409591  0.51882079  1
  O2-  O446  1  0.42012057  0.08196092  0.84723764  1
  O2-  O447  1  0.44026180  0.37073762  0.19388999  1
  O2-  O448  1  0.40274915  0.36226381  0.45763075  1
  O2-  O449  1  0.42363272  0.33531736  0.85946842  1
  O2-  O450  1  0.41034019  0.58202030  0.19659665  1
  O2-  O451  1  0.41061325  0.58801991  0.52987199  1
  O2-  O452  1  0.41040258  0.58016328  0.85616480  1
  O2-  O453  1  0.40353528  0.83228375  0.18478002  1
  O2-  O454  1  0.41705084  0.85317915  0.51444284  1
  O2-  O455  1  0.41329586  0.83110648  0.85768460  1
  O2-  O456  1  0.65303788  0.08570482  0.18610144  1
  O2-  O457  1  0.66605344  0.09334441  0.50643162  1
  O2-  O458  1  0.62391132  0.07379336  0.89454801  1
  O2-  O459  1  0.66747715  0.33147197  0.18191844  1
  O2-  O460  1  0.65308780  0.33372788  0.52325096  1
  O2-  O461  1  0.65365605  0.32481633  0.84981917  1
  O2-  O462  1  0.63732288  0.55472141  0.17007450  1
  O2-  O463  1  0.68139364  0.57597310  0.51941106  1
  O2-  O464  1  0.66722166  0.57724404  0.86304346  1
  O2-  O465  1  0.66376364  0.83171653  0.19139961  1
  O2-  O466  1  0.68391066  0.83139671  0.51918336  1
  O2-  O467  1  0.67084639  0.82690429  0.82532335  1
  O2-  O468  1  0.93196501  0.08933139  0.19719302  1
  O2-  O469  1  0.92482285  0.10684859  0.50816725  1
  O2-  O470  1  0.92116910  0.07791876  0.86297083  1
  O2-  O471  1  0.91083786  0.31758531  0.11423358  1
  O2-  O472  1  0.91559118  0.34384674  0.50721004  1
  O2-  O473  1  0.89674155  0.31448228  0.87421391  1
  O2-  O474  1  0.91410481  0.57876918  0.19337727  1
  O2-  O475  1  0.92920627  0.62538064  0.52013269  1
  O2-  O476  1  0.90792114  0.57687371  0.85873176  1
  O2-  O477  1  0.89134987  0.80964126  0.20583000  1
  O2-  O478  1  0.92024928  0.77643004  0.50107004  1
  O2-  O479  1  0.92505205  0.82124119  0.88388659  1
  O2-  O480  1  0.17239686  0.04485975  0.29147153  1
  O2-  O481  1  0.17609738  0.09135407  0.64166456  1
  O2-  O482  1  0.15580185  0.08734983  0.96550553  1
  O2-  O483  1  0.17576604  0.34676868  0.31869384  1
  O2-  O484  1  0.18052248  0.33808038  0.66541811  1
  O2-  O485  1  0.17633649  0.33095464  0.97487084  1
  O2-  O486  1  0.16637780  0.58172562  0.31037513  1
  O2-  O487  1  0.14088020  0.60071023  0.64444134  1
  O2-  O488  1  0.15579919  0.59232477  0.97792884  1
  O2-  O489  1  0.16803527  0.82119647  0.30637406  1
  O2-  O490  1  0.14528650  0.84833636  0.65794936  1
  O2-  O491  1  0.18200657  0.84258557  0.97410098  1
  O2-  O492  1  0.41860193  0.08122399  0.30712930  1
  O2-  O493  1  0.42079943  0.08697206  0.64273626  1
  O2-  O494  1  0.45042012  0.08855930  0.96782898  1
  O2-  O495  1  0.42730462  0.32113512  0.30549760  1
  O2-  O496  1  0.42918790  0.34920660  0.64965657  1
  O2-  O497  1  0.45029411  0.37274982  0.98102854  1
  O2-  O498  1  0.42073979  0.58470552  0.32018481  1
  O2-  O499  1  0.38914549  0.58414415  0.65240558  1
  O2-  O500  1  0.41577572  0.58651054  0.98134816  1
  O2-  O501  1  0.40488430  0.82792183  0.30853951  1
  O2-  O502  1  0.31920407  0.86204066  0.62652149  1
  O2-  O503  1  0.42232584  0.84615304  0.97886976  1
  O2-  O504  1  0.66014494  0.09270203  0.30571255  1
  O2-  O505  1  0.66750383  0.09464622  0.63514296  1
  O2-  O506  1  0.71134576  0.09525714  1.00007658  1
  O2-  O507  1  0.66457058  0.34080443  0.30634692  1
  O2-  O508  1  0.65933028  0.33024557  0.64558571  1
  O2-  O509  1  0.63568222  0.27052670  0.97216856  1
  O2-  O510  1  0.67038216  0.58615127  0.34483119  1
  O2-  O511  1  0.72086092  0.56037492  0.63078898  1
  O2-  O512  1  0.64792004  0.56831227  0.98645087  1
  O2-  O513  1  0.67616186  0.84158668  0.33706785  1
  O2-  O514  1  0.68605364  0.86477244  0.63169971  1
  O2-  O515  1  0.66584905  0.83068102  1.03766841  1
  O2-  O516  1  0.92042132  0.08361487  0.32071284  1
  O2-  O517  1  0.92131154  0.09805321  0.63175331  1
  O2-  O518  1  0.91577751  0.07091524  0.98623142  1
  O2-  O519  1  0.91473212  0.33286334  0.36757872  1
  O2-  O520  1  0.89885701  0.33306764  0.63179347  1
  O2-  O521  1  0.94156377  0.36175315  0.99516805  1
  O2-  O522  1  0.92386948  0.57773148  0.32056645  1
  O2-  O523  1  0.89610758  0.58011703  0.63143013  1
  O2-  O524  1  0.91179063  0.58406529  0.98020299  1
  O2-  O525  1  0.91223471  0.81619302  0.32752132  1
  O2-  O526  1  0.91493624  0.84548984  0.66956773  1
  O2-  O527  1  0.92469780  0.82633522  1.00553240  1
  O2-  O528  1  0.08790175  0.16949789  0.02166777  1
  O2-  O529  1  0.05936671  0.21733809  0.38013434  1
  O2-  O530  1  0.08565537  0.16399334  0.68166009  1
  O2-  O531  1  0.10827161  0.42706036  0.02162830  1
  O2-  O532  1  0.09117633  0.42469876  0.36518392  1
  O2-  O533  1  0.05668593  0.42706475  0.68311175  1
  O2-  O534  1  0.07921356  0.67374095  0.02356567  1
  O2-  O535  1  0.08933795  0.66240975  0.35814024  1
  O2-  O536  1  0.05040091  0.67161978  0.68367367  1
  O2-  O537  1  0.06655945  0.91074938  0.09531373  1
  O2-  O538  1  0.08721169  0.89719567  0.35389414  1
  O2-  O539  1  0.07404773  0.92981116  0.70428680  1
  O2-  O540  1  0.31748739  0.14239192  0.00760115  1
  O2-  O541  1  0.33100450  0.15063308  0.35165824  1
  O2-  O542  1  0.34407864  0.17450510  0.68953527  1
  O2-  O543  1  0.33774858  0.42160174  0.02566358  1
  O2-  O544  1  0.34423074  0.42582610  0.37722798  1
  O2-  O545  1  0.34426366  0.42446114  0.69531536  1
  O2-  O546  1  0.36646702  0.69806836  0.02967009  1
  O2-  O547  1  0.33040596  0.66404787  0.35213848  1
  O2-  O548  1  0.29937280  0.64523875  0.69384308  1
  O2-  O549  1  0.34332060  0.93289669  0.01725403  1
  O2-  O550  1  0.33091191  0.91760069  0.34830583  1
  O2-  O551  1  0.32005887  0.91883677  0.67525123  1
  O2-  O552  1  0.53697163  0.10377423  -0.01873336  1
  O2-  O553  1  0.58145888  0.17663285  0.34951391  1
  O2-  O554  1  0.58726176  0.16561274  0.68656887  1
  O2-  O555  1  0.53883583  0.39855782  -0.00200778  1
  O2-  O556  1  0.58646244  0.41738852  0.35945613  1
  O2-  O557  1  0.59871616  0.42608931  0.68290489  1
  O2-  O558  1  0.57565355  0.66136070  0.02437202  1
  O2-  O559  1  0.57708745  0.66499151  0.36849195  1
  O2-  O560  1  0.59606511  0.58744597  0.71039382  1
  O2-  O561  1  0.59287130  0.93239827  0.02889391  1
  O2-  O562  1  0.57546383  0.92819183  0.33531476  1
  O2-  O563  1  0.58045012  0.92996640  0.64852170  1
  O2-  O564  1  0.79806447  0.11973379  0.02026759  1
  O2-  O565  1  0.82360504  0.15990426  0.35240339  1
  O2-  O566  1  0.82129376  0.16732492  0.62320742  1
  O2-  O567  1  0.80647810  0.39864827  -0.02427964  1
  O2-  O568  1  0.82748138  0.41359643  0.35408551  1
  O2-  O569  1  0.82623347  0.42085787  0.68608907  1
  O2-  O570  1  0.81954383  0.65735398  0.03159954  1
  O2-  O571  1  0.83888905  0.60131699  0.41508953  1
  O2-  O572  1  0.79434970  0.69587631  0.70836843  1
  O2-  O573  1  0.84103061  0.91242030  0.03786335  1
  O2-  O574  1  0.84714198  0.91606626  0.36228327  1
  O2-  O575  1  0.83888292  0.93519970  0.68242380  1
