# generated using pymatgen
data_H2O
_symmetry_space_group_name_H-M   'P 1'
_cell_length_a   17.97957984
_cell_length_b   17.97060778
_cell_length_c   21.99376855
_cell_angle_alpha   90.01529366
_cell_angle_beta   89.98181761
_cell_angle_gamma   120.00293274
_symmetry_Int_Tables_number   1
_chemical_formula_structural   H2O
_chemical_formula_sum   'H384 O192'
_cell_volume   6154.03165573
_cell_formula_units_Z   192
loop_
 _symmetry_equiv_pos_site_id
 _symmetry_equiv_pos_as_xyz
  1  'x, y, z'
loop_
 _atom_type_symbol
 _atom_type_oxidation_number
  H+  1.0
  O2-  -2.0
loop_
 _atom_site_type_symbol
 _atom_site_label
 _atom_site_symmetry_multiplicity
 _atom_site_fract_x
 _atom_site_fract_y
 _atom_site_fract_z
 _atom_site_occupancy
  H+  H0  1  0.26120471  0.87588929  0.82437368  1
  H+  H1  1  0.12583257  0.60040322  0.32565625  1
  H+  H2  1  0.14719849  0.26743458  0.32118372  1
  H+  H3  1  0.43930892  0.45307038  0.14035277  1
  H+  H4  1  0.11083657  0.47076517  0.00665399  1
  H+  H5  1  0.36665548  0.88668463  0.49563403  1
  H+  H6  1  0.13519613  0.85611053  0.33681861  1
  H+  H7  1  0.91106838  0.57408728  0.59482646  1
  H+  H8  1  0.51817160  0.65174843  0.16488820  1
  H+  H9  1  0.14696422  0.60442354  0.88250587  1
  H+  H10  1  0.39917611  0.62492097  0.50857713  1
  H+  H11  1  0.64090446  0.02476350  0.17455808  1
  H+  H12  1  0.37714752  0.33941613  0.18475622  1
  H+  H13  1  0.39255223  0.03265830  0.99792923  1
  H+  H14  1  0.63816254  0.77356961  0.66087259  1
  H+  H15  1  0.09125559  0.21846407  0.49510536  1
  H+  H16  1  0.27341602  0.89280189  0.34794894  1
  H+  H17  1  0.22091748  0.11505878  0.50999671  1
  H+  H18  1  0.27480610  0.22666377  0.38302282  1
  H+  H19  1  0.67441757  0.08023176  0.90407457  1
  H+  H20  1  0.89287412  0.11615674  0.32994235  1
  H+  H21  1  0.08746625  0.43032651  0.72952594  1
  H+  H22  1  0.48954312  0.89432762  0.31765040  1
  H+  H23  1  0.58749110  0.50334365  0.16104813  1
  H+  H24  1  -0.02618584  0.35368514  -0.00983867  1
  H+  H25  1  -0.01854447  0.35708899  0.16940765  1
  H+  H26  1  0.38069098  0.11516297  0.51137403  1
  H+  H27  1  0.80279650  0.86822809  0.08363649  1
  H+  H28  1  0.10254614  0.87431857  0.17566366  1
  H+  H29  1  0.73051384  0.10797908  0.99518146  1
  H+  H30  1  0.23729409  0.62895436  0.66224515  1
  H+  H31  1  0.14438940  0.61133365  0.50564111  1
  H+  H32  1  0.85499258  0.22341798  0.82927951  1
  H+  H33  1  0.62742271  0.86881575  0.18035270  1
  H+  H34  1  0.83469369  0.66318130  0.43249463  1
  H+  H35  1  0.88370970  0.03440984  0.64875024  1
  H+  H36  1  0.39037810  0.77619865  0.83878645  1
  H+  H37  1  0.86681403  0.71950644  0.82631886  1
  H+  H38  1  0.64202175  0.36305509  0.65800996  1
  H+  H39  1  0.12903568  0.48986929  0.67176573  1
  H+  H40  1  0.72537877  0.86427895  0.83328675  1
  H+  H41  1  0.02183146  0.63165592  0.34545180  1
  H+  H42  1  0.62383159  0.13724481  0.16764048  1
  H+  H43  1  0.86284059  0.12588748  0.02087683  1
  H+  H44  1  0.60350584  0.63568336  0.00892314  1
  H+  H45  1  0.48027189  0.61780907  0.66537272  1
  H+  H46  1  0.63102329  0.77223169  0.32652862  1
  H+  H47  1  0.86393695  0.63085341  0.66825419  1
  H+  H48  1  0.62580170  0.77575173  0.17886852  1
  H+  H49  1  0.86407187  0.37601689  0.15967094  1
  H+  H50  1  0.38303073  0.47364109  0.33219303  1
  H+  H51  1  0.73169710  0.61124607  0.32847392  1
  H+  H52  1  0.52881283  0.63456573  0.49270746  1
  H+  H53  1  0.38926343  0.53034878  0.66194829  1
  H+  H54  1  0.27338915  0.64292812  0.00998198  1
  H+  H55  1  0.85343779  0.13008841  0.82262667  1
  H+  H56  1  0.86721903  0.46251387  0.66532047  1
  H+  H57  1  0.37231696  0.73365536  0.49202893  1
  H+  H58  1  0.63838412  0.52347822  0.65945495  1
  H+  H59  1  0.86845957  0.63749781  0.33815474  1
  H+  H60  1  0.13685730  0.86968126  0.65191707  1
  H+  H61  1  0.77406403  0.62933326  0.49179636  1
  H+  H62  1  0.63665236  0.52508348  -0.00654473  1
  H+  H63  1  0.35129653  0.85763184  0.15267118  1
  H+  H64  1  0.13670400  0.51726925  0.32595964  1
  H+  H65  1  0.11298364  0.38153204  0.00266229  1
  H+  H66  1  0.28034512  0.41757594  0.48713238  1
  H+  H67  1  -0.00438841  0.61248911  -0.00715073  1
  H+  H68  1  0.35945753  0.98689116  0.34861416  1
  H+  H69  1  0.02554059  0.63593445  0.82002623  1
  H+  H70  1  0.72905167  0.35819092  0.65945593  1
  H+  H71  1  0.88524439  0.52079494  0.33287604  1
  H+  H72  1  0.10718283  0.22895959  0.81817242  1
  H+  H73  1  0.63896202  1.02045175  -0.00590358  1
  H+  H74  1  0.12137185  0.63540951  1.01437363  1
  H+  H75  1  0.97265301  0.60707915  0.65201811  1
  H+  H76  1  0.41338012  0.08868146  0.60479798  1
  H+  H77  1  0.89441402  0.52114621  0.50222975  1
  H+  H78  1  0.38511812  0.86262601  0.83624661  1
  H+  H79  1  0.27432568  0.39061326  0.66617105  1
  H+  H80  1  0.47961427  0.61158971  0.84078868  1
  H+  H81  1  0.60120414  0.46480886  0.49724648  1
  H+  H82  1  0.82079527  0.13333019  0.51923870  1
  H+  H83  1  0.60774096  0.00556168  0.48840624  1
  H+  H84  1  0.88476974  0.76536237  0.50631092  1
  H+  H85  1  0.66102444  0.57953954  0.93146773  1
  H+  H86  1  0.23608858  0.86752905  -0.01034404  1
  H+  H87  1  0.11118876  0.97857735  0.66774501  1
  H+  H88  1  -0.00747056  0.11622975  0.17766109  1
  H+  H89  1  0.39930050  0.12829591  0.33448018  1
  H+  H90  1  0.38332543  0.02842215  0.66354071  1
  H+  H91  1  0.66602707  0.83241556  0.93126346  1
  H+  H92  1  0.64085098  1.02179677  0.84139729  1
  H+  H93  1  0.29537389  0.38262347  0.32853428  1
  H+  H94  1  0.27095912  0.63859758  0.16120903  1
  H+  H95  1  0.98013595  0.10480971  0.49276483  1
  H+  H96  1  0.63678340  0.86431000  0.83809325  1
  H+  H97  1  0.54642284  0.32490525  0.06174327  1
  H+  H98  1  0.12802884  0.23672986  0.16460168  1
  H+  H99  1  0.87203716  0.47169904  1.00721016  1
  H+  H100  1  0.64350252  0.52064244  0.33121722  1
  H+  H101  1  0.47510194  0.87794823  0.65470710  1
  H+  H102  1  0.91165327  0.96324106  0.17295479  1
  H+  H103  1  0.23122906  0.37147818  0.82107070  1
  H+  H104  1  0.85977299  0.37786535  0.82303923  1
  H+  H105  1  0.11366070  0.14023844  0.49463826  1
  H+  H106  1  0.76486609  0.67552848  0.17483647  1
  H+  H107  1  0.52593021  0.89245845  0.82262839  1
  H+  H108  1  0.60428890  0.72484530  0.00529812  1
  H+  H109  1  0.88411179  0.26537579  0.50593518  1
  H+  H110  1  0.62885130  0.62801688  0.18627944  1
  H+  H111  1  0.13435588  0.27756441  0.65903288  1
  H+  H112  1  0.86644992  0.89243902  0.66532387  1
  H+  H113  1  0.17900666  0.08946480  0.23317016  1
  H+  H114  1  0.79511918  0.79493078  0.04019863  1
  H+  H115  1  0.88797975  0.77375453  0.65997652  1
  H+  H116  1  0.13413674  0.89530006  0.01384003  1
  H+  H117  1  0.38648738  0.27790150  0.66234891  1
  H+  H118  1  0.34264815  0.96550381  0.82789428  1
  H+  H119  1  0.64009889  0.60876024  0.50413396  1
  H+  H120  1  0.97361419  0.86528918  0.82943933  1
  H+  H121  1  0.37228872  0.89530865  -0.00062257  1
  H+  H122  1  0.88928704  0.09608365  0.47987825  1
  H+  H123  1  0.38295586  0.02698801  0.51113144  1
  H+  H124  1  0.35879736  0.88926136  0.67098106  1
  H+  H125  1  0.61469306  0.22470137  0.66548142  1
  H+  H126  1  0.35787437  0.24531834  0.34772830  1
  H+  H127  1  0.24720138  0.86304582  0.50321566  1
  H+  H128  1  0.66101393  0.29692115  0.83013794  1
  H+  H129  1  0.61667668  0.63737136  0.82950690  1
  H+  H130  1  0.36897726  0.39001416  0.00582226  1
  H+  H131  1  0.97416784  0.60310823  0.17961016  1
  H+  H132  1  0.40394888  0.36574038  0.32549008  1
  H+  H133  1  0.11504788  0.12809089  0.01294748  1
  H+  H134  1  0.42175765  0.58508660  0.27308740  1
  H+  H135  1  0.85993471  -0.03681065  0.49012666  1
  H+  H136  1  0.27513009  0.14123981  0.00239662  1
  H+  H137  1  0.51906569  0.14517479  0.49215744  1
  H+  H138  1  0.15606325  0.36036430  0.32639285  1
  H+  H139  1  0.38480462  0.62248034  0.17493908  1
  H+  H140  1  0.36974779  0.63741898  0.83290310  1
  H+  H141  1  0.75062651  0.65659736  0.00859014  1
  H+  H142  1  0.63202470  0.24092898  0.17525740  1
  H+  H143  1  0.73653790  0.11908360  0.48884660  1
  H+  H144  1  0.64890326  0.86877631  0.66118467  1
  H+  H145  1  0.61257738  0.10061922  0.49403474  1
  H+  H146  1  0.72803784  0.60808901  0.84200262  1
  H+  H147  1  0.11186407  0.63207232  0.16198815  1
  H+  H148  1  0.64777127  0.16422702  0.81905028  1
  H+  H149  1  0.27770734  0.01590438  0.88551017  1
  H+  H150  1  0.12080337  0.38613318  0.15718885  1
  H+  H151  1  0.17141481  0.57119831  1.05058022  1
  H+  H152  1  0.14476161  0.76347630  0.50521005  1
  H+  H153  1  0.85300361  0.71837806  1.00810960  1
  H+  H154  1  0.96684627  0.35253634  0.83775018  1
  H+  H155  1  0.36532415  0.14191575  1.00672189  1
  H+  H156  1  0.26827236  0.13885295  0.67237555  1
  H+  H157  1  0.63068095  0.86547380  0.32742573  1
  H+  H158  1  0.58070509  0.67882401  0.10617865  1
  H+  H159  1  0.88623600  0.86248470  0.33098968  1
  H+  H160  1  0.11039000  0.73220111  0.65970299  1
  H+  H161  1  0.62337427  -0.01136523  0.66759342  1
  H+  H162  1  0.47135469  0.61488751  0.99635607  1
  H+  H163  1  0.48715303  0.11814025  0.33525972  1
  H+  H164  1  0.86250352  0.37915942  0.00580965  1
  H+  H165  1  0.90332041  0.51605407  0.83364924  1
  H+  H166  1  0.28670550  0.64314163  0.49202765  1
  H+  H167  1  0.46928785  0.35888720  0.17528549  1
  H+  H168  1  0.35564771  0.22902291  0.82554946  1
  H+  H169  1  0.36263594  0.21645990  0.15845361  1
  H+  H170  1  0.35784943  0.22929158  0.50514511  1
  H+  H171  1  0.01670378  0.13986314  0.81977670  1
  H+  H172  1  0.48188162  0.87344983  0.49294757  1
  H+  H173  1  0.62419711  0.64225837  0.34038500  1
  H+  H174  1  0.67745686  0.35157231  0.89245521  1
  H+  H175  1  0.36285119  0.64318353  0.00605749  1
  H+  H176  1  0.11422359  0.96965817  0.33710694  1
  H+  H177  1  0.75368154  0.12389619  0.83604361  1
  H+  H178  1  0.83075893  0.91778817  0.75394685  1
  H+  H179  1  0.46550923  0.36102043  0.50819380  1
  H+  H180  1  0.63090218  0.98683087  0.33823964  1
  H+  H181  1  0.61720877  0.63789173  0.67292976  1
  H+  H182  1  0.38568280  0.36553452  0.83567091  1
  H+  H183  1  0.27797051  0.38435189  0.01567533  1
  H+  H184  1  0.78175707  0.39692808  0.82113746  1
  H+  H185  1  0.63561084  0.52211498  0.83919596  1
  H+  H186  1  0.52353039  0.38961234  0.82497811  1
  H+  H187  1  0.49135060  0.05957139  0.83648974  1
  H+  H188  1  0.02820733  0.63816010  0.49719705  1
  H+  H189  1  0.64720702  0.12632721  0.32226759  1
  H+  H190  1  0.13957399  0.37025854  0.66175557  1
  H+  H191  1  0.67279312  0.31994327  0.23900315  1
  H+  H192  1  0.53508716  0.38223015  0.34126810  1
  H+  H193  1  0.12947561  0.87128022  0.83783250  1
  H+  H194  1  0.43084359  0.09343245  0.24539646  1
  H+  H195  1  0.13269730  0.10351174  0.32110719  1
  H+  H196  1  0.37577164  0.36190374  0.51631207  1
  H+  H197  1  0.47528515  0.35732790  0.99321333  1
  H+  H198  1  0.77518281  0.88773818  0.66347890  1
  H+  H199  1  0.33650997  0.09728170  0.84611250  1
  H+  H200  1  0.56194188  0.44086250  0.10188958  1
  H+  H201  1  0.12814606  0.02693232  0.50593122  1
  H+  H202  1  0.38866780  0.77860194  0.99103473  1
  H+  H203  1  0.87435593  0.32980084  0.66091245  1
  H+  H204  1  0.88560407  0.26426927  -0.00647198  1
  H+  H205  1  0.89210882  0.26680237  0.17256668  1
  H+  H206  1  0.22368590  0.11385593  0.32662639  1
  H+  H207  1  0.88003453  0.23852624  0.34482588  1
  H+  H208  1  0.88374065  0.38904335  0.49417657  1
  H+  H209  1  0.02762648  0.13381001  0.33834455  1
  H+  H210  1  0.14619083  0.39730950  0.49365692  1
  H+  H211  1  0.10506850  0.38820338  0.81607244  1
  H+  H212  1  0.01878347  0.89290858  0.49485291  1
  H+  H213  1  0.85976812  0.88711884  0.81436353  1
  H+  H214  1  0.62230582  0.38089365  0.34372577  1
  H+  H215  1  0.74063018  0.13268254  0.32491766  1
  H+  H216  1  -0.01698468  0.89121945  0.17949726  1
  H+  H217  1  0.39440035  0.78278359  0.66305775  1
  H+  H218  1  0.40188569  0.89762986  0.32191716  1
  H+  H219  1  0.12058116  0.72648820  1.00781462  1
  H+  H220  1  0.59496224  0.88607506  0.48273018  1
  H+  H221  1  0.71602281  0.84805649  0.99517314  1
  H+  H222  1  0.02319776  0.88362875  0.33980301  1
  H+  H223  1  0.87121500  0.63259721  0.82849485  1
  H+  H224  1  0.55417588  0.08411340  0.36969792  1
  H+  H225  1  0.62003642  0.14464451  0.98715535  1
  H+  H226  1  0.65386815  0.83287403  0.25071067  1
  H+  H227  1  0.08109397  0.92249891  0.76038777  1
  H+  H228  1  0.59217497  0.08378668  0.64647852  1
  H+  H229  1  0.73192268  0.35088727  0.17686153  1
  H+  H230  1  0.90469673  0.03540883  1.08100506  1
  H+  H231  1  0.48227902  0.61096486  0.33035457  1
  H+  H232  1  0.90406351  0.87925762  1.00338779  1
  H+  H233  1  0.77687086  0.13174678  0.16442197  1
  H+  H234  1  0.61485554  0.72578396  0.82825859  1
  H+  H235  1  0.63613928  0.25643471  0.33153163  1
  H+  H236  1  0.12543239  0.78074551  0.83721457  1
  H+  H237  1  0.05253114  0.36765567  0.37334355  1
  H+  H238  1  0.10606385  -0.01800485  0.82090921  1
  H+  H239  1  0.36781457  0.48623035  0.51465776  1
  H+  H240  1  0.21510803  0.84817732  0.18203198  1
  H+  H241  1  0.73256172  0.37120939  0.98946164  1
  H+  H242  1  0.39166239  0.77700479  0.17866089  1
  H+  H243  1  1.01924878  0.14062597  0.66397641  1
  H+  H244  1  0.36353281  0.47816643  0.82180344  1
  H+  H245  1  0.61589218  0.39441925  0.82395729  1
  H+  H246  1  0.42440528  0.85517064  0.23011238  1
  H+  H247  1  0.87575611  0.17978355  0.65126776  1
  H+  H248  1  0.52233042  0.89051470  0.16097914  1
  H+  H249  1  0.02297562  0.12048320  0.02730353  1
  H+  H250  1  0.24862707  0.12816405  0.16536808  1
  H+  H251  1  0.98687705  0.39253381  0.31226775  1
  H+  H252  1  0.61392714  0.37105979  1.01042692  1
  H+  H253  1  0.12639384  0.11445472  0.83931189  1
  H+  H254  1  0.49212446  0.79775201  0.40852364  1
  H+  H255  1  0.33305131  0.91063501  0.05955062  1
  H+  H256  1  0.42910223  0.59903115  0.56986712  1
  H+  H257  1  0.28095251  0.63475677  0.84081725  1
  H+  H258  1  0.22617003  0.86887282  0.65610086  1
  H+  H259  1  0.40256988  1.03662332  0.18547754  1
  H+  H260  1  0.10494557  0.47141880  0.83832692  1
  H+  H261  1  0.39698750  0.53916443  0.17264304  1
  H+  H262  1  0.13188996  0.11299617  0.65821541  1
  H+  H263  1  0.04913006  0.90151435  0.01724205  1
  H+  H264  1  0.72561872  0.34594902  0.33328256  1
  H+  H265  1  0.91829255  0.07896322  0.27211622  1
  H+  H266  1  0.76914813  0.88548550  0.33686292  1
  H+  H267  1  0.42279871  0.84348374  0.55732998  1
  H+  H268  1  0.52584717  0.38788484  0.66985110  1
  H+  H269  1  0.65386907  0.27723680  0.50302030  1
  H+  H270  1  0.86320401  0.38479233  0.33920997  1
  H+  H271  1  0.03099565  0.30267816  0.53338867  1
  H+  H272  1  0.85885020  0.97355064  0.34145499  1
  H+  H273  1  0.53271566  0.14790121  0.98687892  1
  H+  H274  1  0.71855412  0.85634503  0.50289899  1
  H+  H275  1  0.61106533  0.88518421  0.00643007  1
  H+  H276  1  0.13485343  0.25943865  0.01035855  1
  H+  H277  1  0.48970470  0.09517329  0.81972183  1
  H+  H278  1  0.24260079  0.37299652  0.17482237  1
  H+  H279  1  0.91461498  0.82957080  0.59913196  1
  H+  H280  1  0.12364542  0.66180795  0.80289938  1
  H+  H281  1  0.33564351  0.42132452  0.75977155  1
  H+  H282  1  0.93759566  0.57472997  0.89452341  1
  H+  H283  1  0.14871277  0.02657032  0.99593334  1
  H+  H284  1  0.11290623  0.71991690  0.34671552  1
  H+  H285  1  0.86751430  0.72676409  0.33632202  1
  H+  H286  1  0.87696812  0.01552682  0.82323502  1
  H+  H287  1  0.02269730  0.88748877  0.66791890  1
  H+  H288  1  0.41816529  0.58115937  0.89986749  1
  H+  H289  1  0.16317839  0.08242900  0.93380658  1
  H+  H290  1  0.14112668  0.43046207  0.40585376  1
  H+  H291  1  0.16746872  0.83754772  0.93484720  1
  H+  H292  1  0.52151790  0.14221354  0.67500337  1
  H+  H293  1  0.90336331  0.07147362  0.88388295  1
  H+  H294  1  0.08415487  0.40816123  0.09725614  1
  H+  H295  1  0.83731546  0.65981347  0.72944058  1
  H+  H296  1  0.58834095  0.66705298  0.73341381  1
  H+  H297  1  0.16650626  0.82535433  0.27936240  1
  H+  H298  1  0.57320588  0.40598110  0.43921643  1
  H+  H299  1  0.53248314  0.13879923  0.17523364  1
  H+  H300  1  0.90849929  0.32050333  0.89821127  1
  H+  H301  1  0.18117153  0.33793369  0.23270859  1
  H+  H302  1  0.65957593  0.82820491  0.56149078  1
  H+  H303  1  0.52394360  0.88837849  0.00647494  1
  H+  H304  1  0.09181790  0.91698080  0.11584510  1
  H+  H305  1  0.32618623  0.91466783  0.73111109  1
  H+  H306  1  0.08882640  0.16467093  0.39627230  1
  H+  H307  1  0.83109962  0.40632497  0.10226820  1
  H+  H308  1  0.91779101  0.84047441  0.88948849  1
  H+  H309  1  0.61630507  0.72300630  0.49199439  1
  H+  H310  1  0.14599926  0.62533035  0.65709548  1
  H+  H311  1  0.13680691  0.51972681  0.16906929  1
  H+  H312  1  0.87967211  0.00294201  1.01403859  1
  H+  H313  1  0.11307391  0.31620722  0.57302938  1
  H+  H314  1  0.58469761  0.41855187  0.72911894  1
  H+  H315  1  0.36361461  0.39024745  0.66863061  1
  H+  H316  1  0.58486071  0.91782155  0.10285201  1
  H+  H317  1  0.38394711  0.27433301  0.99083889  1
  H+  H318  1  0.87794402  0.85086699  0.50584000  1
  H+  H319  1  0.83227080  0.16442874  0.07148027  1
  H+  H320  1  0.41521063  0.33647516  0.89593420  1
  H+  H321  1  0.17917881  0.56562146  0.93019490  1
  H+  H322  1  0.58515779  0.92280111  0.39691276  1
  H+  H323  1  0.42807281  0.31917730  0.27214136  1
  H+  H324  1  0.67683609  0.08857518  0.23304438  1
  H+  H325  1  0.32405823  0.16382562  0.09516300  1
  H+  H326  1  0.83945846  0.40836835  0.72644865  1
  H+  H327  1  0.17979553  0.49804539  0.48798001  1
  H+  H328  1  0.64514109  0.28125158  -0.02100921  1
  H+  H329  1  0.91592251  0.08871710  0.58828398  1
  H+  H330  1  0.81626741  0.70811423  0.11382343  1
  H+  H331  1  0.18310641  0.30335672  0.95140048  1
  H+  H332  1  0.17901375  0.58890773  0.56558391  1
  H+  H333  1  0.72820631  0.61191323  0.65949673  1
  H+  H334  1  0.09562587  0.17027234  0.10804004  1
  H+  H335  1  0.79032789  0.38165258  0.49626882  1
  H+  H336  1  0.65864777  0.58731322  0.24067063  1
  H+  H337  1  0.41961568  0.70639253  0.39475153  1
  H+  H338  1  0.88743867  0.51334340  0.18019861  1
  H+  H339  1  0.21668875  0.11819096  0.83743554  1
  H+  H340  1  0.14882764  0.12845661  0.17587545  1
  H+  H341  1  0.62282459  0.19118544  0.75657936  1
  H+  H342  1  0.92214996  0.84995807  0.26911594  1
  H+  H343  1  0.68472177  0.33345421  0.56320815  1
  H+  H344  1  0.32350414  0.16880791  0.76550313  1
  H+  H345  1  0.70465555  0.99663163  0.70317477  1
  H+  H346  1  0.37109179  0.64633895  0.67821240  1
  H+  H347  1  0.16934422  0.35600848  0.87671227  1
  H+  H348  1  0.07480037  0.16466419  0.72547412  1
  H+  H349  1  0.92357105  0.33629700  0.26047539  1
  H+  H350  1  0.38368085  0.52563675  0.99474352  1
  H+  H351  1  0.83800045  0.17417753  0.40158281  1
  H+  H352  1  0.26812523  0.80072595  0.11427475  1
  H+  H353  1  0.12717247  0.76194938  0.18498816  1
  H+  H354  1  0.57391324  0.16813145  0.42974605  1
  H+  H355  1  0.16248253  0.08393326  0.59933211  1
  H+  H356  1  0.82474536  0.90290052  0.43230246  1
  H+  H357  1  0.35771791  0.13906406  0.67509012  1
  H+  H358  1  0.97874784  0.94484368  0.96192848  1
  H+  H359  1  0.59234177  0.67165126  0.39866184  1
  H+  H360  1  0.32650080  0.17332479  0.44487985  1
  H+  H361  1  0.90523355  0.60711041  0.98341762  1
  H+  H362  1  0.42158879  0.83806599  0.93087034  1
  H+  H363  1  0.07660913  0.67601194  0.71950596  1
  H+  H364  1  0.33347275  0.67353919  0.10257954  1
  H+  H365  1  0.66972359  0.58110707  0.56428189  1
  H+  H366  1  0.08286034  0.66693197  0.10488785  1
  H+  H367  1  0.08627124  0.66484778  0.43701388  1
  H+  H368  1  0.88834138  0.60809694  0.50144682  1
  H+  H369  1  0.83723771  0.40957356  0.40249837  1
  H+  H370  1  0.39746990  0.08190544  0.93775866  1
  H+  H371  1  0.07908577  0.92378253  0.43631395  1
  H+  H372  1  0.91811351  0.57657880  0.27174672  1
  H+  H373  1  0.88197535  0.82375072  0.17847507  1
  H+  H374  1  0.60986598  0.04534238  0.58539441  1
  H+  H375  1  0.59854251  0.93075394  0.76849248  1
  H+  H376  1  0.86655978  0.13180740  0.16413042  1
  H+  H377  1  0.16037707  0.57593817  0.23002853  1
  H+  H378  1  0.41530886  0.33493152  0.60181275  1
  H+  H379  1  0.91755170  0.31305438  0.56867523  1
  H+  H380  1  0.33980593  0.67454174  0.73758808  1
  H+  H381  1  0.33123179  0.91905432  0.43824940  1
  H+  H382  1  0.35980286  0.43159845  0.09916295  1
  H+  H383  1  0.17470452  0.83237980  0.56506149  1
  O2-  O384  1  0.09573928  0.17403248  0.15361126  1
  O2-  O385  1  0.07944821  0.16418295  0.47425249  1
  O2-  O386  1  0.07756861  0.16714670  0.80653523  1
  O2-  O387  1  0.08573789  0.41140325  0.14264761  1
  O2-  O388  1  0.18216248  0.44930731  0.46809192  1
  O2-  O389  1  0.07126537  0.41820856  0.81428591  1
  O2-  O390  1  0.08240188  0.66477989  0.15016813  1
  O2-  O391  1  0.08960204  0.66848901  0.48293291  1
  O2-  O392  1  0.08215550  0.68145964  0.80044907  1
  O2-  O393  1  0.07555080  0.90648661  0.15902328  1
  O2-  O394  1  0.07867875  0.93129050  0.48098241  1
  O2-  O395  1  0.07723967  0.92121876  0.80619544  1
  O2-  O396  1  0.32216826  0.15868804  0.14081540  1
  O2-  O397  1  0.32840632  0.16762065  0.48963142  1
  O2-  O398  1  0.31923037  0.16822469  0.81141210  1
  O2-  O399  1  0.37829557  0.43936241  0.14294408  1
  O2-  O400  1  0.32818815  0.42282392  0.51147054  1
  O2-  O401  1  0.33180575  0.41795134  0.80574908  1
  O2-  O402  1  0.33266781  0.67222710  0.14803745  1
  O2-  O403  1  0.34811391  0.67242573  0.47991640  1
  O2-  O404  1  0.33738853  0.66730196  0.82058720  1
  O2-  O405  1  0.30231805  0.85918039  0.12985147  1
  O2-  O406  1  0.32939125  0.91394143  0.48430874  1
  O2-  O407  1  0.32234115  0.90740925  0.81050467  1
  O2-  O408  1  0.59368648  0.17048835  0.15748494  1
  O2-  O409  1  0.57831932  0.17063713  0.47565294  1
  O2-  O410  1  0.65300078  0.21328723  0.79618280  1
  O2-  O411  1  0.53902485  0.45263620  0.13905314  1
  O2-  O412  1  0.56182841  0.40537709  0.48326737  1
  O2-  O413  1  0.58369463  0.42371691  0.80973708  1
  O2-  O414  1  0.58074232  0.68296874  0.15137893  1
  O2-  O415  1  0.58908053  0.66241188  0.47651535  1
  O2-  O416  1  0.58419359  0.66500835  0.81378329  1
  O2-  O417  1  0.58469069  0.91941805  0.14835185  1
  O2-  O418  1  0.56333697  0.91177323  0.46413894  1
  O2-  O419  1  0.58906312  0.92362482  0.81350181  1
  O2-  O420  1  0.83776612  0.16271965  0.14866635  1
  O2-  O421  1  0.80250542  0.15028300  0.48256135  1
  O2-  O422  1  0.82003041  0.16038632  0.81494630  1
  O2-  O423  1  0.82989979  0.40350468  0.14759771  1
  O2-  O424  1  0.85140099  0.41611737  0.47851933  1
  O2-  O425  1  0.84195679  0.41794321  0.80608069  1
  O2-  O426  1  0.81926177  0.72171104  0.15720748  1
  O2-  O427  1  0.83563446  0.66099879  0.47791472  1
  O2-  O428  1  0.83655159  0.65802694  0.81393844  1
  O2-  O429  1  0.89374072  1.00398918  0.15355097  1
  O2-  O430  1  0.82528259  0.90185805  0.47780434  1
  O2-  O431  1  0.83001084  0.91831386  0.80019368  1
  O2-  O432  1  0.18173686  0.09837617  0.18737910  1
  O2-  O433  1  0.15948855  0.08815715  0.52302992  1
  O2-  O434  1  0.15698602  0.08454900  0.85468384  1
  O2-  O435  1  0.18189476  0.34099356  0.18638524  1
  O2-  O436  1  0.08641146  0.30353197  0.53111659  1
  O2-  O437  1  0.16795508  0.34102946  0.83402558  1
  O2-  O438  1  0.16581106  0.58013228  0.18394270  1
  O2-  O439  1  0.17973200  0.58659559  0.52020973  1
  O2-  O440  1  0.17524372  0.57026841  0.88501796  1
  O2-  O441  1  0.15834268  0.82182521  0.20211576  1
  O2-  O442  1  0.18027851  0.82649614  0.51935961  1
  O2-  O443  1  0.15787351  0.83979086  0.85465299  1
  O2-  O444  1  0.43921985  0.09508924  0.19980800  1
  O2-  O445  1  0.41352604  0.08706496  0.52621524  1
  O2-  O446  1  0.33632594  0.04915131  0.87025378  1
  O2-  O447  1  0.41327062  0.31353906  0.19284429  1
  O2-  O448  1  0.40549917  0.32890645  0.52673368  1
  O2-  O449  1  0.41515753  0.33442852  0.85059555  1
  O2-  O450  1  0.42111469  0.59811981  0.18953143  1
  O2-  O451  1  0.42998785  0.59501704  0.52480399  1
  O2-  O452  1  0.41812002  0.58080563  0.85430795  1
  O2-  O453  1  0.42038381  0.84045727  0.18446574  1
  O2-  O454  1  0.41794719  0.84288606  0.51267671  1
  O2-  O455  1  0.42123423  0.83829395  0.85076399  1
  O2-  O456  1  0.67501949  0.08650974  0.18707440  1
  O2-  O457  1  0.63971359  0.06642447  0.50799002  1
  O2-  O458  1  0.67615036  0.08250626  0.85757921  1
  O2-  O459  1  0.67127693  0.31771670  0.19313824  1
  O2-  O460  1  0.69614957  0.33462471  0.51899407  1
  O2-  O461  1  0.67934336  0.35606286  0.84715608  1
  O2-  O462  1  0.65633345  0.59298172  0.19513822  1
  O2-  O463  1  0.67075077  0.57856066  0.51903571  1
  O2-  O464  1  0.66781941  0.58194976  0.85726629  1
  O2-  O465  1  0.65463081  0.83570016  0.19826300  1
  O2-  O466  1  0.65747969  0.82658729  0.51637085  1
  O2-  O467  1  0.66745220  0.83412103  0.85267734  1
  O2-  O468  1  0.93046224  0.08217813  0.19138173  1
  O2-  O469  1  0.91734639  0.07335054  0.50590469  1
  O2-  O470  1  0.90522124  0.07722177  0.83973430  1
  O2-  O471  1  0.92166103  0.32823316  0.18624265  1
  O2-  O472  1  0.93067259  0.31862511  0.52398348  1
  O2-  O473  1  0.90601192  0.31801363  0.85249929  1
  O2-  O474  1  0.91638177  0.57148563  0.19829955  1
  O2-  O475  1  0.92181978  0.58160281  0.51795910  1
  O2-  O476  1  0.93535815  0.57725913  0.84925060  1
  O2-  O477  1  0.92530953  0.88284187  0.19326631  1
  O2-  O478  1  0.91183176  0.82533403  0.52277176  1
  O2-  O479  1  0.91268138  0.83333768  0.84504523  1
  O2-  O480  1  0.16728204  0.07735161  0.30615008  1
  O2-  O481  1  0.16323820  0.08277541  0.64514494  1
  O2-  O482  1  0.16946800  0.08600093  0.97917003  1
  O2-  O483  1  0.18022899  0.32757152  0.30545120  1
  O2-  O484  1  0.16393352  0.33647016  0.64137238  1
  O2-  O485  1  0.16947537  0.31801250  0.99093952  1
  O2-  O486  1  0.14973510  0.56924494  0.30288030  1
  O2-  O487  1  0.17855237  0.59650741  0.64437601  1
  O2-  O488  1  0.16654334  0.57901335  1.00713491  1
  O2-  O489  1  0.16825130  0.82700807  0.32488418  1
  O2-  O490  1  0.16740251  0.83907900  0.63705926  1
  O2-  O491  1  0.17309277  0.83615706  0.97991597  1
  O2-  O492  1  0.42034745  0.09128182  0.31951714  1
  O2-  O493  1  0.41244214  0.08968908  0.65040564  1
  O2-  O494  1  0.41675445  0.09203228  0.98092951  1
  O2-  O495  1  0.43084772  0.32709135  0.31690623  1
  O2-  O496  1  0.41839639  0.33851423  0.64775356  1
  O2-  O497  1  0.41664310  0.33566876  0.97634174  1
  O2-  O498  1  0.42244591  0.57258603  0.31662776  1
  O2-  O499  1  0.41977152  0.59261033  0.65077546  1
  O2-  O500  1  0.41214321  0.58550602  0.97864655  1
  O2-  O501  1  0.44296310  0.89440211  0.29358102  1
  O2-  O502  1  0.41488757  0.84060626  0.64390682  1
  O2-  O503  1  0.42138995  0.83969809  0.97631418  1
  O2-  O504  1  0.68215411  0.10023464  0.30712924  1
  O2-  O505  1  0.58785327  0.03080158  0.62803597  1
  O2-  O506  1  0.67236744  0.07951516  0.97601533  1
  O2-  O507  1  0.66641847  0.31555620  0.31517923  1
  O2-  O508  1  0.66908933  0.32960362  0.64348258  1
  O2-  O509  1  0.67371107  0.34604705  0.97178784  1
  O2-  O510  1  0.66998075  0.58098747  0.31552266  1
  O2-  O511  1  0.66751957  0.58470735  0.64515426  1
  O2-  O512  1  0.65870232  0.58309328  0.97762969  1
  O2-  O513  1  0.65904834  0.83288270  0.30873414  1
  O2-  O514  1  0.67038829  0.83262364  0.64270074  1
  O2-  O515  1  0.65900959  0.82825498  0.97664651  1
  O2-  O516  1  0.91961950  0.08147631  0.31723595  1
  O2-  O517  1  0.91420594  0.09440006  0.63306942  1
  O2-  O518  1  0.91218045  0.05563761  1.03744832  1
  O2-  O519  1  0.92890505  0.34418350  0.30629117  1
  O2-  O520  1  0.90399509  0.29859749  0.64562858  1
  O2-  O521  1  0.91274106  0.32331758  0.97586464  1
  O2-  O522  1  0.91844055  0.58101222  0.31793276  1
  O2-  O523  1  0.91083294  0.57283087  0.64056294  1
  O2-  O524  1  0.93643441  0.57757225  0.97283401  1
  O2-  O525  1  0.91905961  0.83636230  0.31347714  1
  O2-  O526  1  0.91701997  0.83424628  0.64490134  1
  O2-  O527  1  0.95103379  0.88543769  0.97607449  1
  O2-  O528  1  0.08621470  0.15778017  0.03264006  1
  O2-  O529  1  0.08939809  0.16266880  0.35069420  1
  O2-  O530  1  0.07896826  0.16735144  0.68038048  1
  O2-  O531  1  0.07852546  0.40698141  0.01696983  1
  O2-  O532  1  0.11087372  0.41226867  0.36351631  1
  O2-  O533  1  0.10087580  0.42949633  0.68631656  1
  O2-  O534  1  0.08771214  0.66681686  0.02391299  1
  O2-  O535  1  0.08213412  0.65899117  0.36148791  1
  O2-  O536  1  0.08090341  0.67155372  0.67480954  1
  O2-  O537  1  0.10959846  0.93054675  0.03069716  1
  O2-  O538  1  0.08357990  0.91149690  0.35559964  1
  O2-  O539  1  0.08354711  0.91771764  0.68316480  1
  O2-  O540  1  0.33446996  0.17336204  0.01976114  1
  O2-  O541  1  0.30509083  0.19706375  0.36974056  1
  O2-  O542  1  0.32757885  0.16993084  0.68999995  1
  O2-  O543  1  0.34035233  0.42067495  0.02399292  1
  O2-  O544  1  0.35542133  0.41003482  0.34253644  1
  O2-  O545  1  0.33352202  0.42108180  0.68383352  1
  O2-  O546  1  0.33659874  0.67715591  0.02144306  1
  O2-  O547  1  0.46987382  0.75472511  0.37607459  1
  O2-  O548  1  0.34302192  0.67962953  0.69255666  1
  O2-  O549  1  0.34068096  0.92429662  0.01519135  1
  O2-  O550  1  0.33330853  0.92672154  0.36430900  1
  O2-  O551  1  0.32703317  0.91830871  0.68575109  1
  O2-  O552  1  0.59538668  0.18219438  -0.00584742  1
  O2-  O553  1  0.56916440  0.14162254  0.35583173  1
  O2-  O554  1  0.58380517  0.16492623  0.68287406  1
  O2-  O555  1  0.56893380  0.37614130  0.03617538  1
  O2-  O556  1  0.59532003  0.41483734  0.35688428  1
  O2-  O557  1  0.58709526  0.41798100  0.68384179  1
  O2-  O558  1  0.57535905  0.66696299  0.02523183  1
  O2-  O559  1  0.59584399  0.67539417  0.35307141  1
  O2-  O560  1  0.58777763  0.66937907  0.68812624  1
  O2-  O561  1  0.58396767  0.91764298  0.02307397  1
  O2-  O562  1  0.59640476  0.92583139  0.35006565  1
  O2-  O563  1  0.64382208  0.95613209  0.69664585  1
  O2-  O564  1  0.83420059  0.16023767  0.02598647  1
  O2-  O565  1  0.84734702  0.17719833  0.35705568  1
  O2-  O566  1  0.84123184  0.20804553  0.65846961  1
  O2-  O567  1  0.83538016  0.41194418  0.02196092  1
  O2-  O568  1  0.82955851  0.40931331  0.35706078  1
  O2-  O569  1  0.83763797  0.40245739  0.68128106  1
  O2-  O570  1  0.80072788  0.70601372  0.02964066  1
  O2-  O571  1  0.83682285  0.66699131  0.35266463  1
  O2-  O572  1  0.83661972  0.66378578  0.68448610  1
  O2-  O573  1  0.80591657  0.85569639  0.04074732  1
  O2-  O574  1  0.82776773  0.91223012  0.35459540  1
  O2-  O575  1  0.83574119  0.92326445  0.67898308  1
