# generated using pymatgen
data_H2O
_symmetry_space_group_name_H-M   'P 1'
_cell_length_a   17.97710942
_cell_length_b   17.98765534
_cell_length_c   21.97490650
_cell_angle_alpha   90.02967049
_cell_angle_beta   89.98748376
_cell_angle_gamma   119.97950851
_symmetry_Int_Tables_number   1
_chemical_formula_structural   H2O
_chemical_formula_sum   'H384 O192'
_cell_volume   6155.19288221
_cell_formula_units_Z   192
loop_
 _symmetry_equiv_pos_site_id
 _symmetry_equiv_pos_as_xyz
  1  'x, y, z'
loop_
 _atom_type_symbol
 _atom_type_oxidation_number
  H+  1.0
  O2-  -2.0
loop_
 _atom_site_type_symbol
 _atom_site_label
 _atom_site_symmetry_multiplicity
 _atom_site_fract_x
 _atom_site_fract_y
 _atom_site_fract_z
 _atom_site_occupancy
  H+  H0  1  0.90505290  0.07163242  0.59496329  1
  H+  H1  1  0.64190666  0.52450404  0.00309813  1
  H+  H2  1  0.54090315  0.39181609  0.04054543  1
  H+  H3  1  0.61111149  0.64201372  0.48924684  1
  H+  H4  1  0.89446908  0.74270821  0.48231480  1
  H+  H5  1  0.11560454  0.73530488  0.81415241  1
  H+  H6  1  0.35537715  -0.05545454  0.50258598  1
  H+  H7  1  0.37542459  0.52769547  0.99468279  1
  H+  H8  1  0.86494055  0.63821471  0.00529226  1
  H+  H9  1  0.74449234  0.62461712  0.32380862  1
  H+  H10  1  0.26209369  0.86535643  0.66340329  1
  H+  H11  1  0.35733160  0.35059108  0.96423193  1
  H+  H12  1  0.01449618  0.37609062  0.67318209  1
  H+  H13  1  0.62488554  0.22848461  0.67651082  1
  H+  H14  1  0.17129286  0.54661712  0.29534640  1
  H+  H15  1  0.13476207  0.55023535  0.98011444  1
  H+  H16  1  0.62601392  0.77404010  0.50473926  1
  H+  H17  1  0.37529460  0.61714068  1.00177879  1
  H+  H18  1  0.82787526  0.15792311  0.05726931  1
  H+  H19  1  0.37520486  0.67203023  0.34810031  1
  H+  H20  1  0.22583629  0.65949042  0.22530373  1
  H+  H21  1  0.11636373  0.64870669  0.81534152  1
  H+  H22  1  0.88240381  0.76676974  0.99601204  1
  H+  H23  1  0.77441018  0.88409240  0.66969206  1
  H+  H24  1  0.12086102  0.59084342  0.65327240  1
  H+  H25  1  0.26260182  0.64636881  -0.00016164  1
  H+  H26  1  0.63364779  0.86189591  0.32617718  1
  H+  H27  1  1.01956344  0.88154118  1.00128282  1
  H+  H28  1  0.04358089  0.91350107  0.89244181  1
  H+  H29  1  0.38148686  0.86265213  1.00031810  1
  H+  H30  1  0.14609196  1.03366745  0.83460578  1
  H+  H31  1  0.62693427  0.73529267  0.33500649  1
  H+  H32  1  0.09508143  0.95343126  0.36170056  1
  H+  H33  1  0.86692364  0.47134160  0.48680435  1
  H+  H34  1  0.08160636  0.75487356  0.15965973  1
  H+  H35  1  0.40232893  0.12628035  0.15972045  1
  H+  H36  1  0.07000540  0.15702022  0.43071047  1
  H+  H37  1  0.78400709  0.72376906  0.86342052  1
  H+  H38  1  0.78012910  0.39115110  0.01664050  1
  H+  H39  1  0.74064675  0.11326170  0.33590999  1
  H+  H40  1  0.17975570  0.43539299  0.17189722  1
  H+  H41  1  0.08195394  0.41703828  0.26699950  1
  H+  H42  1  0.10672181  0.65087695  1.00209136  1
  H+  H43  1  0.38120977  0.35438311  0.65761080  1
  H+  H44  1  0.75883084  0.88522138  0.15555416  1
  H+  H45  1  0.62441233  0.13334359  0.33699568  1
  H+  H46  1  0.13191286  -0.09919262  0.15946356  1
  H+  H47  1  0.22202350  0.58404328  0.50214097  1
  H+  H48  1  0.14912273  0.62041040  0.31136903  1
  H+  H49  1  0.02711610  0.15106957  0.83393380  1
  H+  H50  1  0.16295788  0.03938039  0.29093098  1
  H+  H51  1  0.92935886  0.69731231  0.14962780  1
  H+  H52  1  0.71407886  0.86470032  0.83877682  1
  H+  H53  1  0.65055620  0.12092486  0.85121475  1
  H+  H54  1  0.40689534  0.03123822  0.31046438  1
  H+  H55  1  0.35871935  0.88439296  0.82235768  1
  H+  H56  1  0.41183457  0.33366923  0.55878413  1
  H+  H57  1  0.37360862  0.14454833  0.33062416  1
  H+  H58  1  0.98832525  0.39924868  0.98466749  1
  H+  H59  1  0.36572008  0.55092410  0.18656512  1
  H+  H60  1  0.60647947  0.37533832  0.82381959  1
  H+  H61  1  0.86041691  0.96915372  0.34351385  1
  H+  H62  1  0.87345608  0.86949020  0.18285545  1
  H+  H63  1  0.10795433  0.71048019  0.33543981  1
  H+  H64  1  0.23365287  0.83804305  0.49708135  1
  H+  H65  1  0.63194805  0.52591677  0.50241716  1
  H+  H66  1  0.77809266  0.12625896  0.67565694  1
  H+  H67  1  0.63582181  0.60133660  0.66765004  1
  H+  H68  1  0.38175834  0.01380940  0.83219097  1
  H+  H69  1  0.88609758  0.25861545  0.65377327  1
  H+  H70  1  0.12666342  0.28734474  0.84483541  1
  H+  H71  1  0.86478817  0.38122388  0.34570378  1
  H+  H72  1  0.95671734  0.72750780  0.44125745  1
  H+  H73  1  0.74139745  0.39640075  0.51884910  1
  H+  H74  1  0.59809760  0.87067975  -0.00268534  1
  H+  H75  1  0.10440332  0.11492759  0.14743070  1
  H+  H76  1  0.48244611  0.48767175  0.07572806  1
  H+  H77  1  0.84967138  0.42438094  0.07190605  1
  H+  H78  1  0.97864053  0.59450788  0.30982488  1
  H+  H79  1  0.47105521  0.35483109  0.65741056  1
  H+  H80  1  0.53052954  0.82759543  0.38660497  1
  H+  H81  1  0.37828885  0.52263917  0.84343924  1
  H+  H82  1  0.49598750  0.12306660  0.67124864  1
  H+  H83  1  0.07721878  0.65658610  0.72089438  1
  H+  H84  1  0.11087821  0.99440675  0.50693244  1
  H+  H85  1  0.75855230  0.87053920  0.00021332  1
  H+  H86  1  -0.03697384  0.08073055  -0.01171191  1
  H+  H87  1  0.08740076  0.36549603  0.47021124  1
  H+  H88  1  0.26711074  0.38432838  0.48821422  1
  H+  H89  1  0.77925530  0.63977449  0.17676376  1
  H+  H90  1  0.28554581  0.37879351  0.33763490  1
  H+  H91  1  0.51344928  0.63422034  1.01339042  1
  H+  H92  1  0.37851377  0.64169715  0.66974534  1
  H+  H93  1  0.67858585  0.34129194  0.61353105  1
  H+  H94  1  0.69716706  0.71002541  0.72318227  1
  H+  H95  1  0.64956775  0.77385047  0.66396821  1
  H+  H96  1  0.14167757  0.86843699  -0.01013980  1
  H+  H97  1  0.12689954  0.26956851  0.49824769  1
  H+  H98  1  0.35598553  0.24803670  0.48045351  1
  H+  H99  1  0.22808015  1.10334105  0.65723670  1
  H+  H100  1  0.58961668  0.16603003  0.05636514  1
  H+  H101  1  0.91048665  0.31967235  0.59430986  1
  H+  H102  1  1.02124868  0.12883296  0.33594134  1
  H+  H103  1  0.40559942  0.28180751  0.31058593  1
  H+  H104  1  0.96353003  0.34973521  0.49641519  1
  H+  H105  1  0.14566296  0.82719896  0.47264431  1
  H+  H106  1  0.63261106  0.60892757  1.00257032  1
  H+  H107  1  0.90574478  0.83237163  0.27099826  1
  H+  H108  1  0.97802261  0.62451720  0.98870546  1
  H+  H109  1  0.10798778  0.73837831  0.00078240  1
  H+  H110  1  0.08433038  0.18868846  -0.00003223  1
  H+  H111  1  0.17439499  0.84082822  0.89740216  1
  H+  H112  1  0.03076236  0.52240866  0.13853309  1
  H+  H113  1  0.36517033  0.22952929  0.14450996  1
  H+  H114  1  0.62149854  0.22024006  0.34630363  1
  H+  H115  1  0.35669491  0.21846882  -0.01221946  1
  H+  H116  1  0.12790075  0.36275942  0.65531072  1
  H+  H117  1  0.69202710  0.54628022  0.17668729  1
  H+  H118  1  0.13503231  0.09992598  0.98759502  1
  H+  H119  1  0.33589557  0.18195003  0.38192186  1
  H+  H120  1  0.22893900  0.61904323  0.82887539  1
  H+  H121  1  0.38565475  0.25786454  0.81851203  1
  H+  H122  1  0.73123542  0.35207100  0.67449386  1
  H+  H123  1  0.09679358  0.39200252  0.82650777  1
  H+  H124  1  0.89585668  0.79429048  0.17903607  1
  H+  H125  1  0.56623452  0.12120947  0.42896578  1
  H+  H126  1  0.85363517  0.87640393  0.34423671  1
  H+  H127  1  0.85795550  0.21385183  0.49743203  1
  H+  H128  1  0.86993000  0.23377285  0.82659618  1
  H+  H129  1  0.63066812  0.09823129  0.99181639  1
  H+  H130  1  0.71996570  0.61351586  0.51039877  1
  H+  H131  1  0.39795427  0.12432264  0.66488881  1
  H+  H132  1  0.49525703  0.35688399  0.82023090  1
  H+  H133  1  0.36374492  0.64063436  0.82774371  1
  H+  H134  1  0.61342743  0.37585879  0.67681131  1
  H+  H135  1  0.77559276  0.63771586  0.01301075  1
  H+  H136  1  0.29856077  0.66039227  0.06728379  1
  H+  H137  1  0.38339392  0.37058615  0.50163364  1
  H+  H138  1  0.62701229  -0.02352878  0.68248022  1
  H+  H139  1  0.72708023  0.86852462  0.32730402  1
  H+  H140  1  0.57483462  0.41574460  0.17530186  1
  H+  H141  1  0.73388423  0.36099224  0.33010642  1
  H+  H142  1  0.87683072  0.10515517  0.51051249  1
  H+  H143  1  0.63474888  1.00279151  0.15729142  1
  H+  H144  1  0.87815804  0.01622436  0.83737731  1
  H+  H145  1  0.88276538  0.10893946  0.84326382  1
  H+  H146  1  0.86468312  0.71995081  0.32809478  1
  H+  H147  1  0.15708225  0.40473945  0.14609687  1
  H+  H148  1  0.53853416  0.38255957  0.33314301  1
  H+  H149  1  0.21783765  0.36586571  0.64909000  1
  H+  H150  1  0.13480549  0.58446283  0.49682942  1
  H+  H151  1  0.55913515  0.62236175  0.17255518  1
  H+  H152  1  0.52264636  0.13195483  0.00060558  1
  H+  H153  1  0.51223031  0.88817162  0.17442673  1
  H+  H154  1  0.11205926  0.97083406  0.66442435  1
  H+  H155  1  0.65439783  0.64687987  0.16010172  1
  H+  H156  1  0.33527373  0.45916982  0.14255819  1
  H+  H157  1  0.22954312  0.86471804  0.99473698  1
  H+  H158  1  0.38763875  0.60845760  0.49987155  1
  H+  H159  1  0.86290542  0.88146120  0.67229565  1
  H+  H160  1  0.36679424  0.13039857  0.81753460  1
  H+  H161  1  0.84109901  0.57124668  0.64573174  1
  H+  H162  1  0.37963751  0.79685796  0.33733001  1
  H+  H163  1  -0.03839653  0.84911684  0.33386120  1
  H+  H164  1  0.87510812  0.75855095  0.83305614  1
  H+  H165  1  0.38528163  0.51783863  0.49938205  1
  H+  H166  1  0.49261585  0.11859783  0.32179161  1
  H+  H167  1  0.87591402  1.01416698  0.50971518  1
  H+  H168  1  0.63499639  0.36391731  0.33523997  1
  H+  H169  1  0.63217884  -0.00344198  0.51055785  1
  H+  H170  1  0.21301713  0.33807778  0.16382059  1
  H+  H171  1  0.12245909  0.23383287  0.67789050  1
  H+  H172  1  0.15745636  0.35517212  0.90069139  1
  H+  H173  1  0.87959711  0.10514316  0.66257014  1
  H+  H174  1  -0.03188869  0.87095241  0.51583974  1
  H+  H175  1  0.66010651  0.35996563  0.18447104  1
  H+  H176  1  0.14226510  0.32636369  1.01527960  1
  H+  H177  1  0.63652327  0.77076919  0.17432456  1
  H+  H178  1  0.59546580  0.67159913  0.39335200  1
  H+  H179  1  0.33368119  0.91500728  0.07134130  1
  H+  H180  1  0.78319054  0.14394138  0.83015874  1
  H+  H181  1  0.38687817  0.10711764  -0.01128825  1
  H+  H182  1  0.12417800  0.11965322  0.50626852  1
  H+  H183  1  0.12988178  0.84924131  0.64211386  1
  H+  H184  1  0.27819137  0.13301080  0.81678610  1
  H+  H185  1  0.52649730  0.39219482  0.49180959  1
  H+  H186  1  0.88703952  0.39677687  0.17063034  1
  H+  H187  1  0.36420829  0.73003471  0.82600651  1
  H+  H188  1  0.13568230  0.86963001  0.84418863  1
  H+  H189  1  0.58475587  0.17700223  0.90541658  1
  H+  H190  1  0.44842907  0.35912458  0.96651971  1
  H+  H191  1  0.40556251  0.36718709  0.14057093  1
  H+  H192  1  0.38847858  0.08001720  0.52472559  1
  H+  H193  1  0.36234084  -0.02802326  1.01030625  1
  H+  H194  1  0.65129242  1.02630802  0.32755218  1
  H+  H195  1  0.53862986  0.13827355  0.15154573  1
  H+  H196  1  0.62075040  0.88561427  0.68408079  1
  H+  H197  1  0.86216550  0.36508166  0.67209750  1
  H+  H198  1  0.00996735  0.12950910  0.49142557  1
  H+  H199  1  0.15043756  0.02527374  0.15403737  1
  H+  H200  1  0.51479540  0.63673305  0.83229709  1
  H+  H201  1  0.98059820  0.36229805  0.37543565  1
  H+  H202  1  0.62264013  0.76477026  -0.00780059  1
  H+  H203  1  0.47808704  0.60092037  0.64777252  1
  H+  H204  1  0.02281182  0.42145876  0.18348145  1
  H+  H205  1  0.23465567  0.39310258  -0.01146977  1
  H+  H206  1  0.87068145  0.22033867  0.35566021  1
  H+  H207  1  0.36051389  0.46887445  0.66438100  1
  H+  H208  1  0.84817847  0.39542600  0.73702361  1
  H+  H209  1  0.87499501  0.34989218  0.50194901  1
  H+  H210  1  0.37654774  0.77031293  0.00091946  1
  H+  H211  1  0.28076032  0.60477782  0.16567534  1
  H+  H212  1  0.24325856  0.12919583  0.30702460  1
  H+  H213  1  0.47038709  0.10394478  0.84334404  1
  H+  H214  1  0.96641730  0.84896209  0.65869365  1
  H+  H215  1  0.36802571  0.89888247  0.16647999  1
  H+  H216  1  0.76872199  0.12151321  0.50489235  1
  H+  H217  1  0.31759127  0.96535191  0.36983338  1
  H+  H218  1  0.83241774  0.15317466  0.41063535  1
  H+  H219  1  0.89110101  0.44934326  0.83688285  1
  H+  H220  1  0.12630867  0.84223808  0.33755157  1
  H+  H221  1  0.64846079  0.64372680  0.85381142  1
  H+  H222  1  0.37858771  0.38930220  0.33991534  1
  H+  H223  1  0.74683040  0.45547875  0.57243659  1
  H+  H224  1  0.82427074  0.56039655  0.80044184  1
  H+  H225  1  0.51973019  0.63501060  0.48423077  1
  H+  H226  1  0.27185974  0.88875131  0.82064254  1
  H+  H227  1  0.22735927  0.10520272  -0.01257148  1
  H+  H228  1  0.14284027  0.26888522  0.32399637  1
  H+  H229  1  0.47265266  0.86720733  0.84287890  1
  H+  H230  1  0.21933073  0.85082218  0.34172194  1
  H+  H231  1  0.04497686  0.69689588  0.10129138  1
  H+  H232  1  0.76231899  0.88005651  0.49709434  1
  H+  H233  1  0.37569007  0.88384950  0.34193560  1
  H+  H234  1  0.09435144  0.18674682  0.77966112  1
  H+  H235  1  0.12844030  0.14926193  0.68479929  1
  H+  H236  1  0.11410106  0.42519610  1.00854573  1
  H+  H237  1  0.71019037  0.08248245  1.00516962  1
  H+  H238  1  0.34487396  0.38118313  0.81933730  1
  H+  H239  1  0.36819184  0.71883597  0.49954474  1
  H+  H240  1  0.11281630  0.13403507  0.33370894  1
  H+  H241  1  0.13532859  0.53378448  0.83078628  1
  H+  H242  1  0.47314947  0.07474730  0.51285436  1
  H+  H243  1  0.75304094  0.35596907  0.84758622  1
  H+  H244  1  0.59426893  0.87601151  0.16581050  1
  H+  H245  1  0.87232754  0.01279600  0.17349187  1
  H+  H246  1  0.61164186  0.97958059  0.83068841  1
  H+  H247  1  0.41961299  0.65107421  0.18109721  1
  H+  H248  1  0.64445921  0.27453997  0.99340214  1
  H+  H249  1  0.65263310  0.10969939  0.66330310  1
  H+  H250  1  0.32170813  0.31289716  0.18021620  1
  H+  H251  1  0.62609390  0.86846628  0.84185319  1
  H+  H252  1  0.48671081  0.63976443  0.32970425  1
  H+  H253  1  0.87920405  1.00937207  0.65951128  1
  H+  H254  1  0.02657989  0.61176753  0.48850373  1
  H+  H255  1  0.34076530  0.43665154  -0.05931827  1
  H+  H256  1  0.76363246  0.61656709  0.67443658  1
  H+  H257  1  0.85465535  0.70048519  0.67438145  1
  H+  H258  1  0.89206133  0.59648769  0.30142616  1
  H+  H259  1  0.36888025  0.22168541  0.66455822  1
  H+  H260  1  0.38427281  0.76042468  0.66177241  1
  H+  H261  1  0.15957385  0.23794494  0.16762787  1
  H+  H262  1  0.23439035  0.87190023  0.17950274  1
  H+  H263  1  0.62268361  0.40817344  0.50304751  1
  H+  H264  1  0.50025028  0.87114419  0.00009283  1
  H+  H265  1  0.28205165  0.13752268  0.14057248  1
  H+  H266  1  0.88666081  0.10414336  0.33289257  1
  H+  H267  1  0.59943003  0.73117046  0.83346020  1
  H+  H268  1  0.65152445  0.63332048  0.32099827  1
  H+  H269  1  0.26029277  0.38963938  0.82627287  1
  H+  H270  1  0.88911766  0.38840752  0.99116540  1
  H+  H271  1  0.82325470  0.90883561  0.43791655  1
  H+  H272  1  0.35038765  0.15888737  0.47331634  1
  H+  H273  1  0.15196435  0.33354741  0.55425300  1
  H+  H274  1  0.90647083  0.61385353  0.49731626  1
  H+  H275  1  0.50369418  0.88211976  0.34762261  1
  H+  H276  1  0.61961761  0.23864061  0.85048255  1
  H+  H277  1  0.89209503  0.53305596  0.99524134  1
  H+  H278  1  0.33961620  0.44880830  0.17541161  1
  H+  H279  1  0.11746208  0.69709218  0.48417879  1
  H+  H280  1  0.62650711  0.13481522  0.14733983  1
  H+  H281  1  0.48568658  0.86561565  0.51505126  1
  H+  H282  1  0.85065752  0.48748872  0.64780460  1
  H+  H283  1  0.10839365  0.90736294  0.52455271  1
  H+  H284  1  0.21678856  0.12784346  0.50149292  1
  H+  H285  1  0.83566710  0.86681841  0.82683199  1
  H+  H286  1  0.38955639  0.84995872  0.50740754  1
  H+  H287  1  0.55395006  0.04019672  0.46569166  1
  H+  H288  1  0.89004403  0.81012983  0.93220660  1
  H+  H289  1  0.35872898  0.78222617  0.19618661  1
  H+  H290  1  0.84861840  0.86815541  0.00052698  1
  H+  H291  1  0.32213602  0.89916017  0.72335566  1
  H+  H292  1  0.67785360  0.07942254  0.90303063  1
  H+  H293  1  0.97383968  0.32157451  0.19622741  1
  H+  H294  1  0.58186920  0.66413728  0.06893999  1
  H+  H295  1  0.96048549  0.35273450  0.30513552  1
  H+  H296  1  0.06779085  0.41515648  0.76215423  1
  H+  H297  1  0.13075266  0.54777390  0.13899608  1
  H+  H298  1  0.60825892  0.46323948  0.67385054  1
  H+  H299  1  0.40923048  0.83354442  0.90040764  1
  H+  H300  1  0.14816100  0.40291648  0.30485436  1
  H+  H301  1  0.82400942  0.40954574  0.43029198  1
  H+  H302  1  0.33231914  0.41137888  0.43063701  1
  H+  H303  1  0.43282745  0.10095898  0.22128905  1
  H+  H304  1  0.07335996  0.46419729  0.05784880  1
  H+  H305  1  0.82108815  0.91070355  0.09741859  1
  H+  H306  1  0.92071703  0.36467515  0.92185784  1
  H+  H307  1  0.16559867  0.08635412  0.60140963  1
  H+  H308  1  0.62303416  0.38387620  0.01707040  1
  H+  H309  1  0.68339358  0.07811288  0.60328773  1
  H+  H310  1  0.11015421  -0.02871843  0.99744027  1
  H+  H311  1  0.09238961  0.45368980  0.47125076  1
  H+  H312  1  0.17260977  0.83946497  0.23857558  1
  H+  H313  1  0.40767669  0.32080377  0.87787416  1
  H+  H314  1  0.43027845  0.34630497  0.25529042  1
  H+  H315  1  0.40976689  0.06769466  0.93213585  1
  H+  H316  1  0.08824488  0.90318484  0.71773126  1
  H+  H317  1  0.59061250  0.40743897  0.39808865  1
  H+  H318  1  0.59222751  0.93387440  0.44720584  1
  H+  H319  1  0.32343170  0.41313210  0.72447021  1
  H+  H320  1  0.85824982  0.09010587  0.18721590  1
  H+  H321  1  0.34020176  0.16916314  0.05211567  1
  H+  H322  1  0.65748588  0.11208169  0.52418411  1
  H+  H323  1  0.57632986  0.40015004  0.75935050  1
  H+  H324  1  0.84612610  0.65859781  0.38421546  1
  H+  H325  1  0.06206716  0.13637166  0.06254354  1
  H+  H326  1  0.18386787  0.09848646  0.20761752  1
  H+  H327  1  0.32348507  0.89870296  0.43322108  1
  H+  H328  1  0.07017602  0.90336962  0.42231177  1
  H+  H329  1  0.16036419  0.81582889  0.58492318  1
  H+  H330  1  0.59888256  0.16618875  0.73445753  1
  H+  H331  1  0.66480581  0.82849523  0.60195579  1
  H+  H332  1  0.01685853  0.12111036  0.15748693  1
  H+  H333  1  0.10261435  0.46788170  0.67184598  1
  H+  H334  1  0.66794216  0.32216902  0.26914508  1
  H+  H335  1  0.69357171  0.60729540  0.25781404  1
  H+  H336  1  0.58264416  0.91825073  0.77154349  1
  H+  H337  1  0.92636499  0.53319936  0.20548181  1
  H+  H338  1  0.86686324  -0.01122623  0.98638970  1
  H+  H339  1  0.07836607  0.64034809  0.38856017  1
  H+  H340  1  0.65262750  0.57110981  0.60242553  1
  H+  H341  1  0.84405997  0.16206621  0.73330381  1
  H+  H342  1  0.90351208  0.05997723  0.92240474  1
  H+  H343  1  0.68479640  0.61376819  0.90932930  1
  H+  H344  1  0.86407127  0.46800758  0.32971417  1
  H+  H345  1  0.63099527  0.86623535  0.51209493  1
  H+  H346  1  0.35049033  0.67255906  0.73076310  1
  H+  H347  1  0.41187173  0.82497950  0.59813718  1
  H+  H348  1  0.43063168  0.07498559  0.61162868  1
  H+  H349  1  0.90291018  0.56206787  0.55745782  1
  H+  H350  1  0.18532233  0.09232384  0.89104601  1
  H+  H351  1  0.19003878  0.30980889  0.26173114  1
  H+  H352  1  0.33464299  0.67246984  0.43599451  1
  H+  H353  1  0.40067091  0.42527161  0.03795389  1
  H+  H354  1  0.90155337  0.81754050  0.60310169  1
  H+  H355  1  0.87270871  0.85510888  0.50835192  1
  H+  H356  1  0.36777282  0.85056162  0.65884956  1
  H+  H357  1  0.68556156  0.34770598  0.94119238  1
  H+  H358  1  0.86139259  0.69029099  0.10110949  1
  H+  H359  1  0.90941535  0.07143504  0.27103926  1
  H+  H360  1  0.74734748  0.08872302  0.09347636  1
  H+  H361  1  0.37214898  0.98955926  0.15850661  1
  H+  H362  1  0.28232768  0.66153922  0.33896631  1
  H+  H363  1  0.10347973  0.70487488  0.65850822  1
  H+  H364  1  0.41799030  0.57636185  0.58951183  1
  H+  H365  1  0.66260137  0.83407545  0.23135137  1
  H+  H366  1  0.90850128  0.56621279  0.89894030  1
  H+  H367  1  0.17076913  0.60752429  0.92030113  1
  H+  H368  1  0.34100659  0.16114838  0.72492780  1
  H+  H369  1  0.65210933  0.82591634  0.93182426  1
  H+  H370  1  0.82630861  0.91083760  0.76607359  1
  H+  H371  1  0.74159215  0.43413874  0.85395188  1
  H+  H372  1  0.09741721  0.91922383  0.09664290  1
  H+  H373  1  0.62508915  0.43078711  0.11343981  1
  H+  H374  1  0.60010924  -0.03378865  0.99693992  1
  H+  H375  1  0.00884776  0.89656610  0.82619185  1
  H+  H376  1  0.97971872  0.38365889  0.82960326  1
  H+  H377  1  0.64577086  0.26387070  0.18130311  1
  H+  H378  1  0.14993022  0.55326108  0.59743138  1
  H+  H379  1  0.40966336  0.60943859  0.28264089  1
  H+  H380  1  0.71735371  0.08817389  0.23849867  1
  H+  H381  1  0.40992033  0.85216015  0.24732685  1
  H+  H382  1  0.60501496  0.67395647  0.74917600  1
  H+  H383  1  0.40811863  0.58404842  0.90340560  1
  O2-  O384  1  0.07251828  0.14626101  0.13559852  1
  O2-  O385  1  0.07038744  0.15954483  0.47620296  1
  O2-  O386  1  0.08727282  0.19211230  0.82445121  1
  O2-  O387  1  0.07127724  0.50065581  0.13032464  1
  O2-  O388  1  0.05511510  0.39387448  0.45588648  1
  O2-  O389  1  0.06499912  0.41984220  0.80886602  1
  O2-  O390  1  0.02855316  0.70741065  0.14168474  1
  O2-  O391  1  0.08403869  0.63742663  0.46836868  1
  O2-  O392  1  0.08526923  0.67628480  0.79814698  1
  O2-  O393  1  0.10628432  0.93333924  0.14043119  1
  O2-  O394  1  0.07927381  0.92957541  0.49917711  1
  O2-  O395  1  0.06106168  0.91615803  0.85002263  1
  O2-  O396  1  0.34452641  0.17047948  0.12830924  1
  O2-  O397  1  0.32032410  0.18874831  0.46077770  1
  O2-  O398  1  0.33990518  0.16266712  0.79927126  1
  O2-  O399  1  0.44534309  0.42684985  0.06665977  1
  O2-  O400  1  0.32932854  0.41367971  0.47688383  1
  O2-  O401  1  0.32101570  0.41861493  0.81047695  1
  O2-  O402  1  0.24278582  0.62253550  0.14451266  1
  O2-  O403  1  0.33667447  0.66091220  0.48051721  1
  O2-  O404  1  0.33589520  0.67073844  0.80868829  1
  O2-  O405  1  0.33820154  0.92746568  0.14723358  1
  O2-  O406  1  0.32927134  0.88847525  0.48197929  1
  O2-  O407  1  0.33193843  0.91645475  0.80413978  1
  O2-  O408  1  0.59903003  0.16896096  0.13578167  1
  O2-  O409  1  0.55202934  0.09338879  0.46998840  1
  O2-  O410  1  0.58869301  0.17739744  0.86091967  1
  O2-  O411  1  0.63258041  0.43721681  0.15898909  1
  O2-  O412  1  0.58729387  0.42451067  0.47715156  1
  O2-  O413  1  0.56890830  0.39506693  0.80625888  1
  O2-  O414  1  0.60954490  0.66254907  0.14924630  1
  O2-  O415  1  0.58135283  0.67033619  0.47051621  1
  O2-  O416  1  0.57635709  0.67046647  0.81952106  1
  O2-  O417  1  0.56946295  0.91259745  0.15465357  1
  O2-  O418  1  0.58922474  0.93248752  0.49189614  1
  O2-  O419  1  0.57723092  0.91850233  0.81816405  1
  O2-  O420  1  0.74697698  0.08993431  0.19965134  1
  O2-  O421  1  0.83000530  0.15207320  0.48463987  1
  O2-  O422  1  0.84384043  0.17256097  0.81483455  1
  O2-  O423  1  0.86524989  0.43230817  0.15208252  1
  O2-  O424  1  0.82717851  0.40979769  0.47554868  1
  O2-  O425  1  0.86484697  0.38795124  0.82140507  1
  O2-  O426  1  0.87337510  0.69708462  0.14574149  1
  O2-  O427  1  0.89821179  0.69746091  0.45722459  1
  O2-  O428  1  0.81455379  0.53757387  0.84214972  1
  O2-  O429  1  0.82037640  0.91517241  0.14231775  1
  O2-  O430  1  0.82390198  0.90888405  0.48353868  1
  O2-  O431  1  0.82192330  0.91072314  0.81148967  1
  O2-  O432  1  0.17897990  0.09151771  0.16288837  1
  O2-  O433  1  0.16024620  0.09443104  0.52184885  1
  O2-  O434  1  0.18928742  0.09240571  0.84596824  1
  O2-  O435  1  0.21089198  0.28936250  0.18518105  1
  O2-  O436  1  0.15579554  0.33152955  0.50886826  1
  O2-  O437  1  0.15781269  0.35161326  0.85587089  1
  O2-  O438  1  0.25168438  0.69159284  0.18576628  1
  O2-  O439  1  0.16004263  0.54963577  0.51202027  1
  O2-  O440  1  0.16932757  0.59372570  0.84559787  1
  O2-  O441  1  0.17374340  0.84535844  0.19367286  1
  O2-  O442  1  0.16800905  0.80682703  0.50497159  1
  O2-  O443  1  0.17234326  0.84450343  0.85185698  1
  O2-  O444  1  0.43345002  0.09744081  0.17627100  1
  O2-  O445  1  0.42007971  0.05297007  0.53986331  1
  O2-  O446  1  0.40809349  0.07339948  0.85108143  1
  O2-  O447  1  0.38227429  0.32649635  0.17522259  1
  O2-  O448  1  0.41506439  0.33886412  0.51360766  1
  O2-  O449  1  0.41722348  0.32151453  0.83230875  1
  O2-  O450  1  0.36960352  0.60448901  0.20119519  1
  O2-  O451  1  0.41941834  0.57872319  0.51440341  1
  O2-  O452  1  0.41078175  0.58323451  0.85817831  1
  O2-  O453  1  0.40714017  0.84156517  0.20215698  1
  O2-  O454  1  0.42422126  0.82638749  0.52692919  1
  O2-  O455  1  0.41064122  0.83456573  0.85529250  1
  O2-  O456  1  0.68045894  0.06988716  0.15313120  1
  O2-  O457  1  0.68377858  0.07786878  0.53562601  1
  O2-  O458  1  0.68038634  0.08800654  0.85777978  1
  O2-  O459  1  0.67251364  0.31841658  0.20514459  1
  O2-  O460  1  0.70377161  0.40484712  0.54860851  1
  O2-  O461  1  0.70806636  0.36971092  0.86034712  1
  O2-  O462  1  0.71621396  0.60739583  0.18954981  1
  O2-  O463  1  0.65944521  0.58485364  0.52179128  1
  O2-  O464  1  0.69827095  0.63860987  0.86783977  1
  O2-  O465  1  0.65776000  0.83120147  0.18591743  1
  O2-  O466  1  0.65872844  0.83188200  0.52413232  1
  O2-  O467  1  0.65525609  0.83572769  0.85660427  1
  O2-  O468  1  0.90159619  0.07213031  0.19180834  1
  O2-  O469  1  0.90793544  0.07407722  0.52632981  1
  O2-  O470  1  0.90799219  0.07346255  0.85824045  1
  O2-  O471  1  0.98479863  0.37599873  0.21362764  1
  O2-  O472  1  0.90552700  0.31999263  0.51697472  1
  O2-  O473  1  0.91462024  0.35165829  0.85015276  1
  O2-  O474  1  0.93685020  0.52010571  0.16328755  1
  O2-  O475  1  0.92381410  0.57369206  0.51412737  1
  O2-  O476  1  0.89818167  0.54405068  0.85548030  1
  O2-  O477  1  0.90560923  0.84509269  0.20331131  1
  O2-  O478  1  0.90668393  0.82768600  0.52289062  1
  O2-  O479  1  0.84400931  0.77868937  0.85826064  1
  O2-  O480  1  0.18285893  0.10067635  0.29045329  1
  O2-  O481  1  0.16668794  0.07570261  0.64584762  1
  O2-  O482  1  0.16737535  0.07343689  0.97072245  1
  O2-  O483  1  0.18203272  0.32454992  0.30381518  1
  O2-  O484  1  0.15751172  0.33475261  0.63478308  1
  O2-  O485  1  0.16927153  0.37460503  0.98729101  1
  O2-  O486  1  0.19419523  0.61031468  0.29257211  1
  O2-  O487  1  0.14749589  0.55499211  0.64225677  1
  O2-  O488  1  0.17015407  0.61063587  0.96626525  1
  O2-  O489  1  0.16027096  0.81788866  0.32080506  1
  O2-  O490  1  0.16144989  0.81967018  0.62988794  1
  O2-  O491  1  0.17220403  0.83844784  0.97436880  1
  O2-  O492  1  0.43292904  0.09319090  0.30409645  1
  O2-  O493  1  0.43362069  0.09217419  0.65602958  1
  O2-  O494  1  0.41697897  0.07486491  0.97718248  1
  O2-  O495  1  0.44126104  0.34351491  0.29911040  1
  O2-  O496  1  0.41126453  0.32389860  0.64148007  1
  O2-  O497  1  0.39104353  0.32011086  0.95067314  1
  O2-  O498  1  0.42598839  0.62405067  0.32543486  1
  O2-  O499  1  0.41800039  0.57417645  0.63576035  1
  O2-  O500  1  0.40962107  0.59103614  0.98664931  1
  O2-  O501  1  0.41021589  0.85858255  0.32320960  1
  O2-  O502  1  0.40521126  0.82331192  0.64433567  1
  O2-  O503  1  0.41059190  0.83045324  0.98426138  1
  O2-  O504  1  0.68260096  0.08618975  0.31446331  1
  O2-  O505  1  0.68363911  0.07981985  0.65124626  1
  O2-  O506  1  0.65673027  0.06299784  0.97884702  1
  O2-  O507  1  0.66992992  0.32849955  0.31802146  1
  O2-  O508  1  0.67062061  0.32576794  0.65786405  1
  O2-  O509  1  0.67629410  0.33793452  0.98587001  1
  O2-  O510  1  0.68383209  0.60301503  0.30427221  1
  O2-  O511  1  0.65360870  0.56317170  0.64720235  1
  O2-  O512  1  0.66887924  0.58465250  0.98872227  1
  O2-  O513  1  0.66741554  0.83664348  0.30940625  1
  O2-  O514  1  0.67389018  0.83256109  0.64717625  1
  O2-  O515  1  0.65142222  0.82578944  0.97789620  1
  O2-  O516  1  0.91495564  0.07251493  0.31648273  1
  O2-  O517  1  0.90592987  0.07064331  0.64251470  1
  O2-  O518  1  0.90281568  0.05207429  0.97067703  1
  O2-  O519  1  0.93314969  0.33720067  0.34546840  1
  O2-  O520  1  0.91109038  0.31912747  0.64003009  1
  O2-  O521  1  0.92541755  0.36598609  0.96871041  1
  O2-  O522  1  0.91938568  0.56204678  0.29172363  1
  O2-  O523  1  0.84078987  0.52486770  0.61980281  1
  O2-  O524  1  0.91615328  0.58880541  0.97390828  1
  O2-  O525  1  0.90251068  0.82083988  0.31768331  1
  O2-  O526  1  0.90416831  0.81876819  0.64851059  1
  O2-  O527  1  0.90707505  0.82507279  0.97563112  1
  O2-  O528  1  0.05959811  0.13063027  0.01610119  1
  O2-  O529  1  0.08169819  0.16092637  0.35191511  1
  O2-  O530  1  0.10381318  0.18191712  0.70324591  1
  O2-  O531  1  0.07539326  0.45000254  0.01385422  1
  O2-  O532  1  0.12134660  0.43958412  0.30183395  1
  O2-  O533  1  0.07299487  0.40685985  0.69136919  1
  O2-  O534  1  0.07350240  0.67810757  0.01646445  1
  O2-  O535  1  0.07863606  0.64696036  0.34335717  1
  O2-  O536  1  0.07356230  0.64673333  0.67590017  1
  O2-  O537  1  0.08105134  0.91089795  0.01308567  1
  O2-  O538  1  0.06672732  0.89488379  0.37718899  1
  O2-  O539  1  0.07988168  0.90739483  0.67429799  1
  O2-  O540  1  0.33357339  0.16098862  0.00667783  1
  O2-  O541  1  0.34260933  0.17686413  0.33724479  1
  O2-  O542  1  0.34509824  0.16042919  0.67885787  1
  O2-  O543  1  0.32814916  0.41632363  -0.01729458  1
  O2-  O544  1  0.34220055  0.40985272  0.35821294  1
  O2-  O545  1  0.32843814  0.40869110  0.67985769  1
  O2-  O546  1  0.31765876  0.66843155  0.02432480  1
  O2-  O547  1  0.33780089  0.69623051  0.36148499  1
  O2-  O548  1  0.35578117  0.67779643  0.68559007  1
  O2-  O549  1  0.33240945  0.91157660  0.02543480  1
  O2-  O550  1  0.31044350  0.90820177  0.37238856  1
  O2-  O551  1  0.32260754  0.89410636  0.67828999  1
  O2-  O552  1  0.58576605  0.16397390  0.01060511  1
  O2-  O553  1  0.58911599  0.15748654  0.35428559  1
  O2-  O554  1  0.59251791  0.16556031  0.69038141  1
  O2-  O555  1  0.60371657  0.42071351  0.03884690  1
  O2-  O556  1  0.59601719  0.40324936  0.35303150  1
  O2-  O557  1  0.57850782  0.40255490  0.68990773  1
  O2-  O558  1  0.57603310  0.66173065  0.02403418  1
  O2-  O559  1  0.60085821  0.67341061  0.34764099  1
  O2-  O560  1  0.63771351  0.68454167  0.70932514  1
  O2-  O561  1  0.56709560  0.90297142  0.01046781  1
  O2-  O562  1  0.55657612  0.88304441  0.36585289  1
  O2-  O563  1  0.59519005  0.91848761  0.70123138  1
  O2-  O564  1  0.78121872  0.09869243  0.05492968  1
  O2-  O565  1  0.83665816  0.15784262  0.36445578  1
  O2-  O566  1  0.84166841  0.15581620  0.68812573  1
  O2-  O567  1  0.84278835  0.42339493  0.02664948  1
  O2-  O568  1  0.83011818  0.41035510  0.35036587  1
  O2-  O569  1  0.83332300  0.39374591  0.69364055  1
  O2-  O570  1  0.83778938  0.66991381  0.02397415  1
  O2-  O571  1  0.83594328  0.65646202  0.33967063  1
  O2-  O572  1  0.82395980  0.63993502  0.68775870  1
  O2-  O573  1  0.81987524  0.90157817  0.01396453  1
  O2-  O574  1  0.82507871  0.90881432  0.35900264  1
  O2-  O575  1  0.83517878  0.91528990  0.68629232  1
