# generated using pymatgen
data_H2O
_symmetry_space_group_name_H-M   'P 1'
_cell_length_a   17.99386568
_cell_length_b   17.99723000
_cell_length_c   22.00583501
_cell_angle_alpha   89.99618470
_cell_angle_beta   89.97916037
_cell_angle_gamma   119.99809114
_symmetry_Int_Tables_number   1
_chemical_formula_structural   H2O
_chemical_formula_sum   'H384 O192'
_cell_volume   6171.73019212
_cell_formula_units_Z   192
loop_
 _symmetry_equiv_pos_site_id
 _symmetry_equiv_pos_as_xyz
  1  'x, y, z'
loop_
 _atom_type_symbol
 _atom_type_oxidation_number
  H+  1.0
  O2-  -2.0
loop_
 _atom_site_type_symbol
 _atom_site_label
 _atom_site_symmetry_multiplicity
 _atom_site_fract_x
 _atom_site_fract_y
 _atom_site_fract_z
 _atom_site_occupancy
  H+  H0  1  0.64998287  0.11526306  0.83225014  1
  H+  H1  1  0.85242135  0.63469838  0.68662342  1
  H+  H2  1  0.23614477  0.37222780  0.99070294  1
  H+  H3  1  0.12260079  0.85934982  0.17124296  1
  H+  H4  1  0.83022541  0.41949766  0.06393698  1
  H+  H5  1  0.34134913  0.04999290  0.74107633  1
  H+  H6  1  0.86438421  0.47592103  0.83400907  1
  H+  H7  1  0.72645115  0.61401056  0.98319743  1
  H+  H8  1  0.91473465  0.91860052  0.65964304  1
  H+  H9  1  0.21558959  0.36590323  0.02151702  1
  H+  H10  1  0.86012242  0.39529245  0.17057961  1
  H+  H11  1  0.98035519  0.62018527  0.84118955  1
  H+  H12  1  0.10991707  0.73883368  0.15647591  1
  H+  H13  1  0.52107905  0.64297912  0.17724922  1
  H+  H14  1  0.96985774  0.85644930  0.84160412  1
  H+  H15  1  0.52296038  0.38427375  0.15679787  1
  H+  H16  1  0.14212518  0.02300693  0.32440538  1
  H+  H17  1  0.64395075  0.27557705  -0.01119400  1
  H+  H18  1  0.77108129  0.89273556  0.00180824  1
  H+  H19  1  0.87145648  0.53010918  0.65983963  1
  H+  H20  1  0.22249627  0.87207531  0.85181835  1
  H+  H21  1  0.81854168  0.33503790  0.47847073  1
  H+  H22  1  0.96627621  0.83927326  0.66108851  1
  H+  H23  1  0.39092049  0.78493991  0.18065092  1
  H+  H24  1  -0.03520945  0.62630174  0.16288097  1
  H+  H25  1  0.34857561  0.64370496  0.17709023  1
  H+  H26  1  0.70908641  0.34424666  0.51453138  1
  H+  H27  1  0.39178138  0.10490544  0.30966308  1
  H+  H28  1  0.62957235  0.52572979  0.16658656  1
  H+  H29  1  0.53525492  0.59876402  0.54048722  1
  H+  H30  1  0.84797658  0.64356052  0.15444827  1
  H+  H31  1  0.64827286  0.50761059  0.63372707  1
  H+  H32  1  0.35921383  0.24701232  0.86297441  1
  H+  H33  1  0.26047514  0.72856413  0.44081556  1
  H+  H34  1  0.88003723  0.50803242  0.47481668  1
  H+  H35  1  0.83718064  0.49439496  0.48986533  1
  H+  H36  1  0.88755083  0.27189302  0.83789164  1
  H+  H37  1  0.45266117  0.35893243  0.61698609  1
  H+  H38  1  0.47622489  0.85952542  0.33963455  1
  H+  H39  1  0.41434917  0.59598812  0.12832336  1
  H+  H40  1  0.09073280  0.46373448  0.01372576  1
  H+  H41  1  0.38878505  0.35374279  0.31596741  1
  H+  H42  1  0.14017920  0.02312644  0.99195862  1
  H+  H43  1  0.36943540  0.23002389  1.00191516  1
  H+  H44  1  0.10137291  0.47252945  0.48174889  1
  H+  H45  1  0.84886842  0.22843883  0.48771041  1
  H+  H46  1  -0.03403216  0.09492563  0.17688978  1
  H+  H47  1  0.77726817  0.14192574  0.81760996  1
  H+  H48  1  0.98274339  0.60525452  0.31674398  1
  H+  H49  1  0.89462181  0.59345382  0.52788092  1
  H+  H50  1  0.02914514  0.63310975  0.46857789  1
  H+  H51  1  0.27986908  0.64687847  0.67042261  1
  H+  H52  1  0.37569263  0.28405759  0.52567565  1
  H+  H53  1  0.82095078  0.90368709  0.50548187  1
  H+  H54  1  0.38332420  0.98895422  0.15249775  1
  H+  H55  1  0.88350245  0.52998640  0.99393667  1
  H+  H56  1  -0.00103190  0.37842419  0.01760659  1
  H+  H57  1  0.37794363  0.78294890  0.49107807  1
  H+  H58  1  0.53205742  0.38455034  0.33867314  1
  H+  H59  1  0.62024910  0.65400893  0.44714339  1
  H+  H60  1  0.65225342  1.02767061  0.82855100  1
  H+  H61  1  0.27287317  0.65896363  0.19885244  1
  H+  H62  1  0.66945744  0.33393666  0.92753894  1
  H+  H63  1  0.63625235  0.85853210  0.83729837  1
  H+  H64  1  0.51049179  0.38157817  0.49397118  1
  H+  H65  1  0.67478293  1.04802421  0.00884873  1
  H+  H66  1  0.66278559  0.70182412  0.04610936  1
  H+  H67  1  0.62818928  0.91203732  1.01142910  1
  H+  H68  1  0.39985691  0.77894374  0.84242061  1
  H+  H69  1  0.59136062  0.82543492  0.49672701  1
  H+  H70  1  0.34232455  0.42617345  0.76352306  1
  H+  H71  1  0.09293155  0.25457690  0.97803341  1
  H+  H72  1  0.23274324  0.11020989  0.98820290  1
  H+  H73  1  0.61771454  0.14762635  0.16403238  1
  H+  H74  1  0.14354410  0.29485228  0.82609646  1
  H+  H75  1  -0.02249190  0.11073323  0.32801805  1
  H+  H76  1  0.10452697  0.13977808  0.84333686  1
  H+  H77  1  0.35882661  0.37140475  0.17697291  1
  H+  H78  1  0.90400383  0.87140537  0.31442145  1
  H+  H79  1  0.63489164  0.76880926  0.84076028  1
  H+  H80  1  0.59584688  0.42754056  0.75986085  1
  H+  H81  1  0.42631126  0.83113979  0.58840376  1
  H+  H82  1  0.96802672  0.12665726  0.49246061  1
  H+  H83  1  0.63561829  0.80598325  0.59141458  1
  H+  H84  1  0.11086583  0.88291292  0.66982445  1
  H+  H85  1  0.87097612  0.35876406  0.99422133  1
  H+  H86  1  0.43455660  0.00865751  0.86649571  1
  H+  H87  1  0.86249606  0.72898939  0.83248968  1
  H+  H88  1  0.26982539  0.89057448  0.48363679  1
  H+  H89  1  0.62091724  0.47037196  1.00159761  1
  H+  H90  1  0.02011518  0.88506500  0.47125428  1
  H+  H91  1  0.07048637  0.35565589  0.65818937  1
  H+  H92  1  0.30864388  0.68430368  0.40926656  1
  H+  H93  1  0.32210430  0.25349970  0.85535703  1
  H+  H94  1  0.10942695  0.62480532  0.48141885  1
  H+  H95  1  0.09362468  -0.03764367  0.67458935  1
  H+  H96  1  0.62877122  0.48523246  0.81712877  1
  H+  H97  1  0.11576196  0.73498247  0.83389665  1
  H+  H98  1  0.07557044  0.33178813  -0.02364688  1
  H+  H99  1  0.48223357  0.13531027  0.45799220  1
  H+  H100  1  0.73414538  0.36669336  0.83968944  1
  H+  H101  1  0.72386547  0.86830850  0.17732917  1
  H+  H102  1  0.11232753  0.10618966  0.66605650  1
  H+  H103  1  0.36802315  0.64228078  0.67160569  1
  H+  H104  1  0.07657800  0.92031380  0.06601878  1
  H+  H105  1  0.76900765  0.87231371  0.83303925  1
  H+  H106  1  0.52131447  0.67388255  0.52198332  1
  H+  H107  1  0.58652550  0.16152211  0.76896044  1
  H+  H108  1  0.85336463  0.72830192  0.99930290  1
  H+  H109  1  0.77153613  0.39162974  1.00350147  1
  H+  H110  1  0.39013234  0.26619677  0.17093180  1
  H+  H111  1  0.63677114  0.27994943  0.17454077  1
  H+  H112  1  0.15907051  0.24063228  0.68201792  1
  H+  H113  1  0.71875789  0.61704695  0.16642566  1
  H+  H114  1  0.35805936  0.98136684  0.47576990  1
  H+  H115  1  0.87642904  0.79755473  0.48407639  1
  H+  H116  1  0.82326462  0.17395762  0.42515344  1
  H+  H117  1  0.43096624  0.84976027  0.23585189  1
  H+  H118  1  0.10099329  0.14399897  0.49001866  1
  H+  H119  1  0.62091581  0.38161789  0.00332758  1
  H+  H120  1  0.71993638  0.11189373  0.65371120  1
  H+  H121  1  0.63007766  0.35670132  0.52740520  1
  H+  H122  1  0.14343836  0.11135615  0.17527788  1
  H+  H123  1  0.53850457  0.65117066  0.35475482  1
  H+  H124  1  0.62408204  0.22935208  0.82565541  1
  H+  H125  1  0.11540317  0.22515612  0.33035233  1
  H+  H126  1  0.62177025  0.97254480  0.66626028  1
  H+  H127  1  0.64347527  0.36421150  0.83470340  1
  H+  H128  1  0.62953593  0.02300470  0.49164719  1
  H+  H129  1  0.39822539  0.49590689  0.04447693  1
  H+  H130  1  0.65992597  0.08943607  0.23821289  1
  H+  H131  1  0.66327018  0.56891134  0.25942791  1
  H+  H132  1  0.53559141  0.63102344  0.80886957  1
  H+  H133  1  0.22729047  0.61813078  0.84320311  1
  H+  H134  1  0.22840661  0.86180434  0.31870661  1
  H+  H135  1  0.62276079  0.73596878  0.66411770  1
  H+  H136  1  0.09186592  0.32959732  0.65178608  1
  H+  H137  1  0.23229098  0.61968131  0.49546127  1
  H+  H138  1  0.87617217  0.11808735  0.48932056  1
  H+  H139  1  0.86279649  0.38646677  0.83311533  1
  H+  H140  1  0.13105324  0.85968104  0.49196411  1
  H+  H141  1  0.62008370  0.64201088  0.66195889  1
  H+  H142  1  0.27519732  0.38681710  0.30814888  1
  H+  H143  1  0.86062126  0.89191808  0.00250768  1
  H+  H144  1  0.79127806  0.88250774  0.34179539  1
  H+  H145  1  0.49981240  0.40836065  0.85026894  1
  H+  H146  1  0.08597870  0.49869478  0.67786491  1
  H+  H147  1  0.28066217  0.40678562  0.82262759  1
  H+  H148  1  0.79322295  0.36745042  0.41891456  1
  H+  H149  1  0.61791769  0.14000267  0.46538626  1
  H+  H150  1  0.85611201  0.36733855  0.64561047  1
  H+  H151  1  0.48605867  0.36296433  1.00102524  1
  H+  H152  1  0.63317329  0.85165884  0.65356931  1
  H+  H153  1  0.85420325  0.63903641  0.00001770  1
  H+  H154  1  0.77102366  0.12879099  0.16557109  1
  H+  H155  1  0.38966302  0.37938620  0.53250071  1
  H+  H156  1  0.65494216  0.79671553  0.34024847  1
  H+  H157  1  0.36058363  0.86267300  0.65243158  1
  H+  H158  1  0.40712028  0.87026074  0.84805185  1
  H+  H159  1  0.62193262  0.47565312  0.33571029  1
  H+  H160  1  0.09928224  0.38487609  0.48507763  1
  H+  H161  1  0.59364741  0.10923744  0.67610525  1
  H+  H162  1  0.53281780  0.88509784  0.66565521  1
  H+  H163  1  0.10225863  0.39493547  0.16815428  1
  H+  H164  1  0.77122213  0.39107839  0.16110142  1
  H+  H165  1  0.84617941  0.23421986  0.66510474  1
  H+  H166  1  0.43795400  0.11069592  0.52086703  1
  H+  H167  1  0.03453606  0.89199964  0.32963457  1
  H+  H168  1  0.61709332  0.49052128  0.52400861  1
  H+  H169  1  0.13861438  0.28865824  0.49657374  1
  H+  H170  1  0.22634615  0.35888454  0.16347688  1
  H+  H171  1  0.70616425  0.64992484  0.53865590  1
  H+  H172  1  0.63748570  0.79417077  1.00425616  1
  H+  H173  1  0.60358388  0.94137276  0.07384943  1
  H+  H174  1  0.96093008  0.10139433  0.83763260  1
  H+  H175  1  0.12262117  0.50980360  0.21999983  1
  H+  H176  1  0.14201691  0.63318897  0.66156258  1
  H+  H177  1  0.74060665  0.37858849  0.32036215  1
  H+  H178  1  0.19424823  0.10495165  0.51819356  1
  H+  H179  1  0.49626128  0.89768628  0.99995531  1
  H+  H180  1  0.52497877  0.41019462  0.66585515  1
  H+  H181  1  0.21189421  0.10519565  0.64142858  1
  H+  H182  1  0.37175053  0.64682039  0.81722682  1
  H+  H183  1  0.34826295  0.15099561  0.48483573  1
  H+  H184  1  0.11871711  0.64720348  0.83154629  1
  H+  H185  1  0.87856692  0.73650152  0.30673897  1
  H+  H186  1  0.38902900  0.87393648  0.50023787  1
  H+  H187  1  0.53346807  0.89874954  0.16356533  1
  H+  H188  1  0.30785489  0.13269091  0.62542816  1
  H+  H189  1  0.37381567  0.11501878  0.87118946  1
  H+  H190  1  0.11903282  0.13800185  0.33511781  1
  H+  H191  1  0.86311820  0.10962768  0.64237130  1
  H+  H192  1  0.60667933  -0.04900578  0.37459686  1
  H+  H193  1  0.34022719  0.41950174  0.25489804  1
  H+  H194  1  0.39765178  0.53174609  0.81894955  1
  H+  H195  1  0.89720347  0.86541285  0.43111094  1
  H+  H196  1  0.91240951  0.00847965  0.65460686  1
  H+  H197  1  0.62286802  0.90033977  0.16939621  1
  H+  H198  1  0.37172291  0.89235882  0.00849684  1
  H+  H199  1  0.11250909  0.88873634  0.01160082  1
  H+  H200  1  0.82125161  0.11813098  -0.00398992  1
  H+  H201  1  0.10162620  0.45868990  0.32410041  1
  H+  H202  1  0.10313380  0.72945318  0.67220535  1
  H+  H203  1  0.42039829  0.52986571  0.31214553  1
  H+  H204  1  0.12482751  0.60586519  0.99711729  1
  H+  H205  1  -0.02946444  0.86354530  -0.00506396  1
  H+  H206  1  0.07244227  0.19249367  0.88255614  1
  H+  H207  1  0.86988793  0.76615775  0.66280761  1
  H+  H208  1  0.39192261  0.11270174  0.15832396  1
  H+  H209  1  0.94681768  0.37719926  0.65841395  1
  H+  H210  1  -0.02924084  0.36140884  0.30313105  1
  H+  H211  1  0.63535488  0.36923963  0.17196120  1
  H+  H212  1  0.20445540  0.09614829  0.82498303  1
  H+  H213  1  0.01934979  0.64218796  0.00431552  1
  H+  H214  1  0.36866609  0.72910659  0.33110258  1
  H+  H215  1  0.14975926  0.33312856  0.11771519  1
  H+  H216  1  0.63502884  0.62843953  0.82054416  1
  H+  H217  1  0.21745163  0.54150147  0.53661676  1
  H+  H218  1  0.48601431  0.62386333  0.66841226  1
  H+  H219  1  0.10767266  0.40251191  0.81946735  1
  H+  H220  1  0.85444830  0.21664178  0.32180550  1
  H+  H221  1  0.10646522  0.21167670  0.16239519  1
  H+  H222  1  0.50160173  0.08789555  0.70004952  1
  H+  H223  1  0.13461542  0.53267159  0.84240259  1
  H+  H224  1  0.38162001  0.48796525  0.67358630  1
  H+  H225  1  0.73138711  0.60246471  0.31239664  1
  H+  H226  1  0.29028564  0.42142386  0.51371109  1
  H+  H227  1  0.87973009  0.53661654  0.16467436  1
  H+  H228  1  0.67019079  0.34698459  0.25953506  1
  H+  H229  1  0.60966823  0.63971207  0.17609239  1
  H+  H230  1  0.86517545  0.47640301  0.33517408  1
  H+  H231  1  0.13608867  0.77270550  0.48944324  1
  H+  H232  1  0.81430989  0.66918616  0.09618215  1
  H+  H233  1  0.79370914  0.89386157  0.43764492  1
  H+  H234  1  0.48241639  0.64641079  1.04282668  1
  H+  H235  1  0.63438540  0.14959553  0.01111944  1
  H+  H236  1  0.25498456  0.61996936  1.02287818  1
  H+  H237  1  0.26942522  0.36268562  0.64890686  1
  H+  H238  1  0.87819802  -0.02875999  0.34890215  1
  H+  H239  1  0.41520446  0.41488938  0.85262880  1
  H+  H240  1  0.39081461  0.26669446  0.33012922  1
  H+  H241  1  0.13396491  0.14147243  0.00607117  1
  H+  H242  1  0.12726416  0.35620203  0.31941165  1
  H+  H243  1  0.89626928  0.60984680  0.31326518  1
  H+  H244  1  0.09950165  0.96956488  0.82725553  1
  H+  H245  1  0.15519447  0.63488303  0.28574903  1
  H+  H246  1  0.38201261  0.62387699  1.04489609  1
  H+  H247  1  0.34839857  0.97554109  0.70357404  1
  H+  H248  1  0.12255934  0.72939149  0.31958009  1
  H+  H249  1  0.94358859  0.11440384  0.98735642  1
  H+  H250  1  0.37768763  0.52694275  0.18023248  1
  H+  H251  1  0.38571446  0.50278939  0.52015518  1
  H+  H252  1  0.39621887  1.02963345  0.00853131  1
  H+  H253  1  0.41361936  0.15192154  0.85763263  1
  H+  H254  1  0.63363721  0.78395936  0.18964200  1
  H+  H255  1  0.51142334  0.88477952  0.47462525  1
  H+  H256  1  0.86732785  0.01759196  0.98982462  1
  H+  H257  1  0.62690492  0.06737772  0.32742138  1
  H+  H258  1  0.63576210  0.03192973  0.17935908  1
  H+  H259  1  0.21467447  0.85078990  0.63943923  1
  H+  H260  1  0.65533850  0.23561574  0.44623138  1
  H+  H261  1  0.85532527  0.95980815  0.82378429  1
  H+  H262  1  0.27588523  0.88531304  1.01354807  1
  H+  H263  1  0.71607658  0.11270185  0.49561749  1
  H+  H264  1  0.30681147  0.85269846  0.79747052  1
  H+  H265  1  0.87738312  0.09568838  0.17487962  1
  H+  H266  1  0.84967244  0.67767069  0.53085455  1
  H+  H267  1  0.13643390  0.77675671  1.00040338  1
  H+  H268  1  0.39548301  0.40509115  0.02931650  1
  H+  H269  1  0.86518354  0.13529843  0.33588767  1
  H+  H270  1  0.95909852  0.36286887  0.50307089  1
  H+  H271  1  0.86364807  0.13919507  0.81425453  1
  H+  H272  1  0.97238365  0.37191176  0.20865187  1
  H+  H273  1  0.36447267  -0.02935567  0.32645545  1
  H+  H274  1  0.74077562  0.62638652  0.83464730  1
  H+  H275  1  0.52098095  0.09788429  0.86075937  1
  H+  H276  1  0.66927645  0.81147491  0.50061019  1
  H+  H277  1  0.27936708  0.13442343  0.15511846  1
  H+  H278  1  0.85871039  0.26428594  0.99545764  1
  H+  H279  1  0.38410588  0.89488558  0.16050074  1
  H+  H280  1  0.27076395  0.12343265  0.33548305  1
  H+  H281  1  0.40067806  0.40957812  0.68019842  1
  H+  H282  1  0.48593918  0.11970245  0.16118509  1
  H+  H283  1  0.39114487  0.86385808  0.32642935  1
  H+  H284  1  0.44059018  0.60082088  0.87162323  1
  H+  H285  1  0.64195960  0.37720302  0.32649939  1
  H+  H286  1  0.10502826  -0.02893736  0.48815392  1
  H+  H287  1  0.39772981  0.77226860  0.64951893  1
  H+  H288  1  0.15957808  0.57734076  0.94086220  1
  H+  H289  1  0.42920125  0.12238279  0.60874629  1
  H+  H290  1  0.96727870  0.61660743  0.67565960  1
  H+  H291  1  0.91564575  0.58918492  0.93442323  1
  H+  H292  1  0.13969171  0.86357383  0.32176797  1
  H+  H293  1  0.34593699  0.91732430  0.09270036  1
  H+  H294  1  0.66769246  0.58771911  0.89019732  1
  H+  H295  1  0.88978023  0.61725489  0.84090111  1
  H+  H296  1  0.81955175  0.91059675  0.10076208  1
  H+  H297  1  0.44585143  0.07890755  0.94973796  1
  H+  H298  1  0.75420120  0.60597055  0.69280849  1
  H+  H299  1  0.44030744  0.59911743  0.60601148  1
  H+  H300  1  0.59968649  0.15676720  0.36288547  1
  H+  H301  1  0.59678774  0.17972504  0.10123644  1
  H+  H302  1  0.58547004  0.41458359  0.09802722  1
  H+  H303  1  0.68479518  0.46001804  0.67272111  1
  H+  H304  1  0.65852365  0.83650220  0.93694158  1
  H+  H305  1  0.34806785  0.95293037  0.78948677  1
  H+  H306  1  0.79114937  0.65821055  0.47356857  1
  H+  H307  1  0.43528890  0.08431391  0.60261194  1
  H+  H308  1  0.82772476  0.17484403  0.72374709  1
  H+  H309  1  0.94760608  0.86207706  0.25225770  1
  H+  H310  1  0.14838059  0.82422068  0.58576718  1
  H+  H311  1  0.85407872  0.68359523  0.36657784  1
  H+  H312  1  0.70885432  0.37465983  0.61473509  1
  H+  H313  1  0.24091011  0.28582287  0.60426742  1
  H+  H314  1  0.89127070  0.06988039  0.88949233  1
  H+  H315  1  0.08721148  0.17894553  0.42700698  1
  H+  H316  1  0.10097007  0.65934112  0.37121859  1
  H+  H317  1  0.28200192  0.12926784  0.72466494  1
  H+  H318  1  0.06279780  0.42535475  0.11749648  1
  H+  H319  1  0.85628040  0.38340453  0.32227012  1
  H+  H320  1  0.59911357  0.69699440  0.09624998  1
  H+  H321  1  0.02787246  0.01897460  0.65048205  1
  H+  H322  1  0.41223736  0.58395234  0.94523073  1
  H+  H323  1  0.17833977  0.23372641  0.03329565  1
  H+  H324  1  0.07894794  0.67092895  0.06340842  1
  H+  H325  1  0.16135646  0.83312289  0.22602790  1
  H+  H326  1  0.60436720  0.66750671  0.75056649  1
  H+  H327  1  0.89925214  0.33511012  0.56368188  1
  H+  H328  1  0.07771309  0.90755551  0.76944332  1
  H+  H329  1  0.15133522  0.34278128  0.88570212  1
  H+  H330  1  0.65850655  0.07662800  0.59512250  1
  H+  H331  1  0.09077933  0.91974905  0.39183354  1
  H+  H332  1  0.41623740  0.07274229  0.24954462  1
  H+  H333  1  0.33366724  0.12144304  0.38683187  1
  H+  H334  1  0.28535295  0.82386710  0.69900704  1
  H+  H335  1  0.45054973  0.48858409  0.41861385  1
  H+  H336  1  0.08678578  0.67817571  0.73610580  1
  H+  H337  1  0.90896296  0.32434821  0.90135539  1
  H+  H338  1  0.10397941  0.64678922  0.15832997  1
  H+  H339  1  0.06796032  0.40786227  0.38813420  1
  H+  H340  1  0.30150534  0.19134847  0.44836699  1
  H+  H341  1  0.87901149  0.85584797  0.84219758  1
  H+  H342  1  0.59308606  0.91189059  0.76077120  1
  H+  H343  1  0.42353125  0.32068357  0.23321249  1
  H+  H344  1  0.88940453  0.08021224  0.58043084  1
  H+  H345  1  0.71676028  0.07233561  0.33489356  1
  H+  H346  1  0.53707555  0.88794648  0.82244485  1
  H+  H347  1  0.33629429  0.16690562  0.09364602  1
  H+  H348  1  0.16689684  0.08007557  0.89392571  1
  H+  H349  1  0.91192745  0.07231320  0.27234726  1
  H+  H350  1  0.37340137  0.14205538  0.00320373  1
  H+  H351  1  0.14718747  0.32534254  0.25773174  1
  H+  H352  1  0.44212975  0.61504162  0.27888228  1
  H+  H353  1  0.30207179  0.66145847  0.08557533  1
  H+  H354  1  0.53143799  0.11170507  0.31098559  1
  H+  H355  1  0.91748867  0.63317439  0.59294737  1
  H+  H356  1  0.17597198  0.08537662  0.26622129  1
  H+  H357  1  0.33698330  0.67902989  0.76418475  1
  H+  H358  1  0.34776052  0.41894384  0.12116216  1
  H+  H359  1  0.91349336  0.83405242  0.93431533  1
  H+  H360  1  0.08214547  0.18504532  0.72738771  1
  H+  H361  1  0.43827831  0.85365070  0.94195915  1
  H+  H362  1  0.62889238  0.59640818  0.98178801  1
  H+  H363  1  0.14401137  0.02446186  0.17637522  1
  H+  H364  1  0.33324321  0.91567814  0.38875630  1
  H+  H365  1  0.33826547  0.16039959  0.78454557  1
  H+  H366  1  0.85203406  0.96245328  0.16228995  1
  H+  H367  1  0.53939031  0.13944129  1.01187254  1
  H+  H368  1  0.11569760  0.06453526  0.56586796  1
  H+  H369  1  0.16982958  0.34176392  0.55713351  1
  H+  H370  1  0.57700688  0.41364836  0.43628234  1
  H+  H371  1  0.05003120  0.44323494  0.73796734  1
  H+  H372  1  0.40949638  0.62439344  0.94057789  1
  H+  H373  1  0.68518368  0.84855413  0.27754263  1
  H+  H374  1  0.08478480  0.15287308  0.10519337  1
  H+  H375  1  0.43122645  0.36132633  0.94514338  1
  H+  H376  1  0.82806945  0.66652926  0.77195420  1
  H+  H377  1  0.17148895  0.59972924  0.60299279  1
  H+  H378  1  0.13110344  0.86755268  0.84721800  1
  H+  H379  1  0.40488535  0.47839322  0.41566028  1
  H+  H380  1  0.16748453  0.84055503  0.94403293  1
  H+  H381  1  0.01634118  0.39457850  0.83273151  1
  H+  H382  1  0.28099664  0.64389165  0.31930522  1
  H+  H383  1  0.81173029  0.13907342  0.10102522  1
  O2-  O384  1  0.08031227  0.15074372  0.15024081  1
  O2-  O385  1  0.08605227  0.18557278  0.47202210  1
  O2-  O386  1  0.07347128  0.17306060  0.84127457  1
  O2-  O387  1  0.07001590  0.42542002  0.16250519  1
  O2-  O388  1  0.06805516  0.41293656  0.46698264  1
  O2-  O389  1  0.07498835  0.43301846  0.81459088  1
  O2-  O390  1  0.07777390  0.67713148  0.13959036  1
  O2-  O391  1  0.09030627  0.65927524  0.45911233  1
  O2-  O392  1  0.08846833  0.67687895  0.81492433  1
  O2-  O393  1  0.06425460  0.91790127  0.15164832  1
  O2-  O394  1  0.08510551  0.91419184  0.46841398  1
  O2-  O395  1  0.07506353  0.90835701  0.81512654  1
  O2-  O396  1  0.33951334  0.16517793  0.13916064  1
  O2-  O397  1  0.30920894  0.17470174  0.48913574  1
  O2-  O398  1  0.28955330  0.11033673  0.76629688  1
  O2-  O399  1  0.32996300  0.40551240  0.16658559  1
  O2-  O400  1  0.34757927  0.44257966  0.53150517  1
  O2-  O401  1  0.34158935  0.43489736  0.80880075  1
  O2-  O402  1  0.32115724  0.67946485  0.17004230  1
  O2-  O403  1  0.29273983  0.70008281  0.45149787  1
  O2-  O404  1  0.33920282  0.67698902  0.80958283  1
  O2-  O405  1  0.35419249  0.92497356  0.14078491  1
  O2-  O406  1  0.33072351  0.91903146  0.46847455  1
  O2-  O407  1  0.32869014  0.90507849  0.82138147  1
  O2-  O408  1  0.58892628  0.17859595  0.14657808  1
  O2-  O409  1  0.60326118  0.17837451  0.44157399  1
  O2-  O410  1  0.59544559  0.16744449  0.81424748  1
  O2-  O411  1  0.58413736  0.41681205  0.14350993  1
  O2-  O412  1  0.57199855  0.40995990  0.48139941  1
  O2-  O413  1  0.59391343  0.42450088  0.80435327  1
  O2-  O414  1  0.58288270  0.67647231  0.16655909  1
  O2-  O415  1  0.63334926  0.66018714  0.40366889  1
  O2-  O416  1  0.59960154  0.66136735  0.79857113  1
  O2-  O417  1  0.59475710  0.93197142  0.15114752  1
  O2-  O418  1  0.57272268  0.91060621  0.46027826  1
  O2-  O419  1  0.59654801  0.91362601  0.80620934  1
  O2-  O420  1  0.82502589  0.14205572  0.14461966  1
  O2-  O421  1  0.81720130  0.16924416  0.47022467  1
  O2-  O422  1  0.83922737  0.17581402  0.80216460  1
  O2-  O423  1  0.83134489  0.41906696  0.14562763  1
  O2-  O424  1  0.76925697  0.33355903  0.45649946  1
  O2-  O425  1  0.83064162  0.41554124  0.82064923  1
  O2-  O426  1  0.81149743  0.66823976  0.14088475  1
  O2-  O427  1  0.80728800  0.69210137  0.51076657  1
  O2-  O428  1  0.83064839  0.66678385  0.81834602  1
  O2-  O429  1  0.81458432  0.90407747  0.14536667  1
  O2-  O430  1  0.77084934  0.87720755  0.47909722  1
  O2-  O431  1  0.82792122  0.89703692  0.81659467  1
  O2-  O432  1  0.17888783  0.08562177  0.18888758  1
  O2-  O433  1  0.13126564  0.07084019  0.52123434  1
  O2-  O434  1  0.15219991  0.07767524  0.84985934  1
  O2-  O435  1  0.16109511  0.33120444  0.16096568  1
  O2-  O436  1  0.16417992  0.34875574  0.51307997  1
  O2-  O437  1  0.17124196  0.35381095  0.84258449  1
  O2-  O438  1  0.14804203  0.52566797  0.26147715  1
  O2-  O439  1  0.18855618  0.57201700  0.52237827  1
  O2-  O440  1  0.16821286  0.59249388  0.85950758  1
  O2-  O441  1  0.15624743  0.83137212  0.18098607  1
  O2-  O442  1  0.16412059  0.83116795  0.50665439  1
  O2-  O443  1  0.16210178  0.83918849  0.86551874  1
  O2-  O444  1  0.42319253  0.08257361  0.17266574  1
  O2-  O445  1  0.42431959  0.10739801  0.47739598  1
  O2-  O446  1  0.48045917  0.05344514  0.89036761  1
  O2-  O447  1  0.41917652  0.32565537  0.18824128  1
  O2-  O448  1  0.41793031  0.34339091  0.53714107  1
  O2-  O449  1  0.46119968  0.41630159  0.87804876  1
  O2-  O450  1  0.40620449  0.58967539  0.17424333  1
  O2-  O451  1  0.48919349  0.61254428  0.53449605  1
  O2-  O452  1  0.43809017  0.59647995  0.82708939  1
  O2-  O453  1  0.42697486  0.84777988  0.19033974  1
  O2-  O454  1  0.41652126  0.83929139  0.51091041  1
  O2-  O455  1  0.43679044  0.83852023  0.85847900  1
  O2-  O456  1  0.66316594  0.09319819  0.19371975  1
  O2-  O457  1  0.65417243  0.08118132  0.50899346  1
  O2-  O458  1  0.68407326  0.08745444  0.84325963  1
  O2-  O459  1  0.66656236  0.34078796  0.18993137  1
  O2-  O460  1  0.66734989  0.33810340  0.54651265  1
  O2-  O461  1  0.67097909  0.33367915  0.85300144  1
  O2-  O462  1  0.65746896  0.58452135  0.18398715  1
  O2-  O463  1  0.64386705  0.61018498  0.54887746  1
  O2-  O464  1  0.67394485  0.59397707  0.84454529  1
  O2-  O465  1  0.66637970  0.84635003  0.19888411  1
  O2-  O466  1  0.60890580  0.78698214  0.51595457  1
  O2-  O467  1  0.66042836  0.82588134  0.85949530  1
  O2-  O468  1  0.90730334  0.06670622  0.19381116  1
  O2-  O469  1  0.90725002  0.08845845  0.50312827  1
  O2-  O470  1  0.89802672  0.06877171  0.84477999  1
  O2-  O471  1  0.91149827  0.34737021  0.22199021  1
  O2-  O472  1  0.89927095  0.33010852  0.51774960  1
  O2-  O473  1  0.91655238  0.33096450  0.85652585  1
  O2-  O474  1  0.90449185  0.59724451  0.17668695  1
  O2-  O475  1  0.91945681  0.64914859  0.54825771  1
  O2-  O476  1  0.92069792  0.58876302  0.85756010  1
  O2-  O477  1  0.98657626  0.89027357  0.17182015  1
  O2-  O478  1  0.92035050  0.85449943  0.46825677  1
  O2-  O479  1  0.91055545  0.82551774  0.85878901  1
  O2-  O480  1  0.17517658  0.08536861  0.31185768  1
  O2-  O481  1  0.09682217  0.05359745  0.64087797  1
  O2-  O482  1  0.17148300  0.08260992  0.97427313  1
  O2-  O483  1  0.16007651  0.32994648  0.30119821  1
  O2-  O484  1  0.21770867  0.31625874  0.62685646  1
  O2-  O485  1  0.08240904  0.29087143  0.94986422  1
  O2-  O486  1  0.19535570  0.61932186  0.26314606  1
  O2-  O487  1  0.17574452  0.60544787  0.64754800  1
  O2-  O488  1  0.15163811  0.57071846  0.98572313  1
  O2-  O489  1  0.16726244  0.83119784  0.30506844  1
  O2-  O490  1  0.15269617  0.82694392  0.63102231  1
  O2-  O491  1  0.16969722  0.83946819  0.98942440  1
  O2-  O492  1  0.41627699  0.06973078  0.29503067  1
  O2-  O493  1  0.37455399  0.01976498  0.73574454  1
  O2-  O494  1  0.43128967  0.08896045  0.99250878  1
  O2-  O495  1  0.42368766  0.32479633  0.31230433  1
  O2-  O496  1  0.46287768  0.37192590  0.66101291  1
  O2-  O497  1  0.42501556  0.34006644  0.98813908  1
  O2-  O498  1  0.46725061  0.58868661  0.30389589  1
  O2-  O499  1  0.42717750  0.59482507  0.65052092  1
  O2-  O500  1  0.42467041  0.60408412  1.05628242  1
  O2-  O501  1  0.42484607  0.83593796  0.31310070  1
  O2-  O502  1  0.42713010  0.83291051  0.63379651  1
  O2-  O503  1  0.43599772  0.86387921  0.98580881  1
  O2-  O504  1  0.65567016  0.03146153  0.32641202  1
  O2-  O505  1  0.65881480  0.07251066  0.64004379  1
  O2-  O506  1  0.70679091  0.10898040  0.99188879  1
  O2-  O507  1  0.67566202  0.35033951  0.30632492  1
  O2-  O508  1  0.72758982  0.39756311  0.65734581  1
  O2-  O509  1  0.67083371  0.33584862  0.97368588  1
  O2-  O510  1  0.67042701  0.56213864  0.30375692  1
  O2-  O511  1  0.64731268  0.53164049  0.55968414  1
  O2-  O512  1  0.66583145  0.57616392  0.96515292  1
  O2-  O513  1  0.69758529  0.85160405  0.32180443  1
  O2-  O514  1  0.65274173  0.81343321  0.63524204  1
  O2-  O515  1  0.66607900  0.84928793  0.98154719  1
  O2-  O516  1  0.91533082  0.07756075  0.31778054  1
  O2-  O517  1  0.87728076  0.06788151  0.62462847  1
  O2-  O518  1  0.88579922  0.07691899  0.97199014  1
  O2-  O519  1  0.90940782  0.33350484  0.28854029  1
  O2-  O520  1  0.89091821  0.33820855  0.63769192  1
  O2-  O521  1  0.89802444  0.32386775  0.98191199  1
  O2-  O522  1  0.92007312  0.57210990  0.32266654  1
  O2-  O523  1  0.90869217  0.59757324  0.66014922  1
  O2-  O524  1  0.91273311  0.59103340  0.98000533  1
  O2-  O525  1  0.93697276  0.84540776  0.29564365  1
  O2-  O526  1  0.90971153  0.82030605  0.64236176  1
  O2-  O527  1  0.91027070  0.83445770  0.98006804  1
  O2-  O528  1  0.12120534  0.18436888  0.02670495  1
  O2-  O529  1  0.08700044  0.16690407  0.34890989  1
  O2-  O530  1  0.13439767  0.19041011  0.71013142  1
  O2-  O531  1  0.05948068  0.40529400  0.03250337  1
  O2-  O532  1  0.06790148  0.40108762  0.34285731  1
  O2-  O533  1  0.03475772  0.45021140  0.69591395  1
  O2-  O534  1  0.08066259  0.67017004  0.01782983  1
  O2-  O535  1  0.10030744  0.66602009  0.32685045  1
  O2-  O536  1  0.08102392  0.67172850  0.69084449  1
  O2-  O537  1  0.08165091  0.92090222  0.02118746  1
  O2-  O538  1  0.09466159  0.92135786  0.34620030  1
  O2-  O539  1  0.07969467  0.90625287  0.69306103  1
  O2-  O540  1  0.33772228  0.16830484  0.01512030  1
  O2-  O541  1  0.33315964  0.15176092  0.35029720  1
  O2-  O542  1  0.27257497  0.14646664  0.65146719  1
  O2-  O543  1  0.37196837  0.43438217  0.05480097  1
  O2-  O544  1  0.33767700  0.41339599  0.29933294  1
  O2-  O545  1  0.35687885  0.42806146  0.68918494  1
  O2-  O546  1  0.31197829  0.65187330  0.04299300  1
  O2-  O547  1  0.33106221  0.66950865  0.34686250  1
  O2-  O548  1  0.34099426  0.67670169  0.68482327  1
  O2-  O549  1  0.33671149  0.91667531  0.02850594  1
  O2-  O550  1  0.33315967  0.91087330  0.34363759  1
  O2-  O551  1  0.31284742  0.87131143  0.67029334  1
  O2-  O552  1  0.60066229  0.17649690  0.02476176  1
  O2-  O553  1  0.59282800  0.13551708  0.32036468  1
  O2-  O554  1  0.56135867  0.13382225  0.69654959  1
  O2-  O555  1  0.59198091  0.41287749  0.02075326  1
  O2-  O556  1  0.59168216  0.41484558  0.35485365  1
  O2-  O557  1  0.65326748  0.49299202  0.67691293  1
  O2-  O558  1  0.60983775  0.70369786  0.05028240  1
  O2-  O559  1  0.58070538  0.69696192  0.38308037  1
  O2-  O560  1  0.59683371  0.67214137  0.68510332  1
  O2-  O561  1  0.60673051  0.94932345  0.02857832  1
  O2-  O562  1  0.56275522  0.89457500  0.39437457  1
  O2-  O563  1  0.59197048  0.91185190  0.68231157  1
  O2-  O564  1  0.79396277  0.14786265  0.01760754  1
  O2-  O565  1  0.83092388  0.16370321  0.34611620  1
  O2-  O566  1  0.82000496  0.17320439  0.67862801  1
  O2-  O567  1  0.83230926  0.42247976  0.01872465  1
  O2-  O568  1  0.82696577  0.41143673  0.34227810  1
  O2-  O569  1  0.82083262  0.43580864  0.65456073  1
  O2-  O570  1  0.81849722  0.66591451  0.01049128  1
  O2-  O571  1  0.84803992  0.67620854  0.32273595  1
  O2-  O572  1  0.81191137  0.65509718  0.70122116  1
  O2-  O573  1  0.83171653  0.92394510  0.01685443  1
  O2-  O574  1  0.85270199  0.90906100  0.35875841  1
  O2-  O575  1  0.94363468  0.97992333  0.67199302  1
