# generated using pymatgen
data_H2O
_symmetry_space_group_name_H-M   'P 1'
_cell_length_a   17.98820255
_cell_length_b   17.98089208
_cell_length_c   22.00555300
_cell_angle_alpha   89.99930057
_cell_angle_beta   90.01000697
_cell_angle_gamma   119.96934593
_symmetry_Int_Tables_number   1
_chemical_formula_structural   H2O
_chemical_formula_sum   'H384 O192'
_cell_volume   6165.89295537
_cell_formula_units_Z   192
loop_
 _symmetry_equiv_pos_site_id
 _symmetry_equiv_pos_as_xyz
  1  'x, y, z'
loop_
 _atom_type_symbol
 _atom_type_oxidation_number
  H+  1.0
  O2-  -2.0
loop_
 _atom_site_type_symbol
 _atom_site_label
 _atom_site_symmetry_multiplicity
 _atom_site_fract_x
 _atom_site_fract_y
 _atom_site_fract_z
 _atom_site_occupancy
  H+  H0  1  0.62768369  0.39375327  1.00698315  1
  H+  H1  1  0.26413799  0.86687188  0.15757658  1
  H+  H2  1  0.77220939  0.87886691  0.66688532  1
  H+  H3  1  0.62680527  0.10331443  0.17443540  1
  H+  H4  1  0.37315331  0.34254271  0.32036731  1
  H+  H5  1  0.60263960  0.63375016  0.34272610  1
  H+  H6  1  0.61463779  -0.02171321  0.83958928  1
  H+  H7  1  0.85619259  0.97656660  0.01603904  1
  H+  H8  1  0.35874256  0.15146473  0.51066367  1
  H+  H9  1  0.34921232  0.47305019  0.16015682  1
  H+  H10  1  0.61605838  0.63919911  0.82125162  1
  H+  H11  1  0.60947750  0.16468966  0.76670369  1
  H+  H12  1  0.16172647  0.57216293  0.23268091  1
  H+  H13  1  0.64078025  0.10264545  0.33159543  1
  H+  H14  1  0.89120637  0.11733339  0.98987617  1
  H+  H15  1  0.51807489  0.14418005  1.00089400  1
  H+  H16  1  0.60718500  0.62175798  0.16369084  1
  H+  H17  1  0.23268172  0.61808354  0.50124309  1
  H+  H18  1  0.55140703  0.14086043  0.68114507  1
  H+  H19  1  0.10521737  1.00706989  0.82201702  1
  H+  H20  1  0.01556080  0.13306214  0.49547257  1
  H+  H21  1  0.86022887  0.48130486  0.01056317  1
  H+  H22  1  0.73248125  0.61613513  0.99517486  1
  H+  H23  1  0.89528287  0.62444205  0.99484821  1
  H+  H24  1  0.60821397  0.22570787  0.49600376  1
  H+  H25  1  0.91202096  0.34123818  0.23143749  1
  H+  H26  1  0.83657493  0.38752488  0.48942500  1
  H+  H27  1  0.30124706  0.13135459  0.65735985  1
  H+  H28  1  0.78068535  0.65161262  0.67747043  1
  H+  H29  1  0.40967708  0.05562205  0.67644502  1
  H+  H30  1  0.73581099  0.62426331  0.51125376  1
  H+  H31  1  0.68112668  0.36497291  0.83317109  1
  H+  H32  1  0.46400948  0.60127477  0.98875380  1
  H+  H33  1  0.95961992  0.86029307  1.00061963  1
  H+  H34  1  0.19059594  0.35720948  0.56865817  1
  H+  H35  1  0.86735968  0.72711589  0.34757088  1
  H+  H36  1  0.60536792  0.87787411  0.01970039  1
  H+  H37  1  0.58232321  0.66249975  0.75985090  1
  H+  H38  1  0.61271757  0.37873772  0.16895591  1
  H+  H39  1  0.32581799  0.65792440  0.43826552  1
  H+  H40  1  0.35807628  0.22333200  0.80802477  1
  H+  H41  1  0.77750362  0.88470097  0.80896548  1
  H+  H42  1  0.61092091  0.88300657  0.82139336  1
  H+  H43  1  0.10445056  0.16101593  0.66682004  1
  H+  H44  1  0.57963008  0.39417426  0.84507506  1
  H+  H45  1  0.88797217  0.77424765  0.66428258  1
  H+  H46  1  0.88305162  0.27832619  0.49648112  1
  H+  H47  1  0.87862454  0.36315391  0.33070818  1
  H+  H48  1  0.57146830  0.64098401  0.10270763  1
  H+  H49  1  0.91344136  0.34636387  0.44461972  1
  H+  H50  1  0.76752438  0.10749983  0.67529114  1
  H+  H51  1  0.36580072  0.22191962  0.31737686  1
  H+  H52  1  0.98342480  0.61873127  0.99575406  1
  H+  H53  1  0.59806937  0.86743303  0.16374869  1
  H+  H54  1  0.60425190  0.70945532  1.02035519  1
  H+  H55  1  0.72192606  0.35916527  0.17785296  1
  H+  H56  1  0.87012453  0.14228244  0.32698242  1
  H+  H57  1  0.65583364  0.35197401  0.66042478  1
  H+  H58  1  0.00015306  0.60897498  0.50780111  1
  H+  H59  1  0.11523981  0.14600786  0.16344138  1
  H+  H60  1  0.87108888  0.63108036  0.49840790  1
  H+  H61  1  0.09409822  0.96940108  0.00603417  1
  H+  H62  1  0.10398265  0.61380619  0.68096172  1
  H+  H63  1  0.59990054  0.74153691  0.33087296  1
  H+  H64  1  0.87495077  0.23285412  0.15551439  1
  H+  H65  1  0.10458723  0.46712883  0.00602204  1
  H+  H66  1  0.38112208  0.99212811  0.17911922  1
  H+  H67  1  0.46454073  0.34449898  0.32329632  1
  H+  H68  1  0.41833444  0.29428648  0.50882059  1
  H+  H69  1  0.42215508  0.14760257  0.67209326  1
  H+  H70  1  0.77643721  0.11992496  0.83053595  1
  H+  H71  1  0.87850044  0.72322722  0.49663634  1
  H+  H72  1  0.39488436  0.02625129  0.98916360  1
  H+  H73  1  0.15290630  0.29222845  0.51275998  1
  H+  H74  1  0.79580774  0.15595008  -0.01870733  1
  H+  H75  1  0.10087260  0.52734410  0.83229035  1
  H+  H76  1  0.98640154  0.86007183  0.50604948  1
  H+  H77  1  0.61788211  0.75142699  0.16868740  1
  H+  H78  1  0.35297912  0.93257966  0.63833525  1
  H+  H79  1  0.37693093  0.76226850  0.98533731  1
  H+  H80  1  0.22317545  0.84656400  0.32686017  1
  H+  H81  1  0.63374800  0.26399790  0.33061782  1
  H+  H82  1  0.10993122  0.88125056  0.67650550  1
  H+  H83  1  0.59791093  0.86858736  0.33479311  1
  H+  H84  1  0.39438564  0.52794171  0.50543507  1
  H+  H85  1  0.39560049  0.36271424  1.02917674  1
  H+  H86  1  0.13350046  0.85516116  0.17375108  1
  H+  H87  1  0.85267571  0.47535122  0.33587459  1
  H+  H88  1  0.25817057  0.62155877  0.15362330  1
  H+  H89  1  0.61531095  0.73123192  0.49648461  1
  H+  H90  1  0.77152696  0.94697674  0.27344761  1
  H+  H91  1  0.60766007  0.96747360  0.48681480  1
  H+  H92  1  0.95952014  0.52299829  0.54504532  1
  H+  H93  1  0.85977472  0.40190140  0.16627642  1
  H+  H94  1  0.52436744  0.63523976  0.66851242  1
  H+  H95  1  0.80568005  0.37383498  0.84389736  1
  H+  H96  1  0.86873349  0.64988512  0.67385765  1
  H+  H97  1  0.36926034  0.04034959  0.52936406  1
  H+  H98  1  0.63198634  0.10387870  0.50782339  1
  H+  H99  1  0.31441663  0.16103957  0.05734399  1
  H+  H100  1  0.13700942  0.62117986  0.49357737  1
  H+  H101  1  -0.02246204  0.86562998  0.66450751  1
  H+  H102  1  0.46377301  0.60053255  0.17088509  1
  H+  H103  1  0.78651155  0.89194744  0.50046432  1
  H+  H104  1  0.64095674  0.51665135  0.17965033  1
  H+  H105  1  0.62235190  0.10991985  1.00362405  1
  H+  H106  1  0.86409131  0.87998513  0.81935843  1
  H+  H107  1  -0.02926610  0.37164138  0.17227075  1
  H+  H108  1  0.90183900  0.82981396  0.94096527  1
  H+  H109  1  0.38974122  0.75738521  0.51245148  1
  H+  H110  1  0.23767359  0.32364590  -0.02610984  1
  H+  H111  1  0.44184473  0.36682515  0.77289958  1
  H+  H112  1  0.10489664  -0.02939549  0.16460689  1
  H+  H113  1  0.00334795  0.63273776  0.34495553  1
  H+  H114  1  0.35639172  0.70589562  0.67752447  1
  H+  H115  1  0.62066117  1.01163716  0.17696106  1
  H+  H116  1  0.37799560  0.84395883  0.17640440  1
  H+  H117  1  0.12726967  0.60308756  0.17616265  1
  H+  H118  1  0.12353100  0.88831361  0.34062936  1
  H+  H119  1  0.09631079  0.71897810  0.34335598  1
  H+  H120  1  0.13623508  0.52542798  0.50135087  1
  H+  H121  1  0.01427089  0.38453703  0.00651120  1
  H+  H122  1  0.15346824  0.30971559  0.66336397  1
  H+  H123  1  0.37083875  0.10281565  0.98720317  1
  H+  H124  1  0.35541852  0.62584074  0.49879044  1
  H+  H125  1  0.11364236  0.13763645  0.49240775  1
  H+  H126  1  0.09474610  0.24517912  0.82157921  1
  H+  H127  1  0.87657792  0.69873483  0.17638125  1
  H+  H128  1  0.06816874  0.76709376  0.93036018  1
  H+  H129  1  0.73195011  0.60130232  0.17840263  1
  H+  H130  1  0.63980868  0.27510704  0.99141990  1
  H+  H131  1  0.55183681  0.92834164  0.66242438  1
  H+  H132  1  0.19546548  0.37545350  0.83342649  1
  H+  H133  1  0.14957250  0.32869808  0.89353876  1
  H+  H134  1  0.35235042  0.21675804  0.00080900  1
  H+  H135  1  0.25248739  0.64146443  0.82532196  1
  H+  H136  1  0.03320314  0.39296499  0.49464877  1
  H+  H137  1  0.21658538  0.11899549  0.17235793  1
  H+  H138  1  0.32471015  0.38865403  0.80290633  1
  H+  H139  1  0.90386665  0.03670993  0.65436716  1
  H+  H140  1  0.61992604  0.64775967  0.66698928  1
  H+  H141  1  0.35160893  0.38590165  0.16038518  1
  H+  H142  1  0.86512212  0.52927180  0.65050236  1
  H+  H143  1  0.52581024  0.64241400  0.50086767  1
  H+  H144  1  0.26811534  0.15389920  0.83053884  1
  H+  H145  1  0.88278493  0.11456531  0.65866273  1
  H+  H146  1  0.48310767  0.86287501  0.32205822  1
  H+  H147  1  0.40139784  0.89973043  1.00889105  1
  H+  H148  1  1.01115895  0.12798841  1.01393978  1
  H+  H149  1  0.51640834  0.88363923  0.83115019  1
  H+  H150  1  0.87386346  0.88586896  0.50262662  1
  H+  H151  1  0.39205544  0.09786204  0.32480805  1
  H+  H152  1  0.64124583  0.10399110  0.84712839  1
  H+  H153  1  0.38647647  0.86018480  0.32179310  1
  H+  H154  1  0.90331091  0.58759040  0.26766223  1
  H+  H155  1  0.33824460  0.71929496  0.35233338  1
  H+  H156  1  0.12645997  0.71516796  0.02038649  1
  H+  H157  1  0.09008778  0.63415203  0.77609316  1
  H+  H158  1  0.60743352  0.22349016  0.15943016  1
  H+  H159  1  0.36403405  0.96001496  0.34179334  1
  H+  H160  1  0.60838565  0.62492984  0.00533700  1
  H+  H161  1  0.34842980  0.70773309  0.15395688  1
  H+  H162  1  0.39456269  0.40398999  0.49049856  1
  H+  H163  1  0.72575180  0.86218764  1.02121645  1
  H+  H164  1  0.86186321  0.72616391  1.01646323  1
  H+  H165  1  0.37746149  0.83664992  0.66646318  1
  H+  H166  1  0.22819891  0.85158653  0.50726817  1
  H+  H167  1  0.52308457  0.40935116  0.68400950  1
  H+  H168  1  0.35399989  0.64146885  0.34170834  1
  H+  H169  1  0.15470378  0.76431688  0.81173765  1
  H+  H170  1  0.16237953  0.82777112  0.95260360  1
  H+  H171  1  0.39276942  0.87007060  0.83473738  1
  H+  H172  1  0.03426499  0.88672778  0.34257822  1
  H+  H173  1  0.13206587  0.76080220  0.66344771  1
  H+  H174  1  0.65405699  0.31562737  0.59486547  1
  H+  H175  1  0.34722221  0.72341279  0.82670481  1
  H+  H176  1  0.91007360  0.62807864  0.84181924  1
  H+  H177  1  0.00756972  0.63406185  0.15896141  1
  H+  H178  1  0.51928975  0.13292296  0.15859159  1
  H+  H179  1  0.36822435  1.01330458  0.82964498  1
  H+  H180  1  0.35943566  0.15881298  0.14471326  1
  H+  H181  1  0.11651181  0.97524650  0.49379104  1
  H+  H182  1  0.85359817  0.88578191  0.01466847  1
  H+  H183  1  0.77569741  0.13750159  0.50663858  1
  H+  H184  1  -0.03151795  0.84755355  0.18174470  1
  H+  H185  1  0.58720187  0.36505491  0.34844649  1
  H+  H186  1  0.08173727  0.16657447  0.42832804  1
  H+  H187  1  0.99676339  0.61205565  0.84796090  1
  H+  H188  1  0.46994836  0.84613930  0.17536817  1
  H+  H189  1  -0.00318569  0.40927369  0.83479472  1
  H+  H190  1  0.86540821  0.12301849  0.82951983  1
  H+  H191  1  0.21331096  0.59884561  0.32689264  1
  H+  H192  1  0.21811521  0.36450248  0.17163309  1
  H+  H193  1  0.64715285  0.52654613  0.99129600  1
  H+  H194  1  0.89077612  0.11119731  0.17760818  1
  H+  H195  1  0.25763523  0.87842210  0.99017742  1
  H+  H196  1  0.86985693  0.87386519  0.66396388  1
  H+  H197  1  0.31272669  0.40745772  0.06224316  1
  H+  H198  1  0.36471846  0.85424553  0.49424045  1
  H+  H199  1  0.65189836  0.88004901  0.66314921  1
  H+  H200  1  0.82566102  0.42483419  0.10666844  1
  H+  H201  1  0.12791975  0.76338457  0.17188241  1
  H+  H202  1  0.46461640  0.97888361  0.04798341  1
  H+  H203  1  0.11200570  0.13495499  0.34173981  1
  H+  H204  1  0.87729446  1.01629241  0.18595478  1
  H+  H205  1  0.69346898  0.36381890  0.50241431  1
  H+  H206  1  0.72537918  0.62992095  0.32988188  1
  H+  H207  1  0.54098505  0.39444861  0.02293531  1
  H+  H208  1  0.11581074  0.72443428  0.48913821  1
  H+  H209  1  0.47842495  0.36779793  0.17452557  1
  H+  H210  1  0.15116929  0.58719122  0.92422577  1
  H+  H211  1  0.27044023  0.40681347  0.71891761  1
  H+  H212  1  0.90362189  0.02799615  0.50909748  1
  H+  H213  1  0.13798067  0.02312919  0.32670306  1
  H+  H214  1  0.65157055  0.54651902  0.66244685  1
  H+  H215  1  0.64248988  0.21962278  0.67451772  1
  H+  H216  1  0.34732074  0.46115119  0.00092970  1
  H+  H217  1  0.60480436  0.42875379  0.77800882  1
  H+  H218  1  0.89835755  1.01889968  0.83777298  1
  H+  H219  1  0.36287155  0.10784417  0.83537321  1
  H+  H220  1  0.66689901  0.53817656  0.83939910  1
  H+  H221  1  0.20815509  0.10231355  0.99156674  1
  H+  H222  1  0.33567675  0.48083067  0.81417857  1
  H+  H223  1  0.67043980  0.27097886  0.83725869  1
  H+  H224  1  0.78889179  0.91719207  0.26812586  1
  H+  H225  1  0.69462168  0.09579519  1.03134493  1
  H+  H226  1  0.76895244  0.13255105  0.32476525  1
  H+  H227  1  0.86141568  0.23565871  0.32706068  1
  H+  H228  1  0.37538035  0.60303380  0.16519873  1
  H+  H229  1  0.35197082  0.62957182  -0.00274041  1
  H+  H230  1  0.43039404  0.33355539  0.08365040  1
  H+  H231  1  0.42030065  0.35601392  0.84288160  1
  H+  H232  1  0.47864784  0.84863302  0.51018794  1
  H+  H233  1  0.14491248  0.24114408  -0.02154937  1
  H+  H234  1  0.98178598  0.11278200  0.83967094  1
  H+  H235  1  0.38023166  0.59870696  0.66557770  1
  H+  H236  1  -0.02205191  0.87590033  0.84648592  1
  H+  H237  1  0.59348783  0.34338580  0.50832006  1
  H+  H238  1  0.12587065  0.36189414  0.17034233  1
  H+  H239  1  0.46191474  0.61073210  0.82986962  1
  H+  H240  1  0.87403856  0.61186630  0.32916833  1
  H+  H241  1  0.41555211  0.28810523  0.65050976  1
  H+  H242  1  0.54564717  0.14129810  0.82341247  1
  H+  H243  1  0.08592103  0.87852537  -0.00003995  1
  H+  H244  1  0.64815025  0.62806729  0.51296665  1
  H+  H245  1  0.89822402  1.04218060  0.33533099  1
  H+  H246  1  0.35534433  0.24228926  0.15585338  1
  H+  H247  1  0.24180056  0.83706501  0.00818135  1
  H+  H248  1  0.92180145  0.49521827  0.72021697  1
  H+  H249  1  0.86845381  0.14671441  0.50711287  1
  H+  H250  1  0.13465847  0.27421671  0.32710908  1
  H+  H251  1  1.01436197  0.41496371  0.64489398  1
  H+  H252  1  0.65090629  0.05703337  0.56253347  1
  H+  H253  1  0.09507113  0.11859519  1.01633532  1
  H+  H254  1  0.30045992  0.39324743  0.49460143  1
  H+  H255  1  1.02125695  0.62595634  0.67644709  1
  H+  H256  1  0.11254449  0.62308241  0.00302789  1
  H+  H257  1  0.21761448  0.60768333  0.97999912  1
  H+  H258  1  0.59918439  0.96417976  0.01396424  1
  H+  H259  1  0.90383248  0.40569116  0.69479547  1
  H+  H260  1  0.88302698  0.37094680  0.99294362  1
  H+  H261  1  0.10619687  0.47119014  0.15989567  1
  H+  H262  1  0.11501001  0.01487669  0.66143392  1
  H+  H263  1  0.53030986  0.12374691  0.34543500  1
  H+  H264  1  0.37395755  0.61341548  0.83601145  1
  H+  H265  1  0.63677139  0.78247206  0.66356159  1
  H+  H266  1  0.12692063  0.39994228  0.49941197  1
  H+  H267  1  0.87579099  0.83791472  0.18319544  1
  H+  H268  1  0.64573935  0.86921883  0.50286786  1
  H+  H269  1  0.89930124  0.77949106  0.84314993  1
  H+  H270  1  0.41177120  0.33173409  0.23003012  1
  H+  H271  1  0.02261955  0.16859450  0.66765315  1
  H+  H272  1  0.27627953  0.88781344  0.80865783  1
  H+  H273  1  0.76307012  0.86701313  0.16865575  1
  H+  H274  1  0.79709994  0.64450637  0.83108012  1
  H+  H275  1  0.10249103  0.37779880  0.34201977  1
  H+  H276  1  0.27190712  0.37676878  0.33887432  1
  H+  H277  1  0.47162138  0.84498662  0.98798415  1
  H+  H278  1  0.90603337  0.86919608  0.33745767  1
  H+  H279  1  0.46551487  0.62583458  0.32599927  1
  H+  H280  1  0.14860221  0.16576590  0.84179518  1
  H+  H281  1  0.14425655  0.86165649  0.50624654  1
  H+  H282  1  0.18511187  0.11168910  0.67164027  1
  H+  H283  1  0.84864141  0.47952821  0.48917798  1
  H+  H284  1  0.63224968  0.76731295  0.81759975  1
  H+  H285  1  0.36714957  0.06861567  0.19529649  1
  H+  H286  1  0.91769080  0.08768953  0.26807114  1
  H+  H287  1  0.96831324  0.36050160  0.33326034  1
  H+  H288  1  0.86166164  0.18101986  0.09497771  1
  H+  H289  1  0.67472012  0.84402765  0.56444535  1
  H+  H290  1  0.68509079  0.59662084  0.89730685  1
  H+  H291  1  0.59766281  0.41881970  0.10849425  1
  H+  H292  1  0.66198963  0.81983887  0.96670477  1
  H+  H293  1  0.09259876  0.41634440  0.83532264  1
  H+  H294  1  0.33966956  0.40592361  0.39336120  1
  H+  H295  1  0.38037101  0.32330892  0.92876761  1
  H+  H296  1  0.07411652  0.91059361  0.10632394  1
  H+  H297  1  0.56662369  0.90056192  0.10676921  1
  H+  H298  1  0.58976836  0.15893523  0.40412935  1
  H+  H299  1  0.66009551  0.07141941  0.26757844  1
  H+  H300  1  0.08229051  0.17266908  0.09879028  1
  H+  H301  1  0.86381734  0.93332672  0.41601300  1
  H+  H302  1  0.68907690  0.82419482  0.31381556  1
  H+  H303  1  0.82783404  0.90496952  0.11368039  1
  H+  H304  1  0.41591348  0.81469562  0.60918441  1
  H+  H305  1  0.40928430  0.60042238  0.26459116  1
  H+  H306  1  0.93248499  0.59729642  0.91195798  1
  H+  H307  1  0.32348769  0.18724314  0.45852801  1
  H+  H308  1  0.41566037  0.83328172  0.89511066  1
  H+  H309  1  0.15951387  0.33377258  0.26814286  1
  H+  H310  1  0.84222553  0.65990491  0.07220835  1
  H+  H311  1  0.32488153  0.65063100  0.73795724  1
  H+  H312  1  0.14934244  0.09072995  0.93560969  1
  H+  H313  1  0.21825856  0.12121206  0.51618656  1
  H+  H314  1  0.26144059  0.87500957  0.66789645  1
  H+  H315  1  0.57146669  0.65878861  0.40526790  1
  H+  H316  1  0.82859495  0.14299506  0.73378327  1
  H+  H317  1  0.42474050  0.05858296  0.27454431  1
  H+  H318  1  0.41261124  0.57992783  0.56804976  1
  H+  H319  1  0.15099213  0.45038705  0.65091283  1
  H+  H320  1  0.37101238  0.50774073  0.65607373  1
  H+  H321  1  0.14644373  0.08270611  0.56752174  1
  H+  H322  1  0.08608685  0.92082017  0.73438627  1
  H+  H323  1  0.06997920  0.65046098  0.10310625  1
  H+  H324  1  0.66254546  0.07153651  0.90995989  1
  H+  H325  1  0.08186254  0.41449238  0.40211828  1
  H+  H326  1  0.40707439  0.57677486  0.92816518  1
  H+  H327  1  0.87739458  0.24637947  -0.00875853  1
  H+  H328  1  0.42711670  0.10673960  0.57883046  1
  H+  H329  1  0.57267992  0.16964898  0.06375297  1
  H+  H330  1  0.09328376  0.91718616  0.43393711  1
  H+  H331  1  0.34647646  0.93091681  0.75690722  1
  H+  H332  1  0.83378396  0.66125687  0.40341004  1
  H+  H333  1  0.46603908  0.35230959  0.59454184  1
  H+  H334  1  0.57512867  0.90251806  0.43014345  1
  H+  H335  1  0.31768165  0.65651210  0.05559578  1
  H+  H336  1  0.33854814  0.90496384  0.10436133  1
  H+  H337  1  0.86168187  0.53625175  0.16896102  1
  H+  H338  1  0.37907322  0.94523590  0.47944280  1
  H+  H339  1  0.39539339  0.07389731  0.89764910  1
  H+  H340  1  0.91915535  0.07441531  0.93783765  1
  H+  H341  1  0.53942272  0.38055021  0.40509609  1
  H+  H342  1  0.42868937  0.34537919  0.92562031  1
  H+  H343  1  0.93421441  0.09384286  0.56664669  1
  H+  H344  1  0.33251997  0.88847494  0.39532973  1
  H+  H345  1  0.91078703  0.35140272  0.92712012  1
  H+  H346  1  0.16287497  0.82115261  0.26856914  1
  H+  H347  1  0.87509551  0.41515013  0.78549716  1
  H+  H348  1  0.92649829  0.82926021  0.56554985  1
  H+  H349  1  0.92684529  0.35363794  0.61083712  1
  H+  H350  1  0.54037205  0.49240338  0.72317678  1
  H+  H351  1  0.12550575  0.93423814  0.83668445  1
  H+  H352  1  0.32271863  0.16264002  0.72709739  1
  H+  H353  1  0.07282486  0.41070608  0.10022472  1
  H+  H354  1  0.67563248  0.83298790  0.87118789  1
  H+  H355  1  0.35110153  0.16583284  0.37592285  1
  H+  H356  1  0.22587966  0.11193258  0.32145064  1
  H+  H357  1  0.63472886  0.80426848  0.22963487  1
  H+  H358  1  0.92035912  0.82722727  0.27680592  1
  H+  H359  1  0.15925919  0.08749059  0.23292342  1
  H+  H360  1  0.21484103  0.58544296  0.68236203  1
  H+  H361  1  0.11931042  0.24565976  0.16125968  1
  H+  H362  1  0.52360978  0.13559464  0.49625874  1
  H+  H363  1  0.83910512  0.90873670  0.72724760  1
  H+  H364  1  0.15873647  0.81975694  0.60341295  1
  H+  H365  1  0.92522158  0.59213334  0.60081534  1
  H+  H366  1  0.66008168  0.32197081  0.23667310  1
  H+  H367  1  0.07915561  0.18810941  0.76182404  1
  H+  H368  1  0.66941045  0.60031730  0.26909572  1
  H+  H369  1  0.20591454  0.21045961  0.89783382  1
  H+  H370  1  0.71602240  0.35758507  0.32799392  1
  H+  H371  1  0.15777119  0.83147704  0.85705908  1
  H+  H372  1  0.41625235  0.82450588  0.25621673  1
  H+  H373  1  0.85478104  0.67534745  0.77123844  1
  H+  H374  1  0.02435417  0.14048583  0.34079960  1
  H+  H375  1  0.63376004  0.07889444  0.66684555  1
  H+  H376  1  0.77234174  0.39182713  1.00947905  1
  H+  H377  1  0.81098303  0.90925876  0.35567586  1
  H+  H378  1  0.61069947  0.96539942  0.33616939  1
  H+  H379  1  0.12554207  0.51071664  0.32286051  1
  H+  H380  1  0.68379136  0.60482944  0.60048676  1
  H+  H381  1  0.07522952  0.66328144  0.42660335  1
  H+  H382  1  0.81882206  0.41831426  0.39608367  1
  H+  H383  1  0.68068678  0.33272336  0.93211844  1
  O2-  O384  1  0.09027074  0.18101390  0.14533984  1
  O2-  O385  1  0.08182874  0.16777662  0.47595677  1
  O2-  O386  1  0.07825991  0.18548904  0.80714950  1
  O2-  O387  1  0.07415965  0.40966023  0.14636194  1
  O2-  O388  1  0.09462390  0.42775998  0.48292127  1
  O2-  O389  1  0.06249244  0.44637159  0.82071090  1
  O2-  O390  1  0.06857215  0.65738578  0.14781651  1
  O2-  O391  1  0.08693716  0.66363384  0.47454805  1
  O2-  O392  1  0.09405715  0.64406332  0.82119201  1
  O2-  O393  1  0.07750929  0.90984320  0.15134351  1
  O2-  O394  1  0.09140894  0.91507422  0.47979331  1
  O2-  O395  1  0.08543941  0.94635112  0.81475642  1
  O2-  O396  1  0.32164426  0.18218079  0.13737993  1
  O2-  O397  1  0.32581001  0.18190121  0.50243795  1
  O2-  O398  1  0.31961677  0.15964861  0.80755082  1
  O2-  O399  1  0.31769794  0.41168301  0.14477418  1
  O2-  O400  1  0.35796470  0.42738949  0.47612928  1
  O2-  O401  1  0.29563987  0.42227559  0.79734607  1
  O2-  O402  1  0.31752919  0.65031034  0.13504087  1
  O2-  O403  1  0.32501232  0.65747901  0.48453525  1
  O2-  O404  1  0.31400408  0.66209844  0.81529224  1
  O2-  O405  1  0.32777547  0.89548649  0.14861165  1
  O2-  O406  1  0.33587395  0.88491375  0.47412647  1
  O2-  O407  1  0.34061410  0.92946514  0.80188542  1
  O2-  O408  1  0.57631230  0.16519519  0.13938964  1
  O2-  O409  1  0.58374061  0.16353638  0.48275338  1
  O2-  O410  1  0.60620361  0.16462180  0.81323531  1
  O2-  O411  1  0.58576197  0.41240333  0.15295769  1
  O2-  O412  1  0.53574883  0.37261580  0.48225672  1
  O2-  O413  1  0.62906717  0.42539687  0.81837488  1
  O2-  O414  1  0.57206271  0.64643784  0.14785655  1
  O2-  O415  1  0.58508221  0.67004904  0.48373002  1
  O2-  O416  1  0.58266130  0.66564269  0.80563399  1
  O2-  O417  1  0.56624464  0.89851486  0.15200930  1
  O2-  O418  1  0.57878580  0.90507440  0.47530998  1
  O2-  O419  1  0.58058484  0.91773454  0.81850290  1
  O2-  O420  1  0.86228405  0.17645451  0.13938020  1
  O2-  O421  1  0.83702145  0.17665014  0.49712367  1
  O2-  O422  1  0.83197385  0.14633348  0.80970593  1
  O2-  O423  1  0.82569685  0.42909457  0.15194251  1
  O2-  O424  1  0.80936548  0.42049829  0.47503427  1
  O2-  O425  1  0.86979889  0.41014313  0.83440591  1
  O2-  O426  1  0.84825410  0.64018907  0.15696004  1
  O2-  O427  1  0.84442806  0.66247347  0.48194194  1
  O2-  O428  1  0.85850618  0.67370094  0.81668077  1
  O2-  O429  1  0.82516443  0.89678883  0.15843780  1
  O2-  O430  1  0.84928725  0.92264283  0.48971271  1
  O2-  O431  1  0.83887566  0.91132087  0.79708967  1
  O2-  O432  1  0.15643136  0.08842818  0.18728762  1
  O2-  O433  1  0.15463637  0.08705165  0.52250379  1
  O2-  O434  1  0.19111208  0.16108094  0.86955616  1
  O2-  O435  1  0.15661268  0.33099801  0.18614724  1
  O2-  O436  1  0.18651995  0.35335419  0.52324520  1
  O2-  O437  1  0.13772354  0.34407268  0.85278704  1
  O2-  O438  1  0.16053231  0.57447868  0.18617258  1
  O2-  O439  1  0.16728019  0.58963596  0.51183436  1
  O2-  O440  1  0.14082953  0.60076191  0.84448744  1
  O2-  O441  1  0.16395264  0.82402170  0.18648688  1
  O2-  O442  1  0.16856096  0.82619684  0.52256116  1
  O2-  O443  1  0.17577369  0.82664303  0.81548884  1
  O2-  O444  1  0.41162607  0.05283469  0.19572669  1
  O2-  O445  1  0.41266808  0.10062822  0.53450105  1
  O2-  O446  1  0.39288212  0.07500169  0.85029869  1
  O2-  O447  1  0.41532797  0.33809032  0.18360785  1
  O2-  O448  1  0.45861108  0.35547195  0.51784726  1
  O2-  O449  1  0.39562282  0.33477063  0.80248608  1
  O2-  O450  1  0.40291014  0.57282267  0.18489330  1
  O2-  O451  1  0.41580129  0.58685231  0.52290398  1
  O2-  O452  1  0.40294194  0.58002445  0.84653671  1
  O2-  O453  1  0.40922737  0.81531025  0.19337445  1
  O2-  O454  1  0.41907464  0.81825322  0.52761487  1
  O2-  O455  1  0.42066218  0.83762995  0.84920677  1
  O2-  O456  1  0.64908039  0.06977453  0.19505375  1
  O2-  O457  1  0.65814056  0.06781113  0.51822618  1
  O2-  O458  1  0.66174647  0.06588298  0.86524800  1
  O2-  O459  1  0.66059225  0.32289521  0.19089017  1
  O2-  O460  1  0.63739305  0.32300228  0.52054503  1
  O2-  O461  1  0.70401353  0.33094604  0.85322118  1
  O2-  O462  1  0.67144177  0.57925048  0.18981955  1
  O2-  O463  1  0.68144093  0.60458343  0.53345189  1
  O2-  O464  1  0.68990229  0.59886444  0.85172350  1
  O2-  O465  1  0.64466991  0.81164128  0.18492551  1
  O2-  O466  1  0.67922967  0.84293409  0.51969305  1
  O2-  O467  1  0.66511806  0.83184395  0.82766135  1
  O2-  O468  1  0.90994803  0.07591848  0.20089626  1
  O2-  O469  1  0.93689962  0.09071521  0.52037565  1
  O2-  O470  1  0.92498061  0.07436014  0.85936771  1
  O2-  O471  1  0.90975931  0.34486611  0.18674007  1
  O2-  O472  1  0.91390860  0.34324577  0.48886687  1
  O2-  O473  1  0.90828270  0.35734952  0.85339906  1
  O2-  O474  1  0.89520184  0.59868520  0.18268027  1
  O2-  O475  1  0.94565541  0.56639177  0.53119984  1
  O2-  O476  1  0.93726948  0.59677514  0.86335943  1
  O2-  O477  1  0.90972014  0.81133400  0.19847313  1
  O2-  O478  1  0.92529039  0.82855434  0.52045679  1
  O2-  O479  1  0.91711634  0.83853325  0.85837997  1
  O2-  O480  1  0.16352364  0.08369875  0.31139589  1
  O2-  O481  1  0.13580425  0.07494265  0.64619773  1
  O2-  O482  1  0.14678642  0.07192319  0.97845813  1
  O2-  O483  1  0.16085748  0.33467220  0.31338446  1
  O2-  O484  1  0.19032899  0.37047237  0.64850275  1
  O2-  O485  1  0.19025704  0.27831490  0.94900950  1
  O2-  O486  1  0.15866849  0.56827475  0.30423360  1
  O2-  O487  1  0.15041449  0.55053542  0.68579224  1
  O2-  O488  1  0.15545252  0.57975313  0.96880619  1
  O2-  O489  1  0.16281637  0.82346387  0.31383395  1
  O2-  O490  1  0.15921062  0.82157122  0.64886543  1
  O2-  O491  1  0.11402942  0.82716806  0.93095826  1
  O2-  O492  1  0.42089993  0.06305121  0.31949612  1
  O2-  O493  1  0.44611681  0.11146413  0.65715714  1
  O2-  O494  1  0.40548981  0.07974051  0.96742720  1
  O2-  O495  1  0.40542200  0.31487182  0.30123909  1
  O2-  O496  1  0.46122741  0.34595364  0.63980125  1
  O2-  O497  1  0.42948300  0.33413607  1.03927863  1
  O2-  O498  1  0.41609916  0.62538935  0.30569106  1
  O2-  O499  1  0.41077385  0.56957416  0.64819576  1
  O2-  O500  1  0.40409266  0.57477039  0.97339523  1
  O2-  O501  1  0.42014465  0.83140499  0.30550252  1
  O2-  O502  1  0.41539372  0.81438929  0.65447129  1
  O2-  O503  1  0.41305081  0.82348008  0.97048262  1
  O2-  O504  1  0.66975278  0.07230565  0.31340604  1
  O2-  O505  1  0.65337438  0.04195236  0.64566887  1
  O2-  O506  1  0.65368353  0.07667824  0.99755421  1
  O2-  O507  1  0.65536515  0.32270099  0.31391122  1
  O2-  O508  1  0.66678584  0.31117190  0.63879490  1
  O2-  O509  1  0.67257698  0.33544851  0.97666047  1
  O2-  O510  1  0.66845058  0.61337631  0.31261352  1
  O2-  O511  1  0.68364746  0.60641134  0.64837005  1
  O2-  O512  1  0.67488383  0.58711649  0.97569552  1
  O2-  O513  1  0.62770432  0.80138677  0.30890857  1
  O2-  O514  1  0.67623423  0.84341215  0.65052060  1
  O2-  O515  1  0.66178602  0.82598170  1.01057351  1
  O2-  O516  1  0.92332054  0.09918480  0.31523039  1
  O2-  O517  1  0.92439773  0.09506485  0.63930192  1
  O2-  O518  1  0.91452148  0.07765319  0.98301567  1
  O2-  O519  1  0.90774032  0.33053996  0.31698995  1
  O2-  O520  1  0.95170517  0.37417586  0.65077510  1
  O2-  O521  1  0.91277957  0.34344457  0.97287695  1
  O2-  O522  1  0.90308457  0.58043738  0.31213745  1
  O2-  O523  1  0.91039494  0.58909781  0.64510152  1
  O2-  O524  1  0.92532063  0.59483914  0.97643637  1
  O2-  O525  1  0.92889760  0.83267570  0.32203477  1
  O2-  O526  1  0.91773594  0.83558306  0.64716189  1
  O2-  O527  1  0.89859253  0.82744671  0.98610381  1
  O2-  O528  1  0.07209355  0.15619922  0.02993970  1
  O2-  O529  1  0.08350824  0.16608626  0.35927911  1
  O2-  O530  1  0.08383358  0.19889285  0.68208186  1
  O2-  O531  1  0.07216473  0.41041164  0.02536286  1
  O2-  O532  1  0.06971956  0.40540851  0.35791323  1
  O2-  O533  1  0.12499894  0.48525669  0.63751498  1
  O2-  O534  1  0.08371810  0.65434802  0.02322918  1
  O2-  O535  1  0.06193630  0.66233923  0.36336727  1
  O2-  O536  1  0.08057847  0.65249951  0.69210036  1
  O2-  O537  1  0.06373306  0.90994462  0.02332092  1
  O2-  O538  1  0.09553970  0.92051355  0.35660891  1
  O2-  O539  1  0.08110593  0.91405364  0.68952643  1
  O2-  O540  1  0.31675729  0.15573858  0.01240534  1
  O2-  O541  1  0.33860038  0.15807921  0.33266186  1
  O2-  O542  1  0.34241750  0.17676842  0.68398584  1
  O2-  O543  1  0.32239130  0.40231087  0.01818668  1
  O2-  O544  1  0.33140366  0.39261451  0.34947425  1
  O2-  O545  1  0.27611874  0.39756891  0.67457392  1
  O2-  O546  1  0.32100340  0.66038661  0.01010498  1
  O2-  O547  1  0.31599715  0.65994485  0.36533396  1
  O2-  O548  1  0.32472680  0.64547901  0.69274193  1
  O2-  O549  1  0.40583145  0.94980631  0.03263741  1
  O2-  O550  1  0.33413331  0.89628371  0.35021888  1
  O2-  O551  1  0.32535558  0.90999624  0.67752680  1
  O2-  O552  1  0.57661291  0.16840127  0.01787151  1
  O2-  O553  1  0.59124842  0.15603689  0.35870232  1
  O2-  O554  1  0.61134437  0.16073956  0.69393878  1
  O2-  O555  1  0.60471628  0.42841478  0.02631377  1
  O2-  O556  1  0.54695519  0.38499708  0.35975044  1
  O2-  O557  1  0.56128504  0.45212870  0.71754004  1
  O2-  O558  1  0.57127607  0.64607125  0.02345966  1
  O2-  O559  1  0.56445103  0.65566921  0.36017889  1
  O2-  O560  1  0.58427922  0.67221154  0.68350120  1
  O2-  O561  1  0.56741761  0.90306233  0.02699750  1
  O2-  O562  1  0.57188866  0.90412421  0.34909397  1
  O2-  O563  1  0.61138752  0.95836939  0.67827735  1
  O2-  O564  1  0.84980804  0.18320787  0.00362482  1
  O2-  O565  1  0.83277211  0.17000796  0.33683478  1
  O2-  O566  1  0.82779431  0.14260434  0.68800266  1
  O2-  O567  1  0.83138912  0.42263029  0.02743394  1
  O2-  O568  1  0.82462747  0.41468791  0.35124843  1
  O2-  O569  1  0.87894218  0.43426390  0.72204733  1
  O2-  O570  1  0.83937896  0.66441048  0.02745796  1
  O2-  O571  1  0.83179935  0.66511029  0.35839425  1
  O2-  O572  1  0.84218057  0.68148183  0.69291099  1
  O2-  O573  1  0.82590811  0.91682274  0.03309062  1
  O2-  O574  1  0.87002639  0.93906819  0.37026336  1
  O2-  O575  1  0.83611701  0.90628830  0.68011919  1
