# generated using pymatgen
data_H2O
_symmetry_space_group_name_H-M   'P 1'
_cell_length_a   17.98865643
_cell_length_b   17.98552092
_cell_length_c   22.00046822
_cell_angle_alpha   90.00225555
_cell_angle_beta   89.99464662
_cell_angle_gamma   120.00132454
_symmetry_Int_Tables_number   1
_chemical_formula_structural   H2O
_chemical_formula_sum   'H384 O192'
_cell_volume   6164.22531787
_cell_formula_units_Z   192
loop_
 _symmetry_equiv_pos_site_id
 _symmetry_equiv_pos_as_xyz
  1  'x, y, z'
loop_
 _atom_type_symbol
 _atom_type_oxidation_number
  H+  1.0
  O2-  -2.0
loop_
 _atom_site_type_symbol
 _atom_site_label
 _atom_site_symmetry_multiplicity
 _atom_site_fract_x
 _atom_site_fract_y
 _atom_site_fract_z
 _atom_site_occupancy
  H+  H0  1  0.87790325  1.01962774  0.32987553  1
  H+  H1  1  0.38719562  0.86567306  0.84023828  1
  H+  H2  1  0.42007676  0.28117649  0.18296895  1
  H+  H3  1  0.89593230  0.51389742  0.15078180  1
  H+  H4  1  0.35212039  0.32001165  0.48227625  1
  H+  H5  1  0.18948022  0.52370313  0.86138178  1
  H+  H6  1  0.49739687  0.88618397  0.31707717  1
  H+  H7  1  0.11489328  0.45435269  0.65605260  1
  H+  H8  1  0.62604640  0.34400934  0.82561664  1
  H+  H9  1  0.67964511  0.36701272  0.28906330  1
  H+  H10  1  0.10526657  0.13486842  0.82262042  1
  H+  H11  1  0.14015261  0.28018252  0.17004050  1
  H+  H12  1  0.10676429  0.71748534  0.34921906  1
  H+  H13  1  0.76059158  0.89065543  0.82917206  1
  H+  H14  1  0.36504472  0.39288212  0.00322844  1
  H+  H15  1  0.27863005  0.64172488  0.99980871  1
  H+  H16  1  0.75741100  0.13629215  0.17851857  1
  H+  H17  1  0.73373615  0.12118210  0.99136844  1
  H+  H18  1  0.62570741  0.14337424  0.66835101  1
  H+  H19  1  0.11592311  -0.01955315  1.00725150  1
  H+  H20  1  0.39779909  0.13948850  0.15487639  1
  H+  H21  1  0.59963960  0.65528647  0.82391604  1
  H+  H22  1  0.62602145  0.48288675  0.16422343  1
  H+  H23  1  0.62713274  -0.00905875  0.34534556  1
  H+  H24  1  0.17400540  0.83489766  0.89866415  1
  H+  H25  1  0.62916802  0.14670106  0.33745675  1
  H+  H26  1  0.38831214  1.01031588  0.17435604  1
  H+  H27  1  0.90112263  0.28030029  0.17360859  1
  H+  H28  1  0.47800219  0.62544647  0.32977463  1
  H+  H29  1  0.60729916  0.38618069  -0.00291863  1
  H+  H30  1  0.10890367  0.96314324  0.49397654  1
  H+  H31  1  0.14293593  0.11490365  0.19397207  1
  H+  H32  1  0.86586849  0.63029405  0.35480162  1
  H+  H33  1  0.27863499  0.88541229  0.48938821  1
  H+  H34  1  0.93233538  0.34729802  0.88851462  1
  H+  H35  1  0.13627688  0.02457026  0.19380222  1
  H+  H36  1  0.13418483  0.60972853  0.51466076  1
  H+  H37  1  0.61453733  0.89412035  0.49183673  1
  H+  H38  1  0.52337508  0.89241948  0.67280987  1
  H+  H39  1  0.22386461  0.61247243  0.67809789  1
  H+  H40  1  0.15813740  0.28060497  0.49441556  1
  H+  H41  1  0.87620836  0.64496350  1.00400294  1
  H+  H42  1  0.85054312  0.88478333  0.67897829  1
  H+  H43  1  0.91564156  0.08417198  0.24251335  1
  H+  H44  1  0.74188549  0.13000874  0.33729660  1
  H+  H45  1  0.72243880  0.86345226  0.34253739  1
  H+  H46  1  0.33387000  0.67269007  0.73647694  1
  H+  H47  1  0.60539098  0.72842756  0.34520684  1
  H+  H48  1  0.92261268  0.58793625  -0.06500059  1
  H+  H49  1  0.27043112  0.63308629  0.82807406  1
  H+  H50  1  0.16180817  0.31856325  0.56253166  1
  H+  H51  1  0.98233038  0.62083219  0.99274426  1
  H+  H52  1  0.61838845  -0.01065877  0.15880840  1
  H+  H53  1  0.51740173  0.62566490  0.48772719  1
  H+  H54  1  0.14083401  0.10823554  0.65585212  1
  H+  H55  1  0.57785031  0.13886810  0.09313673  1
  H+  H56  1  0.88112185  0.11173586  0.32989798  1
  H+  H57  1  0.86753355  0.13582787  1.00294433  1
  H+  H58  1  0.53463669  0.08368697  0.77957398  1
  H+  H59  1  0.36761407  0.37865038  0.65291131  1
  H+  H60  1  0.40811954  0.88488539  0.32156428  1
  H+  H61  1  0.14411297  0.61866814  -0.01453921  1
  H+  H62  1  0.02222053  0.13700961  0.01142055  1
  H+  H63  1  0.45597417  0.21867527  0.11504478  1
  H+  H64  1  0.48180678  0.86849310  -0.00657568  1
  H+  H65  1  0.22390478  0.25363365  0.44499330  1
  H+  H66  1  0.11503649  0.87679197  0.49537709  1
  H+  H67  1  0.34919650  0.10997358  0.47951183  1
  H+  H68  1  0.27643381  0.39214719  1.00810352  1
  H+  H69  1  0.61013122  0.47540968  0.00942394  1
  H+  H70  1  0.11643908  0.47425993  0.49932643  1
  H+  H71  1  0.08481651  0.91972112  0.06615652  1
  H+  H72  1  0.77397249  0.63496777  0.50430896  1
  H+  H73  1  0.01597766  0.86547964  0.82934337  1
  H+  H74  1  0.87746045  0.23550222  0.34314269  1
  H+  H75  1  0.26757638  0.62571630  0.33983724  1
  H+  H76  1  -0.00646975  0.36781005  0.32844762  1
  H+  H77  1  0.88808394  0.26906945  0.65675438  1
  H+  H78  1  0.89834076  0.02814361  0.18235085  1
  H+  H79  1  0.37705669  0.61782206  0.33082348  1
  H+  H80  1  0.14656429  0.02219383  0.65919108  1
  H+  H81  1  0.85122982  0.97547651  0.82858993  1
  H+  H82  1  0.64130507  0.03150979  0.67023489  1
  H+  H83  1  0.99072047  0.86737525  0.98799311  1
  H+  H84  1  0.46771135  0.10969877  0.84456502  1
  H+  H85  1  0.60806556  0.98001383  0.48913195  1
  H+  H86  1  0.81123497  0.40306123  0.31511396  1
  H+  H87  1  0.36227163  0.48032834  0.81905680  1
  H+  H88  1  0.03688996  0.89753037  0.66917503  1
  H+  H89  1  0.13914156  0.36337943  0.99424229  1
  H+  H90  1  0.78773251  0.64856792  0.01341431  1
  H+  H91  1  0.88452125  0.15126859  0.66018530  1
  H+  H92  1  0.14176012  0.25455984  0.65689630  1
  H+  H93  1  0.36107044  0.97779296  0.82690250  1
  H+  H94  1  0.08862431  0.42377957  0.05999933  1
  H+  H95  1  0.26849726  0.39213303  0.52192992  1
  H+  H96  1  0.64318903  0.54877287  0.87057940  1
  H+  H97  1  0.70379377  0.37163192  0.35955193  1
  H+  H98  1  0.01821316  0.13959998  0.34197066  1
  H+  H99  1  0.57894163  -0.05344984  0.09473722  1
  H+  H100  1  0.02074642  0.88881737  0.15918961  1
  H+  H101  1  -0.00947425  0.60714838  0.83910958  1
  H+  H102  1  0.38557482  0.77654331  0.65947371  1
  H+  H103  1  0.80216451  0.63727334  0.83077583  1
  H+  H104  1  0.36746970  0.97580652  0.49038413  1
  H+  H105  1  0.38655382  0.36380963  0.82919970  1
  H+  H106  1  0.12157273  0.73262175  -0.00044904  1
  H+  H107  1  0.11840823  0.39016471  0.15384571  1
  H+  H108  1  0.47189348  0.36379249  -0.01346430  1
  H+  H109  1  0.10857295  0.88701711  0.15808292  1
  H+  H110  1  0.10746052  0.22737312  0.33308519  1
  H+  H111  1  0.63562164  0.26182772  0.83225617  1
  H+  H112  1  0.38144716  0.11517097  0.99542269  1
  H+  H113  1  0.89213660  0.36141275  0.65842256  1
  H+  H114  1  0.36159508  0.72795812  0.82839197  1
  H+  H115  1  0.34742388  0.87415842  0.15999091  1
  H+  H116  1  0.64041037  0.52285202  0.51352321  1
  H+  H117  1  0.40513574  0.02148059  0.32779691  1
  H+  H118  1  0.48423960  0.11784724  0.65228567  1
  H+  H119  1  0.73364672  0.36413901  0.49826307  1
  H+  H120  1  0.69544126  0.50362261  0.88943844  1
  H+  H121  1  1.03049021  0.39298102  0.15619900  1
  H+  H122  1  0.94002573  0.10877711  0.56332260  1
  H+  H123  1  0.13985049  0.36199391  0.32380676  1
  H+  H124  1  0.10857461  0.51204965  0.80248388  1
  H+  H125  1  0.13871981  0.34331954  0.65501078  1
  H+  H126  1  0.88746965  0.61054090  0.50885932  1
  H+  H127  1  0.77183962  0.62018074  0.35159948  1
  H+  H128  1  0.61717703  0.72958605  -0.00709896  1
  H+  H129  1  0.57988516  0.92600626  0.76529689  1
  H+  H130  1  0.88538547  0.76943349  0.16637160  1
  H+  H131  1  0.41931671  0.83786649  0.89986616  1
  H+  H132  1  0.97768531  0.85492526  0.50324858  1
  H+  H133  1  0.63530870  0.86921849  0.34335043  1
  H+  H134  1  0.47963687  0.86311631  0.50443621  1
  H+  H135  1  0.12210904  0.88760230  0.67014461  1
  H+  H136  1  0.62017826  0.98325530  0.00056794  1
  H+  H137  1  0.63789351  0.11622241  0.49485003  1
  H+  H138  1  0.75856970  0.91614949  0.10894174  1
  H+  H139  1  0.86714561  0.38149151  0.16340757  1
  H+  H140  1  0.02927452  0.14470019  0.65585826  1
  H+  H141  1  0.97064317  0.11012422  0.83584336  1
  H+  H142  1  0.13994885  0.52156621  0.16987725  1
  H+  H143  1  0.35600515  0.25983440  0.32797042  1
  H+  H144  1  0.85138201  0.88248458  0.33936055  1
  H+  H145  1  0.22798450  0.37203891  0.16702041  1
  H+  H146  1  0.35518675  0.71442440  0.15823909  1
  H+  H147  1  0.89267944  0.02425779  0.98604528  1
  H+  H148  1  0.89087841  0.35129766  -0.01163264  1
  H+  H149  1  0.73855907  0.36728738  0.65393249  1
  H+  H150  1  0.77191368  0.27974861  0.04154801  1
  H+  H151  1  0.17660669  0.83269841  0.56505193  1
  H+  H152  1  0.38801952  0.53055504  0.65403549  1
  H+  H153  1  0.12985510  0.55170732  0.70696185  1
  H+  H154  1  0.16485721  0.90943061  0.32091327  1
  H+  H155  1  0.88717674  0.11898654  0.83892796  1
  H+  H156  1  0.36204013  0.73003518  0.49329385  1
  H+  H157  1  0.54784194  0.38828782  0.18166998  1
  H+  H158  1  0.24274084  0.33984218  0.84899404  1
  H+  H159  1  0.11935032  0.47981629  0.34160540  1
  H+  H160  1  0.67627507  0.09204626  0.89637779  1
  H+  H161  1  0.70923905  0.86675709  0.20026007  1
  H+  H162  1  0.62035387  0.89463233  0.00581419  1
  H+  H163  1  0.65166435  0.57734819  0.71825643  1
  H+  H164  1  0.12764061  0.63496555  0.82846671  1
  H+  H165  1  0.88315278  0.49938066  0.33917607  1
  H+  H166  1  0.60519672  0.22248889  1.00125304  1
  H+  H167  1  0.35875349  0.22973426  1.00238775  1
  H+  H168  1  0.73400800  0.11762885  0.66547043  1
  H+  H169  1  0.17604746  0.11248687  0.90890581  1
  H+  H170  1  0.86115628  0.62737436  0.66920235  1
  H+  H171  1  0.86740870  0.76360501  0.32672031  1
  H+  H172  1  0.87481416  0.98170624  0.49500370  1
  H+  H173  1  0.33839049  0.92126776  0.76544171  1
  H+  H174  1  0.34227325  0.17348645  0.06258989  1
  H+  H175  1  0.88187383  0.14496556  0.15903416  1
  H+  H176  1  0.32688871  0.65640871  0.40008245  1
  H+  H177  1  0.60982418  0.45341599  0.80180436  1
  H+  H178  1  0.90183471  0.77706849  -0.01327142  1
  H+  H179  1  -0.01955775  0.61647255  0.66024414  1
  H+  H180  1  0.20242712  0.24428863  0.87475980  1
  H+  H181  1  0.91174898  0.76759359  0.83517065  1
  H+  H182  1  0.02457418  0.63323454  0.49877689  1
  H+  H183  1  0.47647162  0.11349657  0.49972806  1
  H+  H184  1  0.47490866  0.62152831  0.65780425  1
  H+  H185  1  0.12201945  0.72958487  0.15581361  1
  H+  H186  1  0.52051701  0.89736308  0.82621918  1
  H+  H187  1  0.39328532  0.11444823  0.65634429  1
  H+  H188  1  0.13323415  0.61041187  0.32618056  1
  H+  H189  1  0.73241832  0.86768517  -0.01996495  1
  H+  H190  1  0.39238190  0.77868197  -0.00681194  1
  H+  H191  1  0.87658148  0.88555217  -0.01698452  1
  H+  H192  1  0.14280011  0.86949165  0.99260306  1
  H+  H193  1  0.61148690  0.12156641  0.82533245  1
  H+  H194  1  0.59879994  0.60220126  0.31861927  1
  H+  H195  1  0.61415571  0.46552741  0.66540183  1
  H+  H196  1  0.86945170  0.22707497  0.49474204  1
  H+  H197  1  0.11580017  0.64704072  0.67559672  1
  H+  H198  1  0.87230056  0.47721628  0.66934421  1
  H+  H199  1  0.44461844  0.34484790  0.34177527  1
  H+  H200  1  0.63373952  0.78770062  0.65497973  1
  H+  H201  1  0.58557820  0.38186730  0.35424373  1
  H+  H202  1  0.13365746  0.99148064  0.35468703  1
  H+  H203  1  0.87196102  0.23658443  0.81927433  1
  H+  H204  1  0.48237356  0.62133623  0.18103427  1
  H+  H205  1  0.88915081  0.63626062  0.82527089  1
  H+  H206  1  0.61197339  0.64882766  0.67056798  1
  H+  H207  1  0.27225367  0.64033796  0.49840226  1
  H+  H208  1  0.47094905  0.35004895  0.63986675  1
  H+  H209  1  0.62047169  0.37965397  0.65785616  1
  H+  H210  1  0.61431695  0.65178273  0.16346326  1
  H+  H211  1  0.12644642  0.72333948  0.83167301  1
  H+  H212  1  0.72505494  0.11263779  0.49529516  1
  H+  H213  1  0.22398104  0.86538558  0.16316641  1
  H+  H214  1  0.33273015  0.34043141  0.40110170  1
  H+  H215  1  0.30154410  0.76545249  0.21854131  1
  H+  H216  1  0.87554628  0.85218747  0.16449142  1
  H+  H217  1  0.12027269  0.48268521  -0.00029445  1
  H+  H218  1  0.38937799  0.61423740  0.17649180  1
  H+  H219  1  0.14346444  0.76883950  0.50785830  1
  H+  H220  1  0.10528173  0.34989793  0.81043816  1
  H+  H221  1  0.64369852  0.03066495  0.83732680  1
  H+  H222  1  0.36155099  0.22405064  0.82129446  1
  H+  H223  1  0.27343168  0.62389515  0.15458565  1
  H+  H224  1  0.39063443  0.86300692  0.50351713  1
  H+  H225  1  0.71548537  0.34360199  0.99064325  1
  H+  H226  1  0.36125401  0.47802650  0.16305755  1
  H+  H227  1  0.86142657  0.38689125  0.82307003  1
  H+  H228  1  0.57505153  0.39179455  0.74503130  1
  H+  H229  1  0.38253733  0.62209271  0.50349197  1
  H+  H230  1  0.36963901  0.89151628  0.67123538  1
  H+  H231  1  0.29256235  0.91490462  0.33428806  1
  H+  H232  1  0.10104460  0.21691501  0.81690556  1
  H+  H233  1  0.56386781  0.05468577  0.12830495  1
  H+  H234  1  0.61302242  0.23087269  0.48853507  1
  H+  H235  1  0.29817204  0.13422706  0.38753459  1
  H+  H236  1  0.48423042  0.09050230  0.17050361  1
  H+  H237  1  -0.01234983  0.36853602  -0.01387979  1
  H+  H238  1  0.64565239  0.62228537  1.00272377  1
  H+  H239  1  0.25684143  0.10369039  0.48361125  1
  H+  H240  1  0.23424319  0.13785937  0.84720532  1
  H+  H241  1  0.60545172  0.73407002  0.18036114  1
  H+  H242  1  0.37958777  0.61519180  0.83504158  1
  H+  H243  1  0.02256084  0.37035398  0.65925511  1
  H+  H244  1  0.47025494  0.35477966  0.82747451  1
  H+  H245  1  0.77187366  0.38589535  0.82182654  1
  H+  H246  1  0.50213412  0.11741466  0.32182885  1
  H+  H247  1  0.88586335  0.76934970  0.51103470  1
  H+  H248  1  0.11670652  0.38519907  0.49528080  1
  H+  H249  1  0.37999313  0.11267071  0.83984456  1
  H+  H250  1  0.86921682  0.88951520  0.49412299  1
  H+  H251  1  0.88978220  0.52218155  0.50420686  1
  H+  H252  1  0.87061790  0.13796967  0.49297128  1
  H+  H253  1  0.98018755  0.36386423  0.50538704  1
  H+  H254  1  0.50405160  0.63961521  0.82246865  1
  H+  H255  1  0.33383589  0.42726094  0.58363236  1
  H+  H256  1  0.40052914  0.31300937  0.58307993  1
  H+  H257  1  0.60585920  0.62397248  0.48826341  1
  H+  H258  1  0.33490750  0.91562012  0.09758812  1
  H+  H259  1  0.51840714  0.13195143  1.00225280  1
  H+  H260  1  0.86968039  0.38728135  0.48913184  1
  H+  H261  1  0.36065018  0.49715492  0.52493736  1
  H+  H262  1  0.66452952  0.12776645  0.17856769  1
  H+  H263  1  0.61744601  0.78280040  0.83664466  1
  H+  H264  1  0.52961970  0.63909844  0.99105662  1
  H+  H265  1  0.98186607  0.11467024  0.49549424  1
  H+  H266  1  0.12421365  0.87816053  0.82318333  1
  H+  H267  1  0.23384738  0.86142854  0.83864685  1
  H+  H268  1  0.73658117  0.62400871  0.16841375  1
  H+  H269  1  0.35852327  0.64059453  0.67520342  1
  H+  H270  1  0.38765762  0.52658245  0.98711477  1
  H+  H271  1  0.22256675  0.11597164  1.00000239  1
  H+  H272  1  0.57729408  0.46499651  0.34943201  1
  H+  H273  1  0.11153205  0.22554452  1.01628351  1
  H+  H274  1  0.85324768  0.17500783  0.09794949  1
  H+  H275  1  0.27726068  0.13161671  0.66867398  1
  H+  H276  1  0.75774770  0.47482244  0.23510937  1
  H+  H277  1  0.89629136  0.52149220  0.83666042  1
  H+  H278  1  0.64914826  0.27690922  0.65096210  1
  H+  H279  1  1.03223949  0.14152466  0.17156483  1
  H+  H280  1  0.90818407  0.37387270  0.32732605  1
  H+  H281  1  0.66850182  0.41385042  0.19793683  1
  H+  H282  1  0.73238870  0.88144365  0.50544633  1
  H+  H283  1  0.62391046  0.39619944  0.49920802  1
  H+  H284  1  0.62533529  0.87538435  0.83846139  1
  H+  H285  1  0.14692966  0.39200308  0.81127439  1
  H+  H286  1  0.78240700  0.14806897  0.82116641  1
  H+  H287  1  0.36546420  0.24184510  0.50454876  1
  H+  H288  1  0.16419575  0.33466878  0.26187696  1
  H+  H289  1  0.55225603  0.52353909  0.27474987  1
  H+  H290  1  0.40962203  0.33167508  0.92896316  1
  H+  H291  1  0.23753509  0.96373928  0.27313212  1
  H+  H292  1  0.16300923  0.07625565  0.56123123  1
  H+  H293  1  0.78753621  0.39938483  0.17157256  1
  H+  H294  1  0.19497922  0.10122351  0.28678810  1
  H+  H295  1  0.07451105  0.43790263  0.74949058  1
  H+  H296  1  0.27416127  0.37353174  0.65821905  1
  H+  H297  1  0.89350950  0.82012790  0.26609449  1
  H+  H298  1  0.58158580  0.17087620  0.42941276  1
  H+  H299  1  0.12413906  0.18683681  0.42123433  1
  H+  H300  1  0.14499227  0.61331585  0.16850056  1
  H+  H301  1  0.84380530  0.41954870  0.42901489  1
  H+  H302  1  0.84403594  0.66269947  0.73058244  1
  H+  H303  1  0.14565831  0.78049483  0.66198611  1
  H+  H304  1  0.83825672  0.41737621  0.72852754  1
  H+  H305  1  0.83126273  0.66293333  0.44405137  1
  H+  H306  1  0.23188869  0.86880521  0.99260538  1
  H+  H307  1  0.09837494  0.67363751  0.05856620  1
  H+  H308  1  0.41094749  0.58289371  0.89368177  1
  H+  H309  1  0.81839268  0.91030104  0.73928675  1
  H+  H310  1  0.84907266  0.16834176  0.72445564  1
  H+  H311  1  0.68979623  0.58988512  0.95569467  1
  H+  H312  1  0.93624198  0.56949629  0.20852821  1
  H+  H313  1  0.36456510  0.22117716  0.66703516  1
  H+  H314  1  0.36849459  0.89080530  1.00457071  1
  H+  H315  1  0.41749720  0.59317348  0.26481287  1
  H+  H316  1  0.57187436  0.65638873  0.39903587  1
  H+  H317  1  0.09122689  0.42044418  0.40184486  1
  H+  H318  1  0.83549293  0.91963604  0.40198945  1
  H+  H319  1  0.37181642  -0.01807739  0.67025231  1
  H+  H320  1  0.08527832  0.65916847  0.44028728  1
  H+  H321  1  0.15188512  0.11624620  0.49748625  1
  H+  H322  1  0.65118792  0.83139064  0.25791243  1
  H+  H323  1  0.42761234  0.33098960  0.24466593  1
  H+  H324  1  0.92537226  0.60813938  0.29114565  1
  H+  H325  1  0.66387092  0.58887620  0.56939270  1
  H+  H326  1  0.36496516  0.97891144  0.00634090  1
  H+  H327  1  0.61625883  0.23141570  0.33775312  1
  H+  H328  1  0.01405172  0.63012038  0.35069477  1
  H+  H329  1  0.83393277  0.90092860  0.04113391  1
  H+  H330  1  0.93323935  0.86066393  0.59280642  1
  H+  H331  1  0.94243901  0.83190904  0.89493534  1
  H+  H332  1  0.33310760  0.42082353  0.75958205  1
  H+  H333  1  0.17538504  0.58740813  0.92629726  1
  H+  H334  1  0.41775139  0.08195202  0.55950007  1
  H+  H335  1  0.66245168  0.32613650  0.92809605  1
  H+  H336  1  0.41982655  0.60432443  0.56539963  1
  H+  H337  1  0.13196637  0.11336601  0.00218867  1
  H+  H338  1  0.81139804  0.36954622  0.07268840  1
  H+  H339  1  0.64201427  0.11837673  0.98969756  1
  H+  H340  1  0.39827593  0.82541373  0.23670629  1
  H+  H341  1  0.43511612  0.07505624  0.25855297  1
  H+  H342  1  0.92156494  0.09037686  0.93138542  1
  H+  H343  1  0.68913920  0.10242846  0.27524155  1
  H+  H344  1  -0.02287114  0.38965316  0.82360375  1
  H+  H345  1  0.57511375  0.67722014  0.72626617  1
  H+  H346  1  0.33463407  0.42660742  0.10079033  1
  H+  H347  1  0.33643052  0.66585523  0.06014560  1
  H+  H348  1  0.92306436  0.58205663  0.59933726  1
  H+  H349  1  0.07768952  0.15373991  0.72222558  1
  H+  H350  1  0.92950120  0.33894532  0.23422034  1
  H+  H351  1  0.08597105  0.16332406  0.11042720  1
  H+  H352  1  0.67728051  0.33543887  0.55877224  1
  H+  H353  1  0.38955764  0.61670144  0.98643661  1
  H+  H354  1  0.73446408  0.61248683  0.67707523  1
  H+  H355  1  0.58471283  0.92621491  0.40240280  1
  H+  H356  1  0.17276157  0.84807323  0.22439861  1
  H+  H357  1  0.87585321  0.22817607  -0.00100340  1
  H+  H358  1  0.41762267  0.83396730  0.59871375  1
  H+  H359  1  0.65974901  0.84087087  0.93011374  1
  H+  H360  1  0.67364479  0.85791070  0.56430989  1
  H+  H361  1  0.09153880  0.90908965  0.76296749  1
  H+  H362  1  0.23644568  0.86909858  0.65995009  1
  H+  H363  1  0.40837249  0.08279860  0.93626576  1
  H+  H364  1  0.09703783  0.91436659  0.40175928  1
  H+  H365  1  0.61393805  0.89463424  0.67425476  1
  H+  H366  1  0.16337972  0.58056065  0.57420012  1
  H+  H367  1  0.17373174  0.32159094  0.94369101  1
  H+  H368  1  0.03707787  0.63797565  0.14620988  1
  H+  H369  1  0.16463753  0.58208811  0.26564110  1
  H+  H370  1  0.57394419  0.42102339  0.45106423  1
  H+  H371  1  0.66941127  0.59343257  0.22450626  1
  H+  H372  1  0.84707007  0.67272937  0.09525449  1
  H+  H373  1  0.34363095  0.92723228  0.39876102  1
  H+  H374  1  0.91816162  0.33367107  0.56358941  1
  H+  H375  1  -0.03544170  0.94826593  0.62602011  1
  H+  H376  1  0.08795057  0.67382620  0.73571762  1
  H+  H377  1  0.98909349  0.20676535  0.61109145  1
  H+  H378  1  0.84540636  0.17519455  0.40363661  1
  H+  H379  1  0.72491507  0.87299257  0.66399054  1
  H+  H380  1  0.59270834  0.18115691  0.72087142  1
  H+  H381  1  0.72335857  0.81830924  0.10785115  1
  H+  H382  1  0.33023596  0.16070286  0.76408666  1
  H+  H383  1  0.87226767  0.63671664  0.15308097  1
  O2-  O384  1  0.09168519  0.16936285  0.15547465  1
  O2-  O385  1  0.15849650  0.20481726  0.46001578  1
  O2-  O386  1  0.07046897  0.15699551  0.80215949  1
  O2-  O387  1  0.08937418  0.42310006  0.13857878  1
  O2-  O388  1  0.08570871  0.41568626  0.48133387  1
  O2-  O389  1  0.06038877  0.47633347  0.77243563  1
  O2-  O390  1  0.09971126  0.67100012  0.13772445  1
  O2-  O391  1  0.08639197  0.66127775  0.48580118  1
  O2-  O392  1  0.09580044  0.66352742  0.81481081  1
  O2-  O393  1  0.08125545  0.92076933  0.14477609  1
  O2-  O394  1  0.08096951  0.90238961  0.47900961  1
  O2-  O395  1  0.09012257  0.90566765  0.80894955  1
  O2-  O396  1  0.39784589  0.18716982  0.13140712  1
  O2-  O397  1  0.31243934  0.13071009  0.46092688  1
  O2-  O398  1  0.33070112  0.16193812  0.80977026  1
  O2-  O399  1  0.32577625  0.42038817  0.14533013  1
  O2-  O400  1  0.33088600  0.43292269  0.53823446  1
  O2-  O401  1  0.33671498  0.41959767  0.80408697  1
  O2-  O402  1  0.33413110  0.65672250  0.13956574  1
  O2-  O403  1  0.33020009  0.66829956  0.47927513  1
  O2-  O404  1  0.33382211  0.66887957  0.81107728  1
  O2-  O405  1  0.32966537  0.91486337  0.14316681  1
  O2-  O406  1  0.33865298  0.91584612  0.47313854  1
  O2-  O407  1  0.33577039  0.91792891  0.81103867  1
  O2-  O408  1  0.57192677  0.11430639  0.13468438  1
  O2-  O409  1  0.57930643  0.16973005  0.47449830  1
  O2-  O410  1  0.56774282  0.13447944  0.80495304  1
  O2-  O411  1  0.60896702  0.42109789  0.16478408  1
  O2-  O412  1  0.59527242  0.43069411  0.49344858  1
  O2-  O413  1  0.57462332  0.39267147  0.79185986  1
  O2-  O414  1  0.57859396  0.67867370  0.15742482  1
  O2-  O415  1  0.57315260  0.64719613  0.46706490  1
  O2-  O416  1  0.56491779  0.67643905  0.80496785  1
  O2-  O417  1  0.56600879  0.96505170  0.13404715  1
  O2-  O418  1  0.57680604  0.91748305  0.47610142  1
  O2-  O419  1  0.58139755  0.93031000  0.81131785  1
  O2-  O420  1  0.85616407  0.17920823  0.14327298  1
  O2-  O421  1  0.84003455  0.16790035  0.47740834  1
  O2-  O422  1  0.84275788  0.17527085  0.80651458  1
  O2-  O423  1  0.83560784  0.40885915  0.14388324  1
  O2-  O424  1  0.83992373  0.41842783  0.47397239  1
  O2-  O425  1  0.83230145  0.41865272  0.80778381  1
  O2-  O426  1  0.84256041  0.66828521  0.14126682  1
  O2-  O427  1  0.83495204  0.66364713  0.48943532  1
  O2-  O428  1  0.85878235  0.66832138  0.81132328  1
  O2-  O429  1  0.77603753  0.87319582  0.11474213  1
  O2-  O430  1  0.84164358  0.92195498  0.47857035  1
  O2-  O431  1  0.82001768  0.91544046  0.81386741  1
  O2-  O432  1  0.16731788  0.08178256  0.21295149  1
  O2-  O433  1  0.15790799  0.06831449  0.51626522  1
  O2-  O434  1  0.18545079  0.13906716  0.86753921  1
  O2-  O435  1  0.16544660  0.34208727  0.18068167  1
  O2-  O436  1  0.17062584  0.33520676  0.51862682  1
  O2-  O437  1  0.19382491  0.29494979  0.87226529  1
  O2-  O438  1  0.17208619  0.58175476  0.18681753  1
  O2-  O439  1  0.16654312  0.58081668  0.52968022  1
  O2-  O440  1  0.18243560  0.57270702  0.85139647  1
  O2-  O441  1  0.16414943  0.83330303  0.18021779  1
  O2-  O442  1  0.17535505  0.83086727  0.51957503  1
  O2-  O443  1  0.17276490  0.82929662  0.85315122  1
  O2-  O444  1  0.42623020  0.07044173  0.19058942  1
  O2-  O445  1  0.41566472  0.07781141  0.51423633  1
  O2-  O446  1  0.40725751  0.08060003  0.85834595  1
  O2-  O447  1  0.45194762  0.33748765  0.20283641  1
  O2-  O448  1  0.38676086  0.30139833  0.51741115  1
  O2-  O449  1  0.41222680  0.32981293  0.84555466  1
  O2-  O450  1  0.42079065  0.58857833  0.19728557  1
  O2-  O451  1  0.41330321  0.59242049  0.52072213  1
  O2-  O452  1  0.41038480  0.58318034  0.84756659  1
  O2-  O453  1  0.35796795  0.79859424  0.19970592  1
  O2-  O454  1  0.41829953  0.83116482  0.52028638  1
  O2-  O455  1  0.41883208  0.83629965  0.85426358  1
  O2-  O456  1  0.70069346  0.10858113  0.19951023  1
  O2-  O457  1  0.66355969  0.08073926  0.50627402  1
  O2-  O458  1  0.67511399  0.09256356  0.85077085  1
  O2-  O459  1  0.72166627  0.41435094  0.22440999  1
  O2-  O460  1  0.67321218  0.33449456  0.51338192  1
  O2-  O461  1  0.66064661  0.32152190  0.84587260  1
  O2-  O462  1  0.67471199  0.59614582  0.17972067  1
  O2-  O463  1  0.66980737  0.58736953  0.52548591  1
  O2-  O464  1  0.70072259  0.55648197  0.87294047  1
  O2-  O465  1  0.64913763  0.83327201  0.21201376  1
  O2-  O466  1  0.67237364  0.85781750  0.51923950  1
  O2-  O467  1  0.65061503  0.84061275  0.85501999  1
  O2-  O468  1  0.92208829  0.08727135  0.19574431  1
  O2-  O469  1  0.92665930  0.08790113  0.51643083  1
  O2-  O470  1  0.91349869  0.08600724  0.85612170  1
  O2-  O471  1  0.92589118  0.34068181  0.18864307  1
  O2-  O472  1  0.91839672  0.33438658  0.51797453  1
  O2-  O473  1  0.92322462  0.34590650  0.84355275  1
  O2-  O474  1  0.92840432  0.57570756  0.16537017  1
  O2-  O475  1  0.92040014  0.58149149  0.52161119  1
  O2-  O476  1  0.92936543  0.58146919  0.85265054  1
  O2-  O477  1  0.91057434  0.83000713  0.18183221  1
  O2-  O478  1  0.91880853  0.83210192  0.52103100  1
  O2-  O479  1  0.94548696  0.82945692  0.84890000  1
  O2-  O480  1  0.20253160  0.10314938  0.33257360  1
  O2-  O481  1  0.17473743  0.08099182  0.64114412  1
  O2-  O482  1  0.16233261  0.08444271  0.98408260  1
  O2-  O483  1  0.16349667  0.32753716  0.30659900  1
  O2-  O484  1  0.17218868  0.31594139  0.64063132  1
  O2-  O485  1  0.16868247  0.32936633  0.98820993  1
  O2-  O486  1  0.16492331  0.58175691  0.31112213  1
  O2-  O487  1  0.16015989  0.57915215  0.66845133  1
  O2-  O488  1  0.17460798  0.58758442  0.97244741  1
  O2-  O489  1  0.21013991  0.90695425  0.29202389  1
  O2-  O490  1  0.17627394  0.83927905  0.64364965  1
  O2-  O491  1  0.17213872  0.83907803  0.97578101  1
  O2-  O492  1  0.43933760  0.08090324  0.30576420  1
  O2-  O493  1  0.42272265  0.08388869  0.63978133  1
  O2-  O494  1  0.41199675  0.08421958  0.98168302  1
  O2-  O495  1  0.39100299  0.32137837  0.31777252  1
  O2-  O496  1  0.40879595  0.32087573  0.63131860  1
  O2-  O497  1  0.40929592  0.33206736  0.97401443  1
  O2-  O498  1  0.41618862  0.59347533  0.31245747  1
  O2-  O499  1  0.41359247  0.59227527  0.64367575  1
  O2-  O500  1  0.41752873  0.58563821  0.96856619  1
  O2-  O501  1  0.43943083  0.86242176  0.29820988  1
  O2-  O502  1  0.41744858  0.83685009  0.64431303  1
  O2-  O503  1  0.42123859  0.83958442  0.97833688  1
  O2-  O504  1  0.68151260  0.10051667  0.32054369  1
  O2-  O505  1  0.67115868  0.09383453  0.66080228  1
  O2-  O506  1  0.67439697  0.09047485  0.97404785  1
  O2-  O507  1  0.65662163  0.34141573  0.33077266  1
  O2-  O508  1  0.67896702  0.33834791  0.63659658  1
  O2-  O509  1  0.65805829  0.32633497  0.97306725  1
  O2-  O510  1  0.60620170  0.55636826  0.29686426  1
  O2-  O511  1  0.66733164  0.58330120  0.67539095  1
  O2-  O512  1  0.68107712  0.59196742  0.99942970  1
  O2-  O513  1  0.65993314  0.83195476  0.33072472  1
  O2-  O514  1  0.66520200  0.84955355  0.64510437  1
  O2-  O515  1  0.66919112  0.84142764  0.97531541  1
  O2-  O516  1  0.90785470  0.07929849  0.31228989  1
  O2-  O517  1  0.95911182  0.14621665  0.62254966  1
  O2-  O518  1  0.92068604  0.08697832  0.97725992  1
  O2-  O519  1  0.93262421  0.33863590  0.31195914  1
  O2-  O520  1  0.92046165  0.33046107  0.64101383  1
  O2-  O521  1  0.92859526  0.33365442  0.96780917  1
  O2-  O522  1  0.92195904  0.59063956  0.33330888  1
  O2-  O523  1  0.92056967  0.58069564  0.64492190  1
  O2-  O524  1  0.92121443  0.59339342  0.97972890  1
  O2-  O525  1  0.88625748  0.82140171  0.31037872  1
  O2-  O526  1  0.94767429  0.88862760  0.63444565  1
  O2-  O527  1  0.93269210  0.83585408  0.96762121  1
  O2-  O528  1  0.08076689  0.16416956  0.02996430  1
  O2-  O529  1  0.07911362  0.16977903  0.35356887  1
  O2-  O530  1  0.08685935  0.15650006  0.67756145  1
  O2-  O531  1  0.08825089  0.42165943  0.01440527  1
  O2-  O532  1  0.08959900  0.41931035  0.35652528  1
  O2-  O533  1  0.08461987  0.39532265  0.67185281  1
  O2-  O534  1  0.09285125  0.67149641  0.01338109  1
  O2-  O535  1  0.07967593  0.65770610  0.36211073  1
  O2-  O536  1  0.08585008  0.67752315  0.69037595  1
  O2-  O537  1  0.08753648  0.91875968  0.02056434  1
  O2-  O538  1  0.10637250  0.92820808  0.35749965  1
  O2-  O539  1  0.09419341  0.91838431  0.68893461  1
  O2-  O540  1  0.32936549  0.16910644  0.01829500  1
  O2-  O541  1  0.29493191  0.13872341  0.34129242  1
  O2-  O542  1  0.33730457  0.16217911  0.68550296  1
  O2-  O543  1  0.33883189  0.42696294  0.01828147  1
  O2-  O544  1  0.30403107  0.32690653  0.44039365  1
  O2-  O545  1  0.33839697  0.41425941  0.66041277  1
  O2-  O546  1  0.33948332  0.67197911  0.01489245  1
  O2-  O547  1  0.32777399  0.65158388  0.35501245  1
  O2-  O548  1  0.32854694  0.67086263  0.69052515  1
  O2-  O549  1  0.33561989  0.91803015  0.02095202  1
  O2-  O550  1  0.35031560  0.93422537  0.35304000  1
  O2-  O551  1  0.34016257  0.92232754  0.68758457  1
  O2-  O552  1  0.58002677  0.16177365  0.01554977  1
  O2-  O553  1  0.58906827  0.16959245  0.34897428  1
  O2-  O554  1  0.59293357  0.17678579  0.67638227  1
  O2-  O555  1  0.57193730  0.41259721  0.00650353  1
  O2-  O556  1  0.55317866  0.40877655  0.37018211  1
  O2-  O557  1  0.58318353  0.40298846  0.67379040  1
  O2-  O558  1  0.59118844  0.66760571  0.00237932  1
  O2-  O559  1  0.57020615  0.66455459  0.35254392  1
  O2-  O560  1  0.57732039  0.67582300  0.68092969  1
  O2-  O561  1  0.58862290  0.92460923  0.01863395  1
  O2-  O562  1  0.59215069  0.92923131  0.35650687  1
  O2-  O563  1  0.58177945  0.92291995  0.69125812  1
  O2-  O564  1  0.84092143  0.17024936  0.01799122  1
  O2-  O565  1  0.84318002  0.17489468  0.35763465  1
  O2-  O566  1  0.84467535  0.16996663  0.67957861  1
  O2-  O567  1  0.79826316  0.34067573  0.03174696  1
  O2-  O568  1  0.85378069  0.43113999  0.34706557  1
  O2-  O569  1  0.84056763  0.41576570  0.68320907  1
  O2-  O570  1  0.85117004  0.68064492  0.02134944  1
  O2-  O571  1  0.82998187  0.65869881  0.36593760  1
  O2-  O572  1  0.83023772  0.65565801  0.68655989  1
  O2-  O573  1  0.84340286  0.91375839  -0.00264706  1
  O2-  O574  1  0.82759595  0.91835132  0.35669289  1
  O2-  O575  1  0.81546630  0.90883698  0.69345714  1
