# generated using pymatgen
data_H2O
_symmetry_space_group_name_H-M   'P 1'
_cell_length_a   17.97547537
_cell_length_b   17.96539856
_cell_length_c   21.97634205
_cell_angle_alpha   89.96672621
_cell_angle_beta   89.98068928
_cell_angle_gamma   119.99545958
_symmetry_Int_Tables_number   1
_chemical_formula_structural   H2O
_chemical_formula_sum   'H384 O192'
_cell_volume   6146.43027330
_cell_formula_units_Z   192
loop_
 _symmetry_equiv_pos_site_id
 _symmetry_equiv_pos_as_xyz
  1  'x, y, z'
loop_
 _atom_type_symbol
 _atom_type_oxidation_number
  H+  1.0
  O2-  -2.0
loop_
 _atom_site_type_symbol
 _atom_site_label
 _atom_site_symmetry_multiplicity
 _atom_site_fract_x
 _atom_site_fract_y
 _atom_site_fract_z
 _atom_site_occupancy
  H+  H0  1  0.62351154  0.39945356  0.82512157  1
  H+  H1  1  0.48106461  0.37595471  0.17667611  1
  H+  H2  1  0.38968446  0.85719827  0.84838126  1
  H+  H3  1  0.63930729  0.39740523  -0.00736859  1
  H+  H4  1  0.51639990  0.88067657  0.49382149  1
  H+  H5  1  0.53553719  0.87948305  0.16499865  1
  H+  H6  1  0.14653257  1.02110271  0.18387809  1
  H+  H7  1  0.38203356  1.01026015  0.49043090  1
  H+  H8  1  0.63649080  0.03069767  0.84905873  1
  H+  H9  1  -0.01621729  0.14800441  0.82457383  1
  H+  H10  1  0.47263210  0.84139392  0.63728415  1
  H+  H11  1  0.89582143  0.94244389  -0.01005674  1
  H+  H12  1  0.77083812  0.13471454  0.34031959  1
  H+  H13  1  0.85191880  0.37014609  0.50245888  1
  H+  H14  1  0.12610761  0.33621356  0.66160614  1
  H+  H15  1  0.35114124  0.47140101  0.66684051  1
  H+  H16  1  0.26268615  0.14109505  1.03252160  1
  H+  H17  1  0.43213437  0.07746951  0.93815006  1
  H+  H18  1  0.35550991  0.47135092  0.33281255  1
  H+  H19  1  0.61585881  0.50790152  0.15655228  1
  H+  H20  1  0.76674179  0.87656034  0.83613905  1
  H+  H21  1  0.13022782  1.02666342  0.00690610  1
  H+  H22  1  0.28442633  0.89767350  0.32792972  1
  H+  H23  1  0.47271785  0.61291645  0.83330057  1
  H+  H24  1  0.19935493  0.09564744  0.33896343  1
  H+  H25  1  0.35482152  0.47111857  0.00240847  1
  H+  H26  1  0.77832024  0.40168060  0.70042928  1
  H+  H27  1  0.63744236  0.86975508  0.50725442  1
  H+  H28  1  0.27963834  0.38174443  0.82172848  1
  H+  H29  1  0.14935098  0.78423281  0.31760706  1
  H+  H30  1  0.01709994  0.38397266  0.00362705  1
  H+  H31  1  0.59707892  0.41742249  0.58026849  1
  H+  H32  1  0.47200096  0.09796645  0.48939242  1
  H+  H33  1  0.36724877  0.12888661  0.48290062  1
  H+  H34  1  0.86445551  0.71898932  0.66764780  1
  H+  H35  1  0.63237320  0.77367304  0.33778338  1
  H+  H36  1  0.40262784  0.86286288  0.17340164  1
  H+  H37  1  0.27448141  0.64886017  0.66272882  1
  H+  H38  1  0.42077538  0.33943037  0.23482971  1
  H+  H39  1  0.84672960  0.17227211  0.67801589  1
  H+  H40  1  0.14406192  0.86928497  0.33083038  1
  H+  H41  1  0.11701098  0.64479009  0.14373645  1
  H+  H42  1  0.09303083  0.26259268  0.48273564  1
  H+  H43  1  0.10691574  0.08095750  0.47565824  1
  H+  H44  1  0.13369047  0.52455464  0.83025730  1
  H+  H45  1  0.73248772  0.85222561  0.19741148  1
  H+  H46  1  0.77333509  0.62065727  0.48242177  1
  H+  H47  1  0.88578906  0.60121568  0.34208050  1
  H+  H48  1  0.60562034  0.64119994  0.81677359  1
  H+  H49  1  0.52917959  0.13973411  0.31710401  1
  H+  H50  1  0.38345358  0.36039211  0.66257252  1
  H+  H51  1  0.98860689  0.85201799  0.17642270  1
  H+  H52  1  0.72813652  0.87092252  0.51165651  1
  H+  H53  1  0.87420341  0.87615244  0.20150214  1
  H+  H54  1  0.80999128  0.61951206  0.16529420  1
  H+  H55  1  0.12592652  0.95012077  0.50558250  1
  H+  H56  1  0.56997502  0.76641719  0.98794080  1
  H+  H57  1  0.72683505  0.87461512  1.01123501  1
  H+  H58  1  0.36728439  0.63755166  0.33983770  1
  H+  H59  1  0.28932677  0.89566358  0.82172400  1
  H+  H60  1  0.37322229  0.61429924  0.65063786  1
  H+  H61  1  0.64552753  1.02159545  0.00222951  1
  H+  H62  1  0.49817213  0.35547602  0.52956593  1
  H+  H63  1  0.89991440  0.81089389  0.14028807  1
  H+  H64  1  0.22528370  0.36382930  0.16907625  1
  H+  H65  1  0.38973994  0.76964390  0.83707345  1
  H+  H66  1  0.27801344  0.87266484  0.47155309  1
  H+  H67  1  0.46509734  1.01839899  0.03349723  1
  H+  H68  1  0.61770888  0.64664020  0.34222170  1
  H+  H69  1  0.37724593  0.60791371  -0.02045744  1
  H+  H70  1  0.87715158  0.51540395  0.51640829  1
  H+  H71  1  0.90981194  0.33337372  0.94110683  1
  H+  H72  1  0.15903838  0.90907955  0.70242552  1
  H+  H73  1  0.67868957  0.08468462  0.93477300  1
  H+  H74  1  0.47386122  0.61301955  0.17033667  1
  H+  H75  1  0.63981556  0.27216144  0.32462202  1
  H+  H76  1  0.88646065  0.76205295  0.50228096  1
  H+  H77  1  0.99831848  0.60232499  0.20798141  1
  H+  H78  1  0.40957614  0.35558193  0.51410461  1
  H+  H79  1  0.52005370  0.39504551  0.67870312  1
  H+  H80  1  0.77466614  0.40367403  0.83827807  1
  H+  H81  1  0.38082922  0.97816302  0.18482354  1
  H+  H82  1  0.87053234  0.14374638  0.00537290  1
  H+  H83  1  0.91991339  0.10126880  0.66516023  1
  H+  H84  1  0.83262156  0.66258009  0.72749488  1
  H+  H85  1  0.76573387  0.12508782  0.49120956  1
  H+  H86  1  0.37287597  0.73014179  0.14780974  1
  H+  H87  1  1.02981721  0.86683283  0.50164145  1
  H+  H88  1  0.86394991  0.37734508  0.16913931  1
  H+  H89  1  0.98566350  0.12970442  0.98710711  1
  H+  H90  1  0.47563770  0.61106934  0.32963248  1
  H+  H91  1  0.01523874  0.85426820  0.35967186  1
  H+  H92  1  0.36403696  0.47281582  0.81975929  1
  H+  H93  1  0.58623754  0.47889454  1.00481043  1
  H+  H94  1  0.12708367  0.55531280  0.64531107  1
  H+  H95  1  0.85996490  0.38779555  0.69586468  1
  H+  H96  1  0.82297518  0.60054782  -0.02462065  1
  H+  H97  1  0.71959825  0.61886680  0.83688213  1
  H+  H98  1  0.09863703  0.12927697  0.34123793  1
  H+  H99  1  0.89605931  0.70784235  0.17301906  1
  H+  H100  1  0.27513202  0.63869218  0.81497880  1
  H+  H101  1  0.75818771  0.88334269  0.67690642  1
  H+  H102  1  0.62169852  0.24594898  0.58371602  1
  H+  H103  1  0.36609210  0.25575264  1.02749656  1
  H+  H104  1  0.74379217  0.63464987  0.32466981  1
  H+  H105  1  0.60370400  0.49089318  0.67312452  1
  H+  H106  1  0.38698188  0.13914349  0.66442952  1
  H+  H107  1  0.36149423  0.38750298  0.16129902  1
  H+  H108  1  0.12684537  0.35854293  0.32197021  1
  H+  H109  1  0.85368479  0.64553315  0.82056881  1
  H+  H110  1  0.02187703  0.88016416  0.01121360  1
  H+  H111  1  0.59301227  0.73670272  0.66904640  1
  H+  H112  1  0.14709799  0.98889431  0.69383611  1
  H+  H113  1  0.42632478  0.35828517  0.83866920  1
  H+  H114  1  0.86336020  0.16678157  0.82002719  1
  H+  H115  1  0.76828459  0.88037782  0.34284922  1
  H+  H116  1  0.42099985  0.31760764  0.35845560  1
  H+  H117  1  0.25905552  0.11361758  0.66439815  1
  H+  H118  1  0.03696724  0.65736508  0.81773214  1
  H+  H119  1  0.63179093  0.10343149  0.49457897  1
  H+  H120  1  0.88257882  0.01851394  0.32439249  1
  H+  H121  1  0.11577191  0.44128255  0.67572758  1
  H+  H122  1  0.41438972  -0.01493116  0.67048934  1
  H+  H123  1  0.60959226  0.72842165  0.16140297  1
  H+  H124  1  0.86444835  0.84018892  0.65828975  1
  H+  H125  1  0.65602546  0.85001988  0.60378049  1
  H+  H126  1  0.88859358  0.26399235  0.17643120  1
  H+  H127  1  0.27747721  0.88430023  0.68011262  1
  H+  H128  1  0.27666319  0.12772060  0.18616990  1
  H+  H129  1  0.22636954  0.61452959  0.97923024  1
  H+  H130  1  0.62357210  0.73936226  0.49717848  1
  H+  H131  1  0.74923030  0.41289273  0.18249636  1
  H+  H132  1  0.37037803  0.21825011  0.49307430  1
  H+  H133  1  0.74365971  0.69086112  0.17039127  1
  H+  H134  1  0.65354140  1.01189797  0.18249898  1
  H+  H135  1  0.61032575  0.88701161  0.34249647  1
  H+  H136  1  0.23535601  0.08575471  0.51147359  1
  H+  H137  1  0.11959542  0.22915218  0.82175291  1
  H+  H138  1  0.84842650  0.67872680  0.40202609  1
  H+  H139  1  0.22395280  0.37731811  0.51074938  1
  H+  H140  1  0.01639715  0.39109600  0.49307718  1
  H+  H141  1  0.07027443  0.17915461  0.39036628  1
  H+  H142  1  0.11394296  0.39117257  0.15542652  1
  H+  H143  1  0.63108694  0.86824833  0.83842226  1
  H+  H144  1  0.64735210  0.85889384  0.18171482  1
  H+  H145  1  0.36708602  0.73563236  0.65823992  1
  H+  H146  1  0.14314454  0.64931143  0.65326111  1
  H+  H147  1  0.58350644  0.27084126  0.16134406  1
  H+  H148  1  0.41304155  0.83131928  0.55938462  1
  H+  H149  1  0.88021585  0.27027245  0.32956994  1
  H+  H150  1  1.04435976  0.64815831  0.34053700  1
  H+  H151  1  0.52355538  0.89392265  0.83523644  1
  H+  H152  1  0.93349908  0.40117677  0.63244100  1
  H+  H153  1  0.86540089  0.62624671  0.49097819  1
  H+  H154  1  0.27756771  0.63493477  0.33961337  1
  H+  H155  1  0.38686486  0.77149512  0.32446998  1
  H+  H156  1  0.62553256  0.88228770  0.66234496  1
  H+  H157  1  0.02989518  0.88800526  0.83603325  1
  H+  H158  1  0.65666878  0.54660445  0.31225944  1
  H+  H159  1  0.12064817  0.75370391  -0.01507127  1
  H+  H160  1  0.42442322  0.82240447  0.22944951  1
  H+  H161  1  0.64216976  0.09400684  0.17962609  1
  H+  H162  1  0.12458081  0.54749149  0.49810724  1
  H+  H163  1  0.97053705  0.10981268  0.32541882  1
  H+  H164  1  0.39122689  0.11137560  0.20614015  1
  H+  H165  1  0.67277779  0.37070679  0.90165324  1
  H+  H166  1  0.63375938  0.55650774  0.45884996  1
  H+  H167  1  0.10957244  0.13699567  0.01254215  1
  H+  H168  1  0.61685057  0.13696626  0.32639092  1
  H+  H169  1  0.87847255  0.35592209  1.00449729  1
  H+  H170  1  0.63070665  0.43045581  0.16772396  1
  H+  H171  1  0.57771488  0.88884886  1.00503568  1
  H+  H172  1  0.61316292  0.61805813  0.64994344  1
  H+  H173  1  0.11241589  0.22947925  1.00678880  1
  H+  H174  1  0.96324975  0.76904317  0.97666684  1
  H+  H175  1  0.12929316  0.74262847  0.82478699  1
  H+  H176  1  0.26514824  0.38260119  0.32769847  1
  H+  H177  1  0.71969349  0.38159440  0.99689456  1
  H+  H178  1  0.37004644  0.88163450  0.47952050  1
  H+  H179  1  0.36602043  0.21854318  0.18071593  1
  H+  H180  1  0.63205571  0.49419601  0.51347534  1
  H+  H181  1  0.62268639  0.49684321  0.82524508  1
  H+  H182  1  0.13528214  0.51398716  0.32772258  1
  H+  H183  1  0.95810905  0.57317490  0.96384955  1
  H+  H184  1  0.52352615  0.14679836  0.86405120  1
  H+  H185  1  0.32768428  0.90914864  1.00212274  1
  H+  H186  1  0.72319257  0.86677436  0.04504275  1
  H+  H187  1  0.02195796  0.38772713  0.82969094  1
  H+  H188  1  0.85620402  0.95715692  0.67424945  1
  H+  H189  1  0.21136532  0.83503808  0.99758485  1
  H+  H190  1  0.66609689  0.09085811  0.59118904  1
  H+  H191  1  0.10952436  0.00713662  0.34059377  1
  H+  H192  1  0.96876579  0.12007792  0.50355210  1
  H+  H193  1  0.86737905  -0.02929719  0.49499679  1
  H+  H194  1  0.39173586  0.02945707  0.84574603  1
  H+  H195  1  0.90900134  0.59807858  0.19796609  1
  H+  H196  1  0.60740021  1.00856671  0.67736661  1
  H+  H197  1  0.39376142  0.02537968  0.30101671  1
  H+  H198  1  0.00903035  0.23813393  0.44566600  1
  H+  H199  1  0.50620663  0.63226337  0.00236507  1
  H+  H200  1  0.38234430  0.22503490  0.67509442  1
  H+  H201  1  0.12658202  0.26920703  0.31725207  1
  H+  H202  1  1.03820116  0.66184250  0.67060373  1
  H+  H203  1  0.63620513  0.29176089  0.85592104  1
  H+  H204  1  0.12929155  0.89012809  0.16436166  1
  H+  H205  1  1.01230163  0.36943991  0.66633671  1
  H+  H206  1  0.35992310  0.23239399  0.86298535  1
  H+  H207  1  0.62279062  0.77516555  0.83772999  1
  H+  H208  1  0.16583078  0.57691422  0.92046621  1
  H+  H209  1  0.13348154  0.82855559  0.49331946  1
  H+  H210  1  0.90934946  0.53891831  0.66781402  1
  H+  H211  1  0.72547205  0.12374906  0.84574104  1
  H+  H212  1  0.08158118  0.10216942  0.46643086  1
  H+  H213  1  0.64273339  0.36426941  0.32986174  1
  H+  H214  1  0.90484168  -0.04105160  1.02233252  1
  H+  H215  1  0.27603397  0.13752178  0.86013256  1
  H+  H216  1  0.65198068  0.30169303  0.67271606  1
  H+  H217  1  0.86320819  0.26636715  0.66721194  1
  H+  H218  1  0.46462726  0.35735651  1.01409088  1
  H+  H219  1  0.89356701  0.54465084  0.82748209  1
  H+  H220  1  0.10305251  0.61467881  -0.01915044  1
  H+  H221  1  0.74447287  0.11690269  -0.00176906  1
  H+  H222  1  0.57969873  0.43338870  0.37641816  1
  H+  H223  1  0.62907914  0.17751804  0.62781909  1
  H+  H224  1  0.82281833  0.89956294  0.77656339  1
  H+  H225  1  0.27063199  0.64914078  0.48952205  1
  H+  H226  1  0.28209545  0.64500308  0.13501444  1
  H+  H227  1  0.11147862  0.40633318  0.49660767  1
  H+  H228  1  0.62298517  0.65063962  0.49784411  1
  H+  H229  1  0.61454311  0.15018445  0.86864412  1
  H+  H230  1  0.62610064  0.34650778  0.52294957  1
  H+  H231  1  0.12486978  0.64317893  0.31896395  1
  H+  H232  1  0.38388921  0.11682644  0.86107790  1
  H+  H233  1  0.52081227  0.88601300  0.33786764  1
  H+  H234  1  0.72162074  0.14111275  0.65106945  1
  H+  H235  1  0.13881509  0.61768230  0.83248979  1
  H+  H236  1  0.16728996  0.58546289  0.07738702  1
  H+  H237  1  0.88928904  0.37830134  0.85258575  1
  H+  H238  1  0.16645737  0.33064437  0.89552465  1
  H+  H239  1  0.18248082  0.80802713  0.66931498  1
  H+  H240  1  0.52921930  0.11028092  0.18014751  1
  H+  H241  1  0.49704213  0.13168059  0.62948296  1
  H+  H242  1  0.38303097  0.61007674  0.83153181  1
  H+  H243  1  0.01665850  0.38502397  0.34137931  1
  H+  H244  1  0.61114444  0.64311680  0.15268325  1
  H+  H245  1  0.77923042  0.12789277  0.16547676  1
  H+  H246  1  0.86501144  0.48256890  0.34585365  1
  H+  H247  1  0.13055411  0.11287200  0.85112315  1
  H+  H248  1  0.13019288  0.35771756  0.99147648  1
  H+  H249  1  0.11107736  0.23980799  0.15642549  1
  H+  H250  1  0.83096307  0.40890582  0.07975770  1
  H+  H251  1  0.62992356  0.01364685  0.50242296  1
  H+  H252  1  0.22019301  0.35927304  0.99364768  1
  H+  H253  1  0.38683238  0.77280325  0.49874327  1
  H+  H254  1  0.13118538  0.02412059  0.85685074  1
  H+  H255  1  0.86118715  0.38004783  0.33924080  1
  H+  H256  1  0.60356903  0.21125890  0.47896760  1
  H+  H257  1  0.89294656  0.11142908  0.17325205  1
  H+  H258  1  0.04790132  0.11997127  0.66817600  1
  H+  H259  1  0.61494451  0.61456667  0.98422758  1
  H+  H260  1  0.76649336  0.37901254  0.34183777  1
  H+  H261  1  0.32630977  0.20235275  0.33232611  1
  H+  H262  1  0.87962660  0.28563748  0.84585737  1
  H+  H263  1  0.40045896  0.88508237  0.66434946  1
  H+  H264  1  0.10933782  0.47044951  -0.00284341  1
  H+  H265  1  0.10231445  0.92882317  0.78166791  1
  H+  H266  1  0.88363417  0.47335787  0.17536949  1
  H+  H267  1  0.71097964  0.33945592  0.50927794  1
  H+  H268  1  0.38562623  0.61215495  0.16703658  1
  H+  H269  1  0.36424273  0.92607440  0.77062894  1
  H+  H270  1  0.88565261  0.85823341  0.85009528  1
  H+  H271  1  0.37050348  0.35504016  0.00841336  1
  H+  H272  1  0.13800071  0.36315105  0.83741398  1
  H+  H273  1  0.15905097  0.78524420  0.18182170  1
  H+  H274  1  0.22352814  0.35386427  0.65719927  1
  H+  H275  1  0.16199510  0.33619659  0.56744988  1
  H+  H276  1  0.53297040  0.40281686  0.31502727  1
  H+  H277  1  0.88031953  0.49945589  0.92446209  1
  H+  H278  1  0.36102934  0.47650778  0.16136490  1
  H+  H279  1  0.11423762  0.89102110  0.01210143  1
  H+  H280  1  0.88981114  0.85262189  0.50259241  1
  H+  H281  1  0.37498999  0.36503247  0.32733888  1
  H+  H282  1  0.88470588  0.79668281  0.03958968  1
  H+  H283  1  0.85965766  0.13424783  0.33751661  1
  H+  H284  1  0.84174181  0.69631406  0.98320112  1
  H+  H285  1  0.34270580  0.90500201  -0.02912852  1
  H+  H286  1  1.13619035  0.68370049  0.47653861  1
  H+  H287  1  0.53557488  0.24602134  0.15804502  1
  H+  H288  1  0.85241908  0.87263774  0.34281746  1
  H+  H289  1  0.57612110  0.43206610  0.06966490  1
  H+  H290  1  0.57251628  0.67246064  0.75953546  1
  H+  H291  1  0.13422654  0.52497859  0.13436397  1
  H+  H292  1  0.60018895  0.91814041  0.10864827  1
  H+  H293  1  0.59011909  0.43215426  0.76082545  1
  H+  H294  1  0.66241273  0.82898464  0.27683377  1
  H+  H295  1  0.83204516  0.83701243  0.06988106  1
  H+  H296  1  0.50623288  0.64426202  0.66577658  1
  H+  H297  1  0.14591095  0.87420059  0.84267413  1
  H+  H298  1  0.32464687  0.16436550  0.09264661  1
  H+  H299  1  0.41865275  0.58513632  0.26860334  1
  H+  H300  1  0.58634430  0.67118988  0.40426441  1
  H+  H301  1  0.87499006  0.10037711  0.51036397  1
  H+  H302  1  0.83704859  0.16133920  0.10442197  1
  H+  H303  1  0.33397665  0.66877909  0.43449070  1
  H+  H304  1  0.64864189  0.38548045  0.69128521  1
  H+  H305  1  0.91196482  0.32935154  0.26948885  1
  H+  H306  1  0.31630930  0.15677533  0.39689181  1
  H+  H307  1  0.93072779  0.13261728  0.88521813  1
  H+  H308  1  0.82892845  0.15684101  0.43351489  1
  H+  H309  1  0.83259835  0.91068236  0.43633854  1
  H+  H310  1  0.92644197  0.08760832  0.23393995  1
  H+  H311  1  0.09059090  0.91687949  0.10764142  1
  H+  H312  1  0.85028430  0.45850171  0.01624452  1
  H+  H313  1  0.63536778  0.02240707  0.33098565  1
  H+  H314  1  0.17539627  0.56749516  0.26738541  1
  H+  H315  1  0.39953531  0.57368000  0.59480020  1
  H+  H316  1  0.33549678  0.67129161  0.75576636  1
  H+  H317  1  0.69766749  0.60140945  0.97801405  1
  H+  H318  1  0.16842740  0.11243085  0.66291140  1
  H+  H319  1  0.07608453  0.40932187  0.09487432  1
  H+  H320  1  0.92488879  0.61158838  0.87974292  1
  H+  H321  1  0.55375369  0.17476487  -0.04912360  1
  H+  H322  1  0.38213200  0.77339911  0.94383875  1
  H+  H323  1  0.88152167  0.26174218  0.50599892  1
  H+  H324  1  0.53956507  0.17466665  0.76317182  1
  H+  H325  1  0.53905255  0.15204371  0.73424956  1
  H+  H326  1  0.46733130  0.43893257  0.41418863  1
  H+  H327  1  0.64298184  0.58202241  0.59431084  1
  H+  H328  1  0.68814096  0.38074731  0.23936086  1
  H+  H329  1  0.53852406  0.94563771  0.04021291  1
  H+  H330  1  0.85349325  0.73248013  0.82953934  1
  H+  H331  1  0.84151210  0.43129944  0.78309676  1
  H+  H332  1  0.32635890  0.41408600  0.72761091  1
  H+  H333  1  0.58112054  0.93774175  0.77547993  1
  H+  H334  1  0.17748755  0.83890509  0.89716278  1
  H+  H335  1  0.07575921  0.17413719  0.09349600  1
  H+  H336  1  0.57863742  0.15536061  0.41761492  1
  H+  H337  1  0.12804075  0.21525148  0.66774005  1
  H+  H338  1  0.90046167  0.62301817  0.66433660  1
  H+  H339  1  0.07348522  0.40218703  0.76711453  1
  H+  H340  1  0.54334290  0.07452017  0.11876359  1
  H+  H341  1  1.01554536  0.14086963  0.16176278  1
  H+  H342  1  0.16222427  0.08861437  0.94876565  1
  H+  H343  1  0.92170486  0.56729326  0.28622839  1
  H+  H344  1  0.18708879  0.05668777  0.57551175  1
  H+  H345  1  0.81780494  0.19608695  0.76882035  1
  H+  H346  1  0.64756986  0.58221619  0.89197188  1
  H+  H347  1  0.51333089  0.94228996  0.69824456  1
  H+  H348  1  0.91882047  0.32456837  0.56516672  1
  H+  H349  1  0.16186965  0.07320435  0.24513665  1
  H+  H350  1  0.34173568  0.68196723  0.04741241  1
  H+  H351  1  0.91801835  0.58579067  0.56844660  1
  H+  H352  1  0.86370913  0.22900781  0.01106164  1
  H+  H353  1  0.38972779  0.86272180  0.31715134  1
  H+  H354  1  0.82471158  0.40461968  0.44542254  1
  H+  H355  1  0.91951613  0.82107050  0.90548359  1
  H+  H356  1  0.15924420  0.61190245  0.55444246  1
  H+  H357  1  0.04924817  0.62420818  0.03428165  1
  H+  H358  1  0.32691701  0.41879727  0.06607022  1
  H+  H359  1  0.29497374  0.89415497  0.16644500  1
  H+  H360  1  0.97523401  0.35601902  0.17478384  1
  H+  H361  1  0.18796429  0.85233238  0.23598058  1
  H+  H362  1  0.10035914  0.69059219  0.72903954  1
  H+  H363  1  0.87187591  0.96299451  0.19229588  1
  H+  H364  1  0.57745460  0.91242948  0.43439304  1
  H+  H365  1  0.49884502  0.47478456  0.43432979  1
  H+  H366  1  0.42747560  0.95777897  0.09210041  1
  H+  H367  1  0.34939044  0.92653413  0.38309272  1
  H+  H368  1  0.90352800  0.81952933  0.59957626  1
  H+  H369  1  0.08332575  0.89801976  0.41307828  1
  H+  H370  1  0.67377566  0.07745263  0.26969588  1
  H+  H371  1  0.92700487  0.07120522  0.59865181  1
  H+  H372  1  0.90253022  0.77044004  0.29276360  1
  H+  H373  1  0.56881862  0.67127355  0.06046572  1
  H+  H374  1  0.42070792  0.07330623  0.58592849  1
  H+  H375  1  0.16088346  0.33369533  0.22709023  1
  H+  H376  1  0.40860535  0.57385613  0.92428230  1
  H+  H377  1  0.05723718  0.68537590  0.12899275  1
  H+  H378  1  0.90070775  0.04710326  0.96456958  1
  H+  H379  1  0.70058629  0.62928326  0.22799105  1
  H+  H380  1  0.07780608  0.41779133  0.40026928  1
  H+  H381  1  0.09456583  0.16454512  0.76494954  1
  H+  H382  1  0.41975369  0.32836020  0.60756054  1
  H+  H383  1  0.60013979  0.82389093  0.92891793  1
  O2-  O384  1  0.07649766  0.17760509  0.14078166  1
  O2-  O385  1  0.04485415  0.21463794  0.45896365  1
  O2-  O386  1  0.08539730  0.16735152  0.80950646  1
  O2-  O387  1  0.08001688  0.41773196  0.14015020  1
  O2-  O388  1  0.07615583  0.42834787  0.47721969  1
  O2-  O389  1  0.08065479  0.41553544  0.81171091  1
  O2-  O390  1  0.08931570  0.67657556  0.16118295  1
  O2-  O391  1  0.12732686  0.72784410  0.45474269  1
  O2-  O392  1  0.09901929  0.68212020  0.80815738  1
  O2-  O393  1  0.09185903  0.91457614  0.15305129  1
  O2-  O394  1  0.08981797  0.89055437  0.48644122  1
  O2-  O395  1  0.09280006  0.92333524  0.82861791  1
  O2-  O396  1  0.33944542  0.15648597  0.17179504  1
  O2-  O397  1  0.33720403  0.16155105  0.47232428  1
  O2-  O398  1  0.33899128  0.16798078  0.85554070  1
  O2-  O399  1  0.32935826  0.41582618  0.14585150  1
  O2-  O400  1  0.34558779  0.43728449  0.50578921  1
  O2-  O401  1  0.33567319  0.41488183  0.80071230  1
  O2-  O402  1  0.34429518  0.67275694  0.12637770  1
  O2-  O403  1  0.33196327  0.67241815  0.47940417  1
  O2-  O404  1  0.33600364  0.66856399  0.80149497  1
  O2-  O405  1  0.35862045  0.92549095  0.15954838  1
  O2-  O406  1  0.33933494  0.91016325  0.46024072  1
  O2-  O407  1  0.35244594  0.92420374  0.81522744  1
  O2-  O408  1  0.57451239  0.11530949  0.15243727  1
  O2-  O409  1  0.57763131  0.15103537  0.46282175  1
  O2-  O410  1  0.58569809  0.18418782  0.87607634  1
  O2-  O411  1  0.58868233  0.44597993  0.14891933  1
  O2-  O412  1  0.59146572  0.40926568  0.53625237  1
  O2-  O413  1  0.59477902  0.43298818  0.80816386  1
  O2-  O414  1  0.57674396  0.67008212  0.14163167  1
  O2-  O415  1  0.59692088  0.68110217  0.47830716  1
  O2-  O416  1  0.57424130  0.67152769  0.80517925  1
  O2-  O417  1  0.59811333  0.91002225  0.15369287  1
  O2-  O418  1  0.57927698  0.91241611  0.47985461  1
  O2-  O419  1  0.58397473  0.93138759  0.82050109  1
  O2-  O420  1  0.84038977  0.16098541  0.14974798  1
  O2-  O421  1  0.82821330  0.15502159  0.47905452  1
  O2-  O422  1  0.82140333  0.18897934  0.81333819  1
  O2-  O423  1  0.84410102  0.41751385  0.15518182  1
  O2-  O424  1  0.82003118  0.40028032  0.48995412  1
  O2-  O425  1  0.83814170  0.43461600  0.82903616  1
  O2-  O426  1  0.87257666  0.64582544  0.16244925  1
  O2-  O427  1  0.83533380  0.65577818  0.47091144  1
  O2-  O428  1  0.81761049  0.67191672  0.81287502  1
  O2-  O429  1  0.83913588  0.90400934  0.20828783  1
  O2-  O430  1  0.83348007  0.90973269  0.48173949  1
  O2-  O431  1  0.82654392  0.90057899  0.82152719  1
  O2-  O432  1  0.17770226  0.07988818  0.20134784  1
  O2-  O433  1  0.18003382  0.04485902  0.53069077  1
  O2-  O434  1  0.15690377  0.08386460  0.87385318  1
  O2-  O435  1  0.16276377  0.33429814  0.18103103  1
  O2-  O436  1  0.16270667  0.34866306  0.52247008  1
  O2-  O437  1  0.16842605  0.33232029  0.85038207  1
  O2-  O438  1  0.16460012  0.58760536  0.12172274  1
  O2-  O439  1  0.15741151  0.60905217  0.50905593  1
  O2-  O440  1  0.16637825  0.58422573  0.84717793  1
  O2-  O441  1  0.19062996  0.84784272  0.19018419  1
  O2-  O442  1  0.16979533  0.80017936  0.49741308  1
  O2-  O443  1  0.17925214  0.84340874  0.85234614  1
  O2-  O444  1  0.42331726  0.08046605  0.21931917  1
  O2-  O445  1  0.41251270  0.07072094  0.50621329  1
  O2-  O446  1  0.41799821  0.08484115  0.86831693  1
  O2-  O447  1  0.42010110  0.33976331  0.19000514  1
  O2-  O448  1  0.42999964  0.31849340  0.53043591  1
  O2-  O449  1  0.38753512  0.32849374  0.87284626  1
  O2-  O450  1  0.41344078  0.58193005  0.18604112  1
  O2-  O451  1  0.39124132  0.51739224  0.51381780  1
  O2-  O452  1  0.41224561  0.58004898  0.84899467  1
  O2-  O453  1  0.42795569  0.82565822  0.18371644  1
  O2-  O454  1  0.41844399  0.83517092  0.51248681  1
  O2-  O455  1  0.41719241  0.82348616  0.86189861  1
  O2-  O456  1  0.68254876  0.07356869  0.19555132  1
  O2-  O457  1  0.66293150  0.07650468  0.51424622  1
  O2-  O458  1  0.66915260  0.08986461  0.86783097  1
  O2-  O459  1  0.70433707  0.41947107  0.20403537  1
  O2-  O460  1  0.64847054  0.30397676  0.51799634  1
  O2-  O461  1  0.66820744  0.35615421  0.85618465  1
  O2-  O462  1  0.70345028  0.63147322  0.18230809  1
  O2-  O463  1  0.66211294  0.56080383  0.49749073  1
  O2-  O464  1  0.65571521  0.58337867  0.84641076  1
  O2-  O465  1  0.66792580  0.82107986  0.19980916  1
  O2-  O466  1  0.66814271  0.84259903  0.52760586  1
  O2-  O467  1  0.65243273  0.83250923  0.85802130  1
  O2-  O468  1  0.93041600  0.08809033  0.18810675  1
  O2-  O469  1  0.91388911  0.07816178  0.52330704  1
  O2-  O470  1  0.92718659  0.13719733  0.84079934  1
  O2-  O471  1  0.91658339  0.32426393  0.19281172  1
  O2-  O472  1  0.91214889  0.32315152  0.51922902  1
  O2-  O473  1  0.91654536  0.34391475  0.86490541  1
  O2-  O474  1  0.93664808  0.56627700  0.21854967  1
  O2-  O475  1  0.90857294  0.57798207  0.52366592  1
  O2-  O476  1  0.92647561  0.60819494  0.83519837  1
  O2-  O477  1  0.92492957  0.81421221  0.18268929  1
  O2-  O478  1  0.91937086  0.82205559  0.51778147  1
  O2-  O479  1  0.91761201  0.82707871  0.85993957  1
  O2-  O480  1  0.13725827  0.06691208  0.32474340  1
  O2-  O481  1  0.19657557  0.07946208  0.65040928  1
  O2-  O482  1  0.16044717  0.08861845  0.99494485  1
  O2-  O483  1  0.15628879  0.33021369  0.30229811  1
  O2-  O484  1  0.16295071  0.31652135  0.64104566  1
  O2-  O485  1  0.15985165  0.32612344  0.97801833  1
  O2-  O486  1  0.17085444  0.57412284  0.31095926  1
  O2-  O487  1  0.16731350  0.61383407  0.63288160  1
  O2-  O488  1  0.16482337  0.57700965  0.96692891  1
  O2-  O489  1  0.17968685  0.84797724  0.31051848  1
  O2-  O490  1  0.21935739  0.87099555  0.66838716  1
  O2-  O491  1  0.15471755  0.81712592  0.98040943  1
  O2-  O492  1  0.42682657  0.08699921  0.28583209  1
  O2-  O493  1  0.43637855  0.08360568  0.62992170  1
  O2-  O494  1  0.44901676  0.07909802  0.98299142  1
  O2-  O495  1  0.41197016  0.33570115  0.31860930  1
  O2-  O496  1  0.42117989  0.33591744  0.65283471  1
  O2-  O497  1  0.40033904  0.31996355  1.00643214  1
  O2-  O498  1  0.41550244  0.58151025  0.31378102  1
  O2-  O499  1  0.40272743  0.58065629  0.63921147  1
  O2-  O500  1  0.40461908  0.57333481  0.97029817  1
  O2-  O501  1  0.41978834  0.83037629  0.30590224  1
  O2-  O502  1  0.41230244  0.82282494  0.63021125  1
  O2-  O503  1  0.35574901  0.76448419  0.98512807  1
  O2-  O504  1  0.66924463  0.08294611  0.31516098  1
  O2-  O505  1  0.66245336  0.10283238  0.63540224  1
  O2-  O506  1  0.68245717  0.08393544  0.98213212  1
  O2-  O507  1  0.67643557  0.33671796  0.31800295  1
  O2-  O508  1  0.68020119  0.35433685  0.69877574  1
  O2-  O509  1  0.68621243  0.39659267  0.96923538  1
  O2-  O510  1  0.68651321  0.60935259  0.30458847  1
  O2-  O511  1  0.63692196  0.58049480  0.63846627  1
  O2-  O512  1  0.63462069  0.57563296  0.96738189  1
  O2-  O513  1  0.66456384  0.83453087  0.32234272  1
  O2-  O514  1  0.65104900  0.84750129  0.64941854  1
  O2-  O515  1  0.56513454  0.81253549  0.96656078  1
  O2-  O516  1  0.90974326  0.07889376  0.30947504  1
  O2-  O517  1  0.93549293  0.06414495  0.64318775  1
  O2-  O518  1  0.92826723  0.10962999  0.96684744  1
  O2-  O519  1  0.90872415  0.33183343  0.31515406  1
  O2-  O520  1  0.93384381  0.34762010  0.63848785  1
  O2-  O521  1  0.91183619  0.32961736  0.98679859  1
  O2-  O522  1  0.90925451  0.56296154  0.33256998  1
  O2-  O523  1  0.93666513  0.59642346  0.64895406  1
  O2-  O524  1  0.89500325  0.54360936  0.95561753  1
  O2-  O525  1  0.89888340  0.77409304  0.33728971  1
  O2-  O526  1  0.89894994  0.81461209  0.64437909  1
  O2-  O527  1  0.93250361  0.80069735  0.97969101  1
  O2-  O528  1  0.07816386  0.16935544  0.02454626  1
  O2-  O529  1  0.07245059  0.16764091  0.34638235  1
  O2-  O530  1  0.10514475  0.15694869  0.68645765  1
  O2-  O531  1  0.07902226  0.41286654  0.01686180  1
  O2-  O532  1  0.07791147  0.41363235  0.35455164  1
  O2-  O533  1  0.07204672  0.38480572  0.68984775  1
  O2-  O534  1  0.06166967  0.63638348  -0.00891420  1
  O2-  O535  1  0.09469065  0.67615504  0.31410232  1
  O2-  O536  1  0.10033998  0.69428723  0.68373282  1
  O2-  O537  1  0.08220491  0.91806187  0.02838904  1
  O2-  O538  1  0.07546125  0.89818338  0.36722351  1
  O2-  O539  1  0.12134685  0.93227839  0.71523266  1
  O2-  O540  1  0.32244282  0.17468479  0.04823516  1
  O2-  O541  1  0.30039737  0.14660815  0.35269795  1
  O2-  O542  1  0.35524028  0.16344767  0.68571828  1
  O2-  O543  1  0.32399987  0.41216956  0.02081775  1
  O2-  O544  1  0.32537818  0.40869517  0.34209595  1
  O2-  O545  1  0.32272542  0.41088393  0.68142718  1
  O2-  O546  1  0.33040913  0.67555867  0.00202616  1
  O2-  O547  1  0.33806056  0.66982625  0.35320590  1
  O2-  O548  1  0.33426013  0.67308927  0.67737941  1
  O2-  O549  1  0.47917968  0.98848578  0.06614793  1
  O2-  O550  1  0.34764110  0.92804803  0.33737263  1
  O2-  O551  1  0.40166368  0.93286654  0.69425472  1
  O2-  O552  1  0.52279626  0.16540078  -0.00925799  1
  O2-  O553  1  0.58627915  0.16911392  0.33788163  1
  O2-  O554  1  0.60440947  0.21625658  0.62426989  1
  O2-  O555  1  0.56426333  0.42141187  0.02517842  1
  O2-  O556  1  0.59150498  0.43183499  0.33317888  1
  O2-  O557  1  0.58170679  0.43207906  0.69254709  1
  O2-  O558  1  0.56708563  0.67093126  0.01521994  1
  O2-  O559  1  0.58123801  0.66904143  0.35822945  1
  O2-  O560  1  0.56639281  0.67546079  0.68185632  1
  O2-  O561  1  0.59136224  0.94156470  0.03199740  1
  O2-  O562  1  0.58013386  0.91849080  0.35557823  1
  O2-  O563  1  0.57272292  0.95165036  0.69812760  1
  O2-  O564  1  0.83591560  0.16710836  0.02494845  1
  O2-  O565  1  0.83254208  0.16674186  0.35447983  1
  O2-  O566  1  0.82024901  0.20694444  0.68652823  1
  O2-  O567  1  0.82401456  0.40059340  0.03442615  1
  O2-  O568  1  0.83013293  0.41037789  0.35697820  1
  O2-  O569  1  0.84373141  0.42998503  0.70846412  1
  O2-  O570  1  0.79746952  0.63441077  -0.01065295  1
  O2-  O571  1  0.85017944  0.68078540  0.35422533  1
  O2-  O572  1  0.84378539  0.65900163  0.68414379  1
  O2-  O573  1  0.85116982  0.79602946  0.07808420  1
  O2-  O574  1  0.83021316  0.90970043  0.35648873  1
  O2-  O575  1  0.81669729  0.90005303  0.69170519  1
