# generated using pymatgen
data_H2O
_symmetry_space_group_name_H-M   'P 1'
_cell_length_a   17.99927641
_cell_length_b   17.99422896
_cell_length_c   22.00452914
_cell_angle_alpha   89.99584565
_cell_angle_beta   89.98912384
_cell_angle_gamma   120.00936543
_symmetry_Int_Tables_number   1
_chemical_formula_structural   H2O
_chemical_formula_sum   'H384 O192'
_cell_volume   6171.48945153
_cell_formula_units_Z   192
loop_
 _symmetry_equiv_pos_site_id
 _symmetry_equiv_pos_as_xyz
  1  'x, y, z'
loop_
 _atom_type_symbol
 _atom_type_oxidation_number
  H+  1.0
  O2-  -2.0
loop_
 _atom_site_type_symbol
 _atom_site_label
 _atom_site_symmetry_multiplicity
 _atom_site_fract_x
 _atom_site_fract_y
 _atom_site_fract_z
 _atom_site_occupancy
  H+  H0  1  0.28599415  0.13720349  0.02114674  1
  H+  H1  1  0.34619581  0.22649221  0.82754687  1
  H+  H2  1  0.11415468  0.47802271  0.66916059  1
  H+  H3  1  0.67681223  0.07893053  0.59332364  1
  H+  H4  1  0.73609928  0.27643306  0.94780552  1
  H+  H5  1  0.11454090  0.14616262  0.99812030  1
  H+  H6  1  0.34249072  0.33688061  -0.00384982  1
  H+  H7  1  0.11263426  0.47890986  0.01271504  1
  H+  H8  1  0.11938253  0.47694101  0.48154392  1
  H+  H9  1  0.48267394  0.85466218  0.98376751  1
  H+  H10  1  0.26793803  0.39247196  0.82642171  1
  H+  H11  1  0.13190503  0.34818330  0.19621716  1
  H+  H12  1  0.60772602  0.88597614  0.48457066  1
  H+  H13  1  0.63897617  0.11263670  0.83632549  1
  H+  H14  1  0.11436039  0.38841579  0.66731107  1
  H+  H15  1  0.39847146  0.12284800  0.32996815  1
  H+  H16  1  0.64556519  0.56017693  0.92276424  1
  H+  H17  1  0.87680227  0.39462007  1.01306253  1
  H+  H18  1  0.88536702  1.03388885  0.83206888  1
  H+  H19  1  0.51663697  0.66587601  0.17127050  1
  H+  H20  1  0.13737770  0.78400128  0.67128416  1
  H+  H21  1  0.11193013  0.72323050  1.01189304  1
  H+  H22  1  0.37077408  -0.01681264  0.67949612  1
  H+  H23  1  0.92351872  0.57419565  0.93339037  1
  H+  H24  1  0.62044707  0.72361838  0.82326372  1
  H+  H25  1  0.77581261  0.88834178  0.66585222  1
  H+  H26  1  0.92062004  0.34251679  0.89877333  1
  H+  H27  1  0.36463963  0.13458523  0.49731510  1
  H+  H28  1  0.13547302  0.02242516  0.50152612  1
  H+  H29  1  0.02543199  0.63255281  0.00960048  1
  H+  H30  1  0.64400036  0.91309534  0.15199233  1
  H+  H31  1  0.86531425  0.23595020  0.82387356  1
  H+  H32  1  0.10478536  0.10816277  0.33624405  1
  H+  H33  1  0.12356460  0.27384953  0.99460664  1
  H+  H34  1  0.91692814  0.83461295  0.59311642  1
  H+  H35  1  0.08096246  0.41677033  0.07237460  1
  H+  H36  1  -0.01826059  0.12079770  0.50454628  1
  H+  H37  1  0.48758095  0.37196369  0.82780370  1
  H+  H38  1  0.82958742  0.16825533  0.30723856  1
  H+  H39  1  0.11375425  0.13843936  0.49511249  1
  H+  H40  1  0.63933027  0.52535327  0.50904597  1
  H+  H41  1  0.96662875  0.85690188  0.99710062  1
  H+  H42  1  0.51476669  0.38676955  0.17262937  1
  H+  H43  1  0.98191341  0.62834320  0.50659605  1
  H+  H44  1  0.89151964  0.37315366  0.83919740  1
  H+  H45  1  0.10713701  0.46552657  0.16806461  1
  H+  H46  1  0.38290189  0.23730739  0.34863738  1
  H+  H47  1  0.89458753  0.53033286  0.82958431  1
  H+  H48  1  0.53059391  0.90083490  0.47121012  1
  H+  H49  1  0.00748263  0.63262550  0.83188132  1
  H+  H50  1  0.88914292  0.86594356  0.65322937  1
  H+  H51  1  0.85141777  0.88329408  0.15184977  1
  H+  H52  1  0.42198843  0.08772914  0.26812548  1
  H+  H53  1  0.78247911  0.40617342  0.82199341  1
  H+  H54  1  0.43327687  0.13468179  0.64691381  1
  H+  H55  1  0.61417045  0.63372322  0.98992021  1
  H+  H56  1  0.36042402  0.87473319  0.15313274  1
  H+  H57  1  0.47178271  0.61945419  0.83486340  1
  H+  H58  1  0.72216189  0.85851408  0.98733579  1
  H+  H59  1  0.59891027  0.47021417  0.00791996  1
  H+  H60  1  0.36912205  -0.01935942  0.33245356  1
  H+  H61  1  0.11403737  0.88822062  0.66813754  1
  H+  H62  1  0.65360794  0.34777484  0.71490664  1
  H+  H63  1  0.38251265  0.10803816  0.17828647  1
  H+  H64  1  0.89290291  0.14146944  0.33460954  1
  H+  H65  1  0.62279260  0.51183969  0.82515252  1
  H+  H66  1  0.10707826  0.96537557  0.00846607  1
  H+  H67  1  0.21505623  0.85448797  0.84355783  1
  H+  H68  1  0.98552864  0.62460989  0.67032385  1
  H+  H69  1  0.89011108  0.51911031  0.99514024  1
  H+  H70  1  0.53853741  0.64066940  0.33074702  1
  H+  H71  1  0.48015621  0.60898602  0.49255560  1
  H+  H72  1  0.09055532  0.66900206  0.73487685  1
  H+  H73  1  0.86229574  0.14524902  0.82325085  1
  H+  H74  1  0.18176726  0.11122955  0.93261568  1
  H+  H75  1  0.60913896  0.73178730  0.67063329  1
  H+  H76  1  0.77077982  0.64374014  0.49441722  1
  H+  H77  1  0.14064754  0.76772210  0.17638391  1
  H+  H78  1  0.36076839  0.63396604  0.67067793  1
  H+  H79  1  0.48459355  0.86745675  0.68079910  1
  H+  H80  1  0.72304016  0.34953276  0.49460394  1
  H+  H81  1  0.14571053  0.12301798  0.17912191  1
  H+  H82  1  0.63199985  0.60502297  0.82710973  1
  H+  H83  1  0.86990593  0.23210068  0.66707052  1
  H+  H84  1  0.88623589  0.85549376  0.83555997  1
  H+  H85  1  0.11031281  0.22287332  0.65749060  1
  H+  H86  1  0.13935343  0.77740443  0.48908362  1
  H+  H87  1  0.85496511  0.88341479  1.00570734  1
  H+  H88  1  0.87362962  0.01751146  0.98576371  1
  H+  H89  1  0.32090672  0.91309364  0.06671454  1
  H+  H90  1  0.36354454  0.72555723  0.32805981  1
  H+  H91  1  0.27626883  0.13793235  0.17199610  1
  H+  H92  1  0.16917673  0.40152541  0.35242704  1
  H+  H93  1  0.35609305  0.74351087  0.15842813  1
  H+  H94  1  0.38664111  0.87300608  0.47929370  1
  H+  H95  1  0.12936448  0.52564950  0.83676628  1
  H+  H96  1  0.47243426  0.85314807  0.31207830  1
  H+  H97  1  0.04347883  0.39976031  0.36692366  1
  H+  H98  1  0.83761968  0.17553404  0.72832642  1
  H+  H99  1  0.37768971  0.11693147  0.83703436  1
  H+  H100  1  0.78504530  0.38323145  0.01147897  1
  H+  H101  1  0.59987811  0.96320321  0.32424474  1
  H+  H102  1  0.46591215  0.11478871  0.83555225  1
  H+  H103  1  0.38672426  0.76333200  0.99147483  1
  H+  H104  1  0.98321450  0.36668079  0.49320683  1
  H+  H105  1  0.50969012  0.13857991  0.15399528  1
  H+  H106  1  0.14945316  0.61633498  0.50377295  1
  H+  H107  1  0.73275643  0.11654390  0.49625686  1
  H+  H108  1  0.25878479  0.38123284  1.01760464  1
  H+  H109  1  0.40322205  0.62637257  0.30986007  1
  H+  H110  1  0.61187866  0.22629621  0.82080751  1
  H+  H111  1  0.47401851  0.10745349  -0.01065800  1
  H+  H112  1  0.90364292  0.36348926  0.33087395  1
  H+  H113  1  0.89193969  0.61673436  0.19167357  1
  H+  H114  1  0.36861115  0.36408598  0.83814374  1
  H+  H115  1  0.87628761  0.48748767  0.67013162  1
  H+  H116  1  0.88634958  0.36400740  0.18590729  1
  H+  H117  1  0.52594470  0.38659299  0.35047947  1
  H+  H118  1  0.39863318  0.36448781  0.48412349  1
  H+  H119  1  0.66653814  0.40886377  0.86298821  1
  H+  H120  1  0.22606415  0.11120571  0.50553327  1
  H+  H121  1  0.86716493  0.66010113  0.49971589  1
  H+  H122  1  0.35588659  0.63624319  0.82999248  1
  H+  H123  1  0.14853644  1.03254481  0.17279985  1
  H+  H124  1  0.63350877  0.51066455  0.33750672  1
  H+  H125  1  1.00125244  0.89566827  0.18417217  1
  H+  H126  1  0.67655032  0.83060317  0.89629292  1
  H+  H127  1  0.85481387  0.70761573  0.33815351  1
  H+  H128  1  0.21467969  0.59854808  0.17507915  1
  H+  H129  1  0.41163735  0.34862718  0.28592034  1
  H+  H130  1  0.32706627  0.66658707  0.06443723  1
  H+  H131  1  0.38524624  0.51516932  0.02785082  1
  H+  H132  1  0.32498164  0.41999140  0.76528637  1
  H+  H133  1  0.32492655  0.12680244  0.67910745  1
  H+  H134  1  0.36426357  0.22390270  0.49542860  1
  H+  H135  1  0.86562811  0.64439426  0.67540180  1
  H+  H136  1  0.90248467  0.37203861  0.65313461  1
  H+  H137  1  0.21421120  0.10630883  0.84222387  1
  H+  H138  1  0.22006234  0.36666107  0.65401090  1
  H+  H139  1  0.42038446  0.57409826  0.12065610  1
  H+  H140  1  0.24349149  0.19844937  0.96781674  1
  H+  H141  1  0.77003191  0.62456339  0.82343720  1
  H+  H142  1  0.75871640  0.14709283  0.00792507  1
  H+  H143  1  0.87610750  0.76203634  0.84374701  1
  H+  H144  1  1.02771341  0.63253490  0.33709346  1
  H+  H145  1  0.12073564  0.10847119  0.64938268  1
  H+  H146  1  0.21803948  0.86104373  0.99946671  1
  H+  H147  1  0.61565654  0.63732327  0.48733089  1
  H+  H148  1  0.61781386  0.13429464  0.48484320  1
  H+  H149  1  0.73419116  0.35240993  0.31441405  1
  H+  H150  1  0.88988921  0.60122142  0.33359126  1
  H+  H151  1  0.37115187  0.63945720  0.48410754  1
  H+  H152  1  0.88757279  0.56061904  0.52507569  1
  H+  H153  1  0.59082348  0.91338849  0.04933857  1
  H+  H154  1  0.61088716  0.64440516  0.66861005  1
  H+  H155  1  0.36909068  0.76642918  0.84206395  1
  H+  H156  1  0.66677728  0.08173012  0.92867026  1
  H+  H157  1  0.12864508  0.36506713  0.99866105  1
  H+  H158  1  0.84100882  0.70607257  0.23801316  1
  H+  H159  1  0.15777339  0.07027430  0.27618637  1
  H+  H160  1  0.11459377  0.97269662  0.33181403  1
  H+  H161  1  0.12204352  0.88327126  0.16416034  1
  H+  H162  1  0.23877849  0.61822328  0.50317652  1
  H+  H163  1  0.70130647  0.10496875  0.30106307  1
  H+  H164  1  0.66487892  0.75337666  0.31907938  1
  H+  H165  1  0.60414016  0.75310463  0.50459658  1
  H+  H166  1  0.11177771  0.22533650  0.83910471  1
  H+  H167  1  0.01508675  0.88456634  0.65893031  1
  H+  H168  1  0.22572076  0.61437477  0.66047760  1
  H+  H169  1  0.63466681  0.25911930  0.31883455  1
  H+  H170  1  0.47413536  0.61575105  0.65138961  1
  H+  H171  1  0.58847009  0.66499261  0.42438579  1
  H+  H172  1  0.85749000  0.62906752  -0.02281056  1
  H+  H173  1  0.58245098  0.90565843  0.38122931  1
  H+  H174  1  0.88398950  0.28401379  0.99490740  1
  H+  H175  1  0.38627114  0.85838218  0.31332535  1
  H+  H176  1  0.36364310  0.72279400  0.68474425  1
  H+  H177  1  1.00597761  0.09423210  0.18231375  1
  H+  H178  1  0.80150375  0.79001962  0.29092635  1
  H+  H179  1  0.65203207  0.25109604  0.98418739  1
  H+  H180  1  0.11182130  0.88859282  0.48931968  1
  H+  H181  1  0.13801730  0.61355961  0.99626340  1
  H+  H182  1  0.52587244  0.38644849  0.50134845  1
  H+  H183  1  0.14322509  0.86981468  0.32512042  1
  H+  H184  1  0.38554888  0.27404577  0.19166545  1
  H+  H185  1  0.52075059  0.14246406  0.33466324  1
  H+  H186  1  0.61487238  0.38564437  0.50279336  1
  H+  H187  1  0.27795831  0.64124994  1.00107866  1
  H+  H188  1  0.33496840  0.92073013  0.41814152  1
  H+  H189  1  0.48142541  0.10902637  0.49783417  1
  H+  H190  1  0.58115044  0.37541243  0.01401546  1
  H+  H191  1  0.35556927  0.48076934  0.66816885  1
  H+  H192  1  0.86620325  0.98253410  0.50363817  1
  H+  H193  1  0.36399107  -0.02392705  0.48119561  1
  H+  H194  1  0.17068758  0.58836085  0.59930337  1
  H+  H195  1  0.36298882  0.27149622  0.65458479  1
  H+  H196  1  0.61795244  0.53409426  0.17031659  1
  H+  H197  1  0.02419510  0.39163341  0.82378271  1
  H+  H198  1  0.72634421  0.62065283  0.66167417  1
  H+  H199  1  0.94595645  0.97296942  0.78803399  1
  H+  H200  1  0.84005643  0.16191242  0.04454116  1
  H+  H201  1  0.62474251  0.06868641  0.25735169  1
  H+  H202  1  0.95845333  0.95038462  0.20531536  1
  H+  H203  1  0.61728968  0.97311802  0.67026488  1
  H+  H204  1  0.10635204  0.87629436  0.00614572  1
  H+  H205  1  0.37158745  0.72960548  0.48089442  1
  H+  H206  1  0.60638559  0.13593132  0.33264442  1
  H+  H207  1  0.24183390  0.13209954  0.66968937  1
  H+  H208  1  0.71610695  0.59677423  0.97267468  1
  H+  H209  1  0.85883471  0.47581433  0.16836555  1
  H+  H210  1  0.75219044  0.27228444  0.60933337  1
  H+  H211  1  0.13500060  0.26058805  0.20186009  1
  H+  H212  1  0.13153099  0.36462828  0.49619017  1
  H+  H213  1  0.62720174  0.03109520  0.15855440  1
  H+  H214  1  0.36939690  0.85653351  0.84775581  1
  H+  H215  1  0.03293113  0.55912711  0.46156405  1
  H+  H216  1  0.10840364  0.63393835  0.83437871  1
  H+  H217  1  0.34297001  0.45980972  0.16546978  1
  H+  H218  1  0.69368950  0.82677917  0.26650765  1
  H+  H219  1  0.39188821  0.60710780  0.02323479  1
  H+  H220  1  0.14315765  0.52979884  0.34280898  1
  H+  H221  1  0.60563417  0.12344083  0.00352850  1
  H+  H222  1  0.22438351  0.87495661  0.67384171  1
  H+  H223  1  0.88491579  0.11346306  0.65586317  1
  H+  H224  1  0.64493140  1.02693714  0.49653341  1
  H+  H225  1  0.96181994  0.10547718  0.98202213  1
  H+  H226  1  0.87070318  0.97576217  0.15918024  1
  H+  H227  1  0.85134247  0.71442895  -0.02130634  1
  H+  H228  1  0.63145844  0.53658313  0.66159939  1
  H+  H229  1  0.50400444  0.11045795  0.65721601  1
  H+  H230  1  0.85837151  0.45011018  0.47197797  1
  H+  H231  1  0.86820539  0.72717590  0.17143088  1
  H+  H232  1  0.58822803  0.40038753  0.67531578  1
  H+  H233  1  0.63200610  0.79608273  0.18280375  1
  H+  H234  1  0.62852573  0.36839380  0.17510020  1
  H+  H235  1  1.01795413  0.87621668  0.84257492  1
  H+  H236  1  0.86396537  0.97927574  0.66119117  1
  H+  H237  1  0.45149866  0.36150599  0.65484649  1
  H+  H238  1  0.35843957  0.59700767  0.15531364  1
  H+  H239  1  0.11910794  0.64227145  0.67313917  1
  H+  H240  1  0.91968168  0.28377628  0.33174974  1
  H+  H241  1  0.63494446  0.98160824  0.82165066  1
  H+  H242  1  0.68295850  0.39099392  0.70087940  1
  H+  H243  1  0.59884979  0.22966650  0.15218326  1
  H+  H244  1  0.86066091  0.46470895  0.33240851  1
  H+  H245  1  -0.02048722  0.36782383  -0.00443354  1
  H+  H246  1  0.86377084  0.73216929  0.67142507  1
  H+  H247  1  0.27769443  0.40432157  0.39462037  1
  H+  H248  1  0.34885392  0.38889412  0.66780467  1
  H+  H249  1  0.74148885  0.85781158  0.84002069  1
  H+  H250  1  0.14820780  0.78057814  0.32617982  1
  H+  H251  1  0.89305901  1.02562904  0.33343871  1
  H+  H252  1  0.88368821  0.78478748  0.50345633  1
  H+  H253  1  0.87779191  0.89594855  0.35969609  1
  H+  H254  1  0.63426400  0.76573942  0.98137730  1
  H+  H255  1  0.27815577  0.89092638  0.33099741  1
  H+  H256  1  0.63702185  0.21271238  0.66608105  1
  H+  H257  1  0.35005728  0.97534404  0.83563244  1
  H+  H258  1  0.11053400  0.73135022  0.83545293  1
  H+  H259  1  0.78601669  0.87925134  0.34629041  1
  H+  H260  1  0.61930890  0.62440565  0.34034399  1
  H+  H261  1  0.61263382  0.87642000  -0.01015278  1
  H+  H262  1  0.39857713  0.37467755  0.35518186  1
  H+  H263  1  0.70256217  0.61824724  0.18830001  1
  H+  H264  1  0.72744479  0.87719814  0.17683693  1
  H+  H265  1  0.21875885  0.61482693  0.83926783  1
  H+  H266  1  0.62638486  0.12130310  0.67139163  1
  H+  H267  1  0.63908139  0.86564672  0.66093887  1
  H+  H268  1  0.08420102  0.41986330  0.76430541  1
  H+  H269  1  0.72333153  0.59745316  0.33547290  1
  H+  H270  1  0.63284024  0.26366955  0.49842716  1
  H+  H271  1  0.02390361  0.89149972  0.49068894  1
  H+  H272  1  0.63433436  0.01520214  0.98411673  1
  H+  H273  1  0.86724911  0.22759743  0.48070922  1
  H+  H274  1  0.34690352  0.97103157  1.00693478  1
  H+  H275  1  0.83581726  0.22434958  0.21527311  1
  H+  H276  1  0.11264917  0.22731833  0.49232050  1
  H+  H277  1  0.61057068  0.11286235  0.16272673  1
  H+  H278  1  -0.01368623  0.36497068  0.65225897  1
  H+  H279  1  0.38382919  0.53181948  0.83509314  1
  H+  H280  1  0.25651222  0.36904558  0.17885727  1
  H+  H281  1  0.10880360  0.62611186  0.16690451  1
  H+  H282  1  0.22610911  0.86423715  0.49026586  1
  H+  H283  1  0.74285381  0.14078945  0.20820435  1
  H+  H284  1  0.37620817  0.35733228  0.18657899  1
  H+  H285  1  0.86407616  0.36575099  0.48262539  1
  H+  H286  1  0.73708489  0.10993484  0.65348457  1
  H+  H287  1  0.73284824  0.12315241  0.83549432  1
  H+  H288  1  0.59843274  0.92049723  0.73424616  1
  H+  H289  1  0.60270964  0.66283660  0.16663513  1
  H+  H290  1  0.69491007  0.30844061  0.58318405  1
  H+  H291  1  0.07058202  0.64319814  0.42156184  1
  H+  H292  1  0.66752057  0.59070830  0.56496188  1
  H+  H293  1  0.36506468  0.26048089  0.99562208  1
  H+  H294  1  0.41009303  0.08325249  0.93289053  1
  H+  H295  1  0.58560967  0.16538898  0.42616097  1
  H+  H296  1  0.89135462  0.11959847  0.49932906  1
  H+  H297  1  0.34376234  0.17073360  0.11643373  1
  H+  H298  1  0.16193942  0.58124099  0.93549477  1
  H+  H299  1  0.16342176  0.33873654  0.59276909  1
  H+  H300  1  0.54930432  0.42147449  0.73141947  1
  H+  H301  1  0.41435923  0.83023065  0.62920260  1
  H+  H302  1  0.79755461  0.38962462  0.66317330  1
  H+  H303  1  0.11588110  0.19626041  0.12810698  1
  H+  H304  1  0.77592619  0.64273899  0.06666361  1
  H+  H305  1  0.40332198  0.33621952  0.55470163  1
  H+  H306  1  0.10601264  0.96624113  0.84395000  1
  H+  H307  1  0.82395516  0.91747260  0.06213055  1
  H+  H308  1  0.27680630  0.88245641  0.16159538  1
  H+  H309  1  0.08265165  0.65849760  0.10660508  1
  H+  H310  1  0.83117525  0.91908872  0.44809374  1
  H+  H311  1  0.91343340  0.08647658  0.59398289  1
  H+  H312  1  0.89105989  0.61941820  0.83348382  1
  H+  H313  1  0.58786479  0.16445770  0.76367430  1
  H+  H314  1  0.02012147  0.14044707  0.83893098  1
  H+  H315  1  0.38480229  0.32294193  0.89905657  1
  H+  H316  1  0.26027418  0.56893712  0.11011876  1
  H+  H317  1  0.92588976  0.33554064  0.55499835  1
  H+  H318  1  0.08923848  0.90727229  0.38958809  1
  H+  H319  1  0.66451687  0.32534162  0.25292447  1
  H+  H320  1  0.16129042  0.57440942  0.23918858  1
  H+  H321  1  0.31190765  0.39441039  0.07961573  1
  H+  H322  1  0.77503489  0.64562319  0.10074632  1
  H+  H323  1  0.17325968  0.83100107  0.23449360  1
  H+  H324  1  0.82393584  0.39411540  0.38594263  1
  H+  H325  1  0.21830295  0.36184479  0.49487282  1
  H+  H326  1  0.84000299  0.16821247  0.42139127  1
  H+  H327  1  0.93952300  0.05927089  0.23928621  1
  H+  H328  1  0.23119302  0.61577937  0.32746615  1
  H+  H329  1  0.93143762  0.34499817  0.24264493  1
  H+  H330  1  0.97769989  0.61084095  0.17841346  1
  H+  H331  1  0.19892840  0.35830819  0.30160656  1
  H+  H332  1  0.69933420  0.98895979  0.10749088  1
  H+  H333  1  0.91990055  0.57422713  0.27254218  1
  H+  H334  1  0.15839750  0.07780930  0.59175355  1
  H+  H335  1  0.65714476  0.82866445  0.60045406  1
  H+  H336  1  0.08031617  0.15283351  0.39368155  1
  H+  H337  1  0.58226017  0.66782156  0.76297831  1
  H+  H338  1  0.10754843  0.98260234  0.65807822  1
  H+  H339  1  0.38698184  0.01953482  0.17381174  1
  H+  H340  1  0.63816688  0.89382795  0.82011513  1
  H+  H341  1  0.88767753  0.87601515  0.51038132  1
  H+  H342  1  0.32202801  0.66009595  0.77048426  1
  H+  H343  1  0.41008045  0.82302416  0.92219863  1
  H+  H344  1  0.53130184  0.63711554  0.01218966  1
  H+  H345  1  0.42855997  0.07504581  0.55916362  1
  H+  H346  1  0.83231701  0.66563241  0.76613234  1
  H+  H347  1  0.43163458  0.59472531  0.25193544  1
  H+  H348  1  0.32469059  0.91887431  0.77605685  1
  H+  H349  1  0.68494528  0.34344847  0.89880762  1
  H+  H350  1  0.90059719  0.08184034  0.89686725  1
  H+  H351  1  0.15749671  0.82436054  0.93953373  1
  H+  H352  1  0.12618222  0.10783698  0.84919188  1
  H+  H353  1  0.12394622  0.85363781  0.84657169  1
  H+  H354  1  0.36512297  0.89282329  0.68809277  1
  H+  H355  1  0.13578938  0.36845097  0.84084592  1
  H+  H356  1  0.83700850  0.66160423  0.40277340  1
  H+  H357  1  0.01949471  0.37702118  0.16516431  1
  H+  H358  1  0.08789891  0.90992427  0.10535541  1
  H+  H359  1  0.89745951  0.83100517  0.26364078  1
  H+  H360  1  0.16553381  0.34219347  0.90198747  1
  H+  H361  1  0.99197911  0.10895964  0.32997458  1
  H+  H362  1  0.57727060  0.16380170  0.05924636  1
  H+  H363  1  0.41508869  0.58264642  0.59145231  1
  H+  H364  1  0.56922707  0.41593519  0.11052318  1
  H+  H365  1  0.37202524  0.13385897  1.01514069  1
  H+  H366  1  0.34731424  0.16895744  0.40248214  1
  H+  H367  1  0.39927253  0.80471686  0.21436083  1
  H+  H368  1  0.58610708  0.41665013  0.40824363  1
  H+  H369  1  0.93216204  0.60849054  0.60988000  1
  H+  H370  1  0.11936498  0.63629780  0.33918167  1
  H+  H371  1  0.43249921  0.85996989  0.53582702  1
  H+  H372  1  0.55956965  0.35032777  0.80616813  1
  H+  H373  1  0.33993822  0.66626372  0.38777982  1
  H+  H374  1  0.83418970  0.41699534  0.10923057  1
  H+  H375  1  0.02031093  0.13523251  0.65970329  1
  H+  H376  1  0.90885099  0.83303392  0.93714321  1
  H+  H377  1  0.39011160  0.52497707  0.48585547  1
  H+  H378  1  0.05753345  0.14295357  0.05450770  1
  H+  H379  1  0.54414762  0.77362726  0.54341873  1
  H+  H380  1  0.84232227  0.42727694  0.76195287  1
  H+  H381  1  0.71927957  0.36714099  0.17091900  1
  H+  H382  1  0.31226303  0.16731066  0.76829451  1
  H+  H383  1  0.86105904  0.92870586  0.74976536  1
  O2-  O384  1  0.09765910  0.17027795  0.16789762  1
  O2-  O385  1  0.08069092  0.16568024  0.48028808  1
  O2-  O386  1  0.08186965  0.16290640  0.83061517  1
  O2-  O387  1  0.07987545  0.40650453  0.14994505  1
  O2-  O388  1  0.08221682  0.41739238  0.46707914  1
  O2-  O389  1  0.08515446  0.42339895  0.80977948  1
  O2-  O390  1  0.08008096  0.65853160  0.15190313  1
  O2-  O391  1  0.05639000  0.62084674  0.46625494  1
  O2-  O392  1  0.07773227  0.66653563  0.81942422  1
  O2-  O393  1  0.09363712  0.91601598  0.15001537  1
  O2-  O394  1  0.08419419  0.92203854  0.47580898  1
  O2-  O395  1  0.07920869  0.90545269  0.83025855  1
  O2-  O396  1  0.34085262  0.16843534  0.16151540  1
  O2-  O397  1  0.33118946  0.16172133  0.48394518  1
  O2-  O398  1  0.31975930  0.16565873  0.81297104  1
  O2-  O399  1  0.31407584  0.39687066  0.15677361  1
  O2-  O400  1  0.30445697  0.41661566  0.43740864  1
  O2-  O401  1  0.32837172  0.42058331  0.81060682  1
  O2-  O402  1  0.29599773  0.62299097  0.13145786  1
  O2-  O403  1  0.33855692  0.66795364  0.47013853  1
  O2-  O404  1  0.32059187  0.66322206  0.81561680  1
  O2-  O405  1  0.33642468  0.91384996  0.14476141  1
  O2-  O406  1  0.33378418  0.91648270  0.46451722  1
  O2-  O407  1  0.31971478  0.91451510  0.82128627  1
  O2-  O408  1  0.56902634  0.17064003  0.13498793  1
  O2-  O409  1  0.58530345  0.16346199  0.47176265  1
  O2-  O410  1  0.58051282  0.16579977  0.80872348  1
  O2-  O411  1  0.57460908  0.41613319  0.15574087  1
  O2-  O412  1  0.58858056  0.42055416  0.49121567  1
  O2-  O413  1  0.54587843  0.39644973  0.80581506  1
  O2-  O414  1  0.57834532  0.70170793  0.16285574  1
  O2-  O415  1  0.58381309  0.66502389  0.47071981  1
  O2-  O416  1  0.58599072  0.66358053  0.80801583  1
  O2-  O417  1  0.64000868  0.95331396  0.12081047  1
  O2-  O418  1  0.59353223  0.92690922  0.46452753  1
  O2-  O419  1  0.60981292  0.92411634  0.80260627  1
  O2-  O420  1  0.79599335  0.16705768  0.23300750  1
  O2-  O421  1  0.83411536  0.16688573  0.46677954  1
  O2-  O422  1  0.83337830  0.17672559  0.80667881  1
  O2-  O423  1  0.82682856  0.41471079  0.15426872  1
  O2-  O424  1  0.82635372  0.38871209  0.46431815  1
  O2-  O425  1  0.84284638  0.43183262  0.80750903  1
  O2-  O426  1  0.83984153  0.67803146  0.19872637  1
  O2-  O427  1  0.83111414  0.67918717  0.47855753  1
  O2-  O428  1  0.83191632  0.65878505  0.81143816  1
  O2-  O429  1  0.82642198  0.91900289  0.13960864  1
  O2-  O430  1  0.83480888  0.92031792  0.49323796  1
  O2-  O431  1  0.88376870  0.93928599  0.79315478  1
  O2-  O432  1  0.18035130  0.09170568  0.18852158  1
  O2-  O433  1  0.16506503  0.08189607  0.51996095  1
  O2-  O434  1  0.15741557  0.07659347  0.86294942  1
  O2-  O435  1  0.16524766  0.32420446  0.21480643  1
  O2-  O436  1  0.16171940  0.33578249  0.51520834  1
  O2-  O437  1  0.16728431  0.34005832  0.85670195  1
  O2-  O438  1  0.15475265  0.57084731  0.19402293  1
  O2-  O439  1  0.17949627  0.58802997  0.52102209  1
  O2-  O440  1  0.15670425  0.58602466  0.85307059  1
  O2-  O441  1  0.17228737  0.82931820  0.18849174  1
  O2-  O442  1  0.16633935  0.83481804  0.50621076  1
  O2-  O443  1  0.15393483  0.81915503  0.85784593  1
  O2-  O444  1  0.41780696  0.08019184  0.18891339  1
  O2-  O445  1  0.42174294  0.07736787  0.51474679  1
  O2-  O446  1  0.40708098  0.08593979  0.85256562  1
  O2-  O447  1  0.41270241  0.33543158  0.20466149  1
  O2-  O448  1  0.41727077  0.33109294  0.51196383  1
  O2-  O449  1  0.39599588  0.33037736  0.85402827  1
  O2-  O450  1  0.40046894  0.57312340  0.16295180  1
  O2-  O451  1  0.41904885  0.58052230  0.50734633  1
  O2-  O452  1  0.41138158  0.59256220  0.84837176  1
  O2-  O453  1  0.39343630  0.80388476  0.16950056  1
  O2-  O454  1  0.42310185  0.84603329  0.49286417  1
  O2-  O455  1  0.39892300  0.82495748  0.86089973  1
  O2-  O456  1  0.63546741  0.08072963  0.18363369  1
  O2-  O457  1  0.67337981  0.08637281  0.51423905  1
  O2-  O458  1  0.67307071  0.08741605  0.85207518  1
  O2-  O459  1  0.65847449  0.33484333  0.18619771  1
  O2-  O460  1  0.66717219  0.32296925  0.51652902  1
  O2-  O461  1  0.67977567  0.36286029  0.85693954  1
  O2-  O462  1  0.64595271  0.59736948  0.17024693  1
  O2-  O463  1  0.66887570  0.58812065  0.51977844  1
  O2-  O464  1  0.65997889  0.57085016  0.83996182  1
  O2-  O465  1  0.67066313  0.85860121  0.19603907  1
  O2-  O466  1  0.60325536  0.80076978  0.52899996  1
  O2-  O467  1  0.68066443  0.83031177  0.84984118  1
  O2-  O468  1  0.95048767  0.04230633  0.19827520  1
  O2-  O469  1  0.92045032  0.09182489  0.51990698  1
  O2-  O470  1  0.90661397  0.09069400  0.85092707  1
  O2-  O471  1  0.91621303  0.33268500  0.19847272  1
  O2-  O472  1  0.92211258  0.33374148  0.50967352  1
  O2-  O473  1  0.91981726  0.34092397  0.85319374  1
  O2-  O474  1  0.91806648  0.57953552  0.19611988  1
  O2-  O475  1  0.93114079  0.62032975  0.53160639  1
  O2-  O476  1  0.92553661  0.59107314  0.84662185  1
  O2-  O477  1  0.94681548  0.88987270  0.20118739  1
  O2-  O478  1  0.91860892  0.84286713  0.52182508  1
  O2-  O479  1  0.90643500  0.82220717  0.85934537  1
  O2-  O480  1  0.14079764  0.05780320  0.31904990  1
  O2-  O481  1  0.15205721  0.07484355  0.63813021  1
  O2-  O482  1  0.19607158  0.13819487  0.97462276  1
  O2-  O483  1  0.21657891  0.39150513  0.33963090  1
  O2-  O484  1  0.15991309  0.33562709  0.63831682  1
  O2-  O485  1  0.15850137  0.33488196  0.98207634  1
  O2-  O486  1  0.16757205  0.58450961  0.31870017  1
  O2-  O487  1  0.16555173  0.58719283  0.64478089  1
  O2-  O488  1  0.16700612  0.58202341  0.98047453  1
  O2-  O489  1  0.17813729  0.83923165  0.30925456  1
  O2-  O490  1  0.16324402  0.84589186  0.66138235  1
  O2-  O491  1  0.15529656  0.82615408  0.98459004  1
  O2-  O492  1  0.42604396  0.08856264  0.31341996  1
  O2-  O493  1  0.44278899  0.08626119  0.64199986  1
  O2-  O494  1  0.41222992  0.08036029  0.97800055  1
  O2-  O495  1  0.42007857  0.34382982  0.33007152  1
  O2-  O496  1  0.39247529  0.33066789  0.63779144  1
  O2-  O497  1  0.34608151  0.29320189  0.96961151  1
  O2-  O498  1  0.44426187  0.60889780  0.29504050  1
  O2-  O499  1  0.41331568  0.58511756  0.63658225  1
  O2-  O500  1  0.42354021  0.57769312  1.03536670  1
  O2-  O501  1  0.41081112  0.82328245  0.29793780  1
  O2-  O502  1  0.41948285  0.83587526  0.67314177  1
  O2-  O503  1  0.41976715  0.82345506  0.97137120  1
  O2-  O504  1  0.63842120  0.07333934  0.30225905  1
  O2-  O505  1  0.67603338  0.07633238  0.63888742  1
  O2-  O506  1  0.66161639  0.07773895  0.97419586  1
  O2-  O507  1  0.67175666  0.32025430  0.29971874  1
  O2-  O508  1  0.71731892  0.29688002  0.62258940  1
  O2-  O509  1  0.70218911  0.30141879  0.96255794  1
  O2-  O510  1  0.66356893  0.57150057  0.32129042  1
  O2-  O511  1  0.66689194  0.59531036  0.64481798  1
  O2-  O512  1  0.65176737  0.56352666  0.96757794  1
  O2-  O513  1  0.71494168  0.80620948  0.30076330  1
  O2-  O514  1  0.66906902  0.83511398  0.64491184  1
  O2-  O515  1  0.66429288  0.82920913  0.96749132  1
  O2-  O516  1  0.92683126  0.08203784  0.31336526  1
  O2-  O517  1  0.91188784  0.08076692  0.63980481  1
  O2-  O518  1  0.90087324  0.07715235  0.96940597  1
  O2-  O519  1  0.94637308  0.34621823  0.32038681  1
  O2-  O520  1  0.92570479  0.33660036  0.63587118  1
  O2-  O521  1  0.92054120  0.34310767  0.97743580  1
  O2-  O522  1  0.91929491  0.56972928  0.31814680  1
  O2-  O523  1  0.92502216  0.59604401  0.65422464  1
  O2-  O524  1  0.92305396  0.57869767  0.97800922  1
  O2-  O525  1  0.85580508  0.78751125  0.29322824  1
  O2-  O526  1  0.91886576  0.83410944  0.63983644  1
  O2-  O527  1  0.90634071  0.83070967  0.98250321  1
  O2-  O528  1  0.06896665  0.16009356  0.01189010  1
  O2-  O529  1  0.07703452  0.14714113  0.34922380  1
  O2-  O530  1  0.08231143  0.16160270  0.66977935  1
  O2-  O531  1  0.07989436  0.41780789  0.02654786  1
  O2-  O532  1  0.10233638  0.43589088  0.38357611  1
  O2-  O533  1  0.08346346  0.41773863  0.68453047  1
  O2-  O534  1  0.08523876  0.66209443  0.02593631  1
  O2-  O535  1  0.08678934  0.66523278  0.35470289  1
  O2-  O536  1  0.08913819  0.67245479  0.69020182  1
  O2-  O537  1  0.07485808  0.90606817  0.02236546  1
  O2-  O538  1  0.09339012  0.90632239  0.34501032  1
  O2-  O539  1  0.07760778  0.91957273  0.67406079  1
  O2-  O540  1  0.34597537  0.16555310  0.03548394  1
  O2-  O541  1  0.36475101  0.17695415  0.35929492  1
  O2-  O542  1  0.30231519  0.16464929  0.68824393  1
  O2-  O543  1  0.31765904  0.40247628  0.03419156  1
  O2-  O544  1  0.38490410  0.41899425  0.43171579  1
  O2-  O545  1  0.32252996  0.42161768  0.68538053  1
  O2-  O546  1  0.33714575  0.67359260  0.01824186  1
  O2-  O547  1  0.33552241  0.66433098  0.34279207  1
  O2-  O548  1  0.32855961  0.65966133  0.69025435  1
  O2-  O549  1  0.31168357  0.91149969  0.02182717  1
  O2-  O550  1  0.33966942  0.91935233  0.34611715  1
  O2-  O551  1  0.33518458  0.92543971  0.69751854  1
  O2-  O552  1  0.58052092  0.16075344  0.01372028  1
  O2-  O553  1  0.58408611  0.17369868  0.34859169  1
  O2-  O554  1  0.59954412  0.15605879  0.68596484  1
  O2-  O555  1  0.56533473  0.41527488  0.03123639  1
  O2-  O556  1  0.58702889  0.41339349  0.36347309  1
  O2-  O557  1  0.55603481  0.42900811  0.68605958  1
  O2-  O558  1  0.59283127  0.67305555  0.00148129  1
  O2-  O559  1  0.59496823  0.66322458  0.35226646  1
  O2-  O560  1  0.57606413  0.67001572  0.68342703  1
  O2-  O561  1  0.58146836  0.90726851  0.00453969  1
  O2-  O562  1  0.57391353  0.90250002  0.33680711  1
  O2-  O563  1  0.58601558  0.91419611  0.68792714  1
  O2-  O564  1  0.81119008  0.19174326  0.02926420  1
  O2-  O565  1  0.86387918  0.17713174  0.34479054  1
  O2-  O566  1  0.83709367  0.17201026  0.68281146  1
  O2-  O567  1  0.84256902  0.42080498  0.02924276  1
  O2-  O568  1  0.82763095  0.40080332  0.34091074  1
  O2-  O569  1  0.85230236  0.42697878  0.68481422  1
  O2-  O570  1  0.82178306  0.65397483  -0.03510243  1
  O2-  O571  1  0.83921593  0.65214981  0.35820734  1
  O2-  O572  1  0.83240283  0.67250263  0.68857814  1
  O2-  O573  1  0.82321815  0.91421061  0.01664844  1
  O2-  O574  1  0.84029291  0.91923867  0.36899921  1
  O2-  O575  1  0.83780071  0.91887972  0.67780744  1
