# generated using pymatgen
data_H2O
_symmetry_space_group_name_H-M   'P 1'
_cell_length_a   17.99964805
_cell_length_b   17.99915705
_cell_length_c   22.00310218
_cell_angle_alpha   90.00752182
_cell_angle_beta   90.01405615
_cell_angle_gamma   119.99975628
_symmetry_Int_Tables_number   1
_chemical_formula_structural   H2O
_chemical_formula_sum   'H384 O192'
_cell_volume   6173.50439753
_cell_formula_units_Z   192
loop_
 _symmetry_equiv_pos_site_id
 _symmetry_equiv_pos_as_xyz
  1  'x, y, z'
loop_
 _atom_type_symbol
 _atom_type_oxidation_number
  H+  1.0
  O2-  -2.0
loop_
 _atom_site_type_symbol
 _atom_site_label
 _atom_site_symmetry_multiplicity
 _atom_site_fract_x
 _atom_site_fract_y
 _atom_site_fract_z
 _atom_site_occupancy
  H+  H0  1  0.72767463  0.10754102  0.82937753  1
  H+  H1  1  0.63276829  0.72811512  0.82370081  1
  H+  H2  1  0.12678856  0.29983005  1.00063171  1
  H+  H3  1  0.86223735  0.19703148  0.80436310  1
  H+  H4  1  0.02109740  0.19052967  0.13903044  1
  H+  H5  1  0.63733866  0.37045184  0.17474708  1
  H+  H6  1  0.39225095  0.58068978  0.33323383  1
  H+  H7  1  0.26534321  0.11966808  -0.00048472  1
  H+  H8  1  0.43196561  0.85638032  0.23226305  1
  H+  H9  1  0.70513890  0.37797591  0.82241506  1
  H+  H10  1  0.47872951  0.95060410  0.80402005  1
  H+  H11  1  0.24536285  0.86822867  0.83236938  1
  H+  H12  1  0.37817463  0.63153847  0.47520938  1
  H+  H13  1  0.88571988  1.02543736  0.50026678  1
  H+  H14  1  0.52680395  0.40898523  0.01311041  1
  H+  H15  1  0.70878026  0.87536783  0.66235275  1
  H+  H16  1  0.78338953  0.63777009  0.00977221  1
  H+  H17  1  0.84876542  0.10308122  0.32859567  1
  H+  H18  1  0.47807601  0.10916180  0.50249177  1
  H+  H19  1  0.61785355  0.14314226  0.34033168  1
  H+  H20  1  0.13927104  0.89233205  0.66458970  1
  H+  H21  1  0.53869920  0.64367338  0.33466702  1
  H+  H22  1  0.73396291  0.87039772  -0.00503072  1
  H+  H23  1  0.90087077  0.33168989  0.82133621  1
  H+  H24  1  0.61298492  0.02571544  0.16436187  1
  H+  H25  1  0.02865067  0.15047068  0.68204257  1
  H+  H26  1  0.12367788  0.72903043  0.49942369  1
  H+  H27  1  0.87425766  0.89016669  0.81742189  1
  H+  H28  1  0.87198178  0.74593242  0.16305805  1
  H+  H29  1  0.38830187  0.52099109  0.16946084  1
  H+  H30  1  0.61276364  0.13523787  0.49218038  1
  H+  H31  1  0.13236547  0.84505328  0.15392944  1
  H+  H32  1  0.87314574  -0.02075800  0.82469600  1
  H+  H33  1  0.16472890  0.79360557  0.98723867  1
  H+  H34  1  0.63040473  1.02336108  0.50601100  1
  H+  H35  1  0.85776290  0.62408692  0.34223042  1
  H+  H36  1  0.46301043  0.85679698  0.65650113  1
  H+  H37  1  0.97285204  0.34034786  0.18770181  1
  H+  H38  1  0.27860668  0.12523912  0.48183432  1
  H+  H39  1  0.27387725  0.63987104  0.18695569  1
  H+  H40  1  0.10963328  0.63491092  0.82475666  1
  H+  H41  1  0.15795807  0.08669860  0.60881568  1
  H+  H42  1  0.76146399  0.88088322  0.49530124  1
  H+  H43  1  0.70635592  0.86532516  0.18266423  1
  H+  H44  1  0.63845427  0.87403311  0.33311759  1
  H+  H45  1  0.86067011  0.48572196  0.32867799  1
  H+  H46  1  0.62233710  0.15346368  0.82645474  1
  H+  H47  1  0.87924924  0.05093994  0.66764690  1
  H+  H48  1  0.34139314  0.70484333  0.85965484  1
  H+  H49  1  0.39339005  0.51395564  0.49157049  1
  H+  H50  1  0.03750998  0.37263964  0.80973819  1
  H+  H51  1  0.10378025  0.21891698  0.34205392  1
  H+  H52  1  0.37662704  0.86080653  0.65555747  1
  H+  H53  1  0.62310344  0.27563285  0.17830700  1
  H+  H54  1  0.91173554  0.01707131  0.18789639  1
  H+  H55  1  0.52491261  0.91187808  0.84342520  1
  H+  H56  1  0.81926676  0.35033693  0.81454003  1
  H+  H57  1  0.11482435  0.88001276  0.82367131  1
  H+  H58  1  0.12734564  0.77333427  0.32959744  1
  H+  H59  1  0.62023877  0.48251028  0.33881079  1
  H+  H60  1  0.51799850  0.89501224  0.15425406  1
  H+  H61  1  0.38807513  0.15573572  0.14819195  1
  H+  H62  1  0.91028665  0.05221357  0.99540442  1
  H+  H63  1  0.13755415  0.11303635  0.67269916  1
  H+  H64  1  0.84802779  0.39705067  0.00486106  1
  H+  H65  1  0.39666393  0.28091067  0.15641483  1
  H+  H66  1  0.86520598  0.73333945  0.82016174  1
  H+  H67  1  0.36137162  0.63748967  0.18740759  1
  H+  H68  1  0.81456302  0.42107658  0.06380262  1
  H+  H69  1  0.39236755  0.87363041  -0.02681724  1
  H+  H70  1  0.17377543  0.33465228  0.59775981  1
  H+  H71  1  0.35726197  0.37322150  0.49481067  1
  H+  H72  1  0.47711666  0.11012685  0.65746740  1
  H+  H73  1  0.67032315  0.33611909  0.26361245  1
  H+  H74  1  0.34544358  0.67154821  0.30490461  1
  H+  H75  1  0.38774013  0.10861239  0.65739944  1
  H+  H76  1  0.12613447  0.51572447  0.17152066  1
  H+  H77  1  0.87686434  0.99142225  0.34059919  1
  H+  H78  1  0.53962516  0.64128764  0.66416903  1
  H+  H79  1  0.29204421  0.89823364  1.00420381  1
  H+  H80  1  0.17283099  0.64740958  0.51819433  1
  H+  H81  1  0.36536535  0.38948446  0.15399934  1
  H+  H82  1  0.62390404  1.02220016  0.65337354  1
  H+  H83  1  0.74607487  0.87132718  0.83859673  1
  H+  H84  1  0.23117671  0.86337545  0.50602164  1
  H+  H85  1  0.60766051  0.63360548  0.48740026  1
  H+  H86  1  0.12449217  0.51383944  0.83637096  1
  H+  H87  1  0.36179433  0.13113273  0.32483899  1
  H+  H88  1  0.40455093  0.63368327  0.99305687  1
  H+  H89  1  0.39141785  0.26525024  0.85003307  1
  H+  H90  1  0.42609556  0.08275570  0.90433192  1
  H+  H91  1  0.84345924  0.66988091  0.73313653  1
  H+  H92  1  0.87530529  0.63805969  0.67465180  1
  H+  H93  1  0.85047925  0.87954942  0.49386498  1
  H+  H94  1  0.48273512  0.37172480  0.16651408  1
  H+  H95  1  0.86583941  0.23487297  0.03061303  1
  H+  H96  1  0.28050346  0.13801758  0.67575180  1
  H+  H97  1  0.59325542  0.10925540  0.17314749  1
  H+  H98  1  0.40456995  0.02332930  0.84386284  1
  H+  H99  1  0.37917261  0.74312656  -0.01844723  1
  H+  H100  1  0.10483859  0.23674649  0.83602955  1
  H+  H101  1  0.59932249  0.38788462  0.82641004  1
  H+  H102  1  0.35137527  0.92081448  0.73205632  1
  H+  H103  1  0.09796015  0.62973436  0.34153079  1
  H+  H104  1  0.53670714  0.91048416  0.34015479  1
  H+  H105  1  0.75791938  0.12425788  0.48821684  1
  H+  H106  1  0.65478245  0.86474133  0.83742659  1
  H+  H107  1  0.64703945  0.53251563  0.99630550  1
  H+  H108  1  0.12336067  0.09458248  0.99513816  1
  H+  H109  1  0.60899983  0.22314669  0.49284575  1
  H+  H110  1  0.10775567  0.11186910  0.51394156  1
  H+  H111  1  0.84710935  0.71770020  0.49531070  1
  H+  H112  1  0.87562552  0.64279317  0.02624138  1
  H+  H113  1  0.35952475  0.98281599  0.33301578  1
  H+  H114  1  0.73610688  0.61934733  0.66651880  1
  H+  H115  1  0.47561007  0.11767779  0.99535229  1
  H+  H116  1  0.22353724  0.35981950  0.50392307  1
  H+  H117  1  0.59719491  0.23173284  1.01489726  1
  H+  H118  1  0.53104811  0.64224170  1.00873779  1
  H+  H119  1  0.76115318  0.62645502  0.33852254  1
  H+  H120  1  0.97232038  0.85742594  0.50803018  1
  H+  H121  1  0.12196927  0.23098906  0.67559302  1
  H+  H122  1  0.62959399  0.28068764  0.83297523  1
  H+  H123  1  0.77517513  0.64018386  0.82512780  1
  H+  H124  1  0.88291472  0.61941451  0.18037684  1
  H+  H125  1  0.61947273  0.77601706  0.17902102  1
  H+  H126  1  0.39211516  0.76688491  0.49876871  1
  H+  H127  1  0.86258169  0.25427420  0.46395516  1
  H+  H128  1  0.35040236  0.25182667  0.30481667  1
  H+  H129  1  0.37538973  0.13401436  0.83056255  1
  H+  H130  1  0.52782831  0.14114894  0.82957076  1
  H+  H131  1  -0.02460143  0.86374040  0.32774179  1
  H+  H132  1  0.87290587  0.11749550  0.20961711  1
  H+  H133  1  0.41851683  0.07999401  0.56254100  1
  H+  H134  1  0.88080333  0.11044363  0.49722581  1
  H+  H135  1  0.11112242  0.13222111  0.34747155  1
  H+  H136  1  0.37276382  0.59235465  0.85082261  1
  H+  H137  1  0.57827030  0.41034625  0.42906694  1
  H+  H138  1  0.39767742  0.80335651  0.32602448  1
  H+  H139  1  0.21576460  0.86100835  0.32461339  1
  H+  H140  1  1.01031899  0.09220107  0.18344921  1
  H+  H141  1  0.13775668  0.27187821  0.17216273  1
  H+  H142  1  0.52398597  0.63818480  0.16081086  1
  H+  H143  1  0.97172619  0.35282377  1.08428288  1
  H+  H144  1  0.06218271  0.66396908  0.00590729  1
  H+  H145  1  0.38071266  0.10645915  0.98777915  1
  H+  H146  1  0.84651062  0.38672293  0.83622133  1
  H+  H147  1  0.41983141  0.51027292  0.33088379  1
  H+  H148  1  0.05428498  0.02753547  0.55006522  1
  H+  H149  1  0.51865423  0.88565412  0.49342919  1
  H+  H150  1  0.60715449  0.22564533  0.67182432  1
  H+  H151  1  0.88808741  0.35531397  1.09367744  1
  H+  H152  1  0.89938461  0.52287198  0.64996583  1
  H+  H153  1  0.60621729  0.47934846  0.82706181  1
  H+  H154  1  0.10710542  0.37570162  0.49635778  1
  H+  H155  1  0.98687557  0.86352716  0.82616887  1
  H+  H156  1  0.59348643  0.88221197  0.67573385  1
  H+  H157  1  0.16079850  0.12490584  0.16248814  1
  H+  H158  1  0.64632498  0.27892054  0.32559203  1
  H+  H159  1  0.24146418  0.36570542  0.65344970  1
  H+  H160  1  0.29364736  0.14565575  0.15008976  1
  H+  H161  1  0.14176795  0.39054825  0.66987497  1
  H+  H162  1  0.39783807  0.89046084  0.32507679  1
  H+  H163  1  0.96901482  0.61287341  0.33061193  1
  H+  H164  1  0.01485612  0.14232656  0.49314374  1
  H+  H165  1  -0.01341317  0.61479349  0.66208449  1
  H+  H166  1  0.76587127  0.89425605  0.34051614  1
  H+  H167  1  0.08354580  0.61576427  0.14938179  1
  H+  H168  1  0.11661109  0.38888521  0.33660952  1
  H+  H169  1  0.63050215  0.64732540  0.67134000  1
  H+  H170  1  0.69764280  0.13196709  0.16348675  1
  H+  H171  1  0.21034458  0.60251519  0.84398876  1
  H+  H172  1  0.73213339  0.62992944  0.17531137  1
  H+  H173  1  0.21667506  0.83888603  0.14902036  1
  H+  H174  1  0.12810024  0.00848006  0.99195035  1
  H+  H175  1  0.36848476  0.66335520  0.70565983  1
  H+  H176  1  0.96320671  0.67250310  0.52047931  1
  H+  H177  1  0.68707159  0.02396041  0.32893808  1
  H+  H178  1  0.72122100  0.35896366  0.65012138  1
  H+  H179  1  0.63010325  0.77172764  0.50657394  1
  H+  H180  1  0.38330465  0.26240491  0.49881303  1
  H+  H181  1  0.39762622  0.35594146  0.64805776  1
  H+  H182  1  0.10884525  0.97369986  0.49367162  1
  H+  H183  1  0.76604971  0.38526164  0.32640920  1
  H+  H184  1  0.90609561  0.76900387  0.66827265  1
  H+  H185  1  0.15131888  0.21033416  0.02412335  1
  H+  H186  1  0.60786346  0.89976850  0.15939217  1
  H+  H187  1  0.60888416  0.39631771  1.00661569  1
  H+  H188  1  0.12671233  1.02283126  0.33167776  1
  H+  H189  1  0.10851409  0.88425821  0.33580222  1
  H+  H190  1  0.02839075  0.64787005  0.81875997  1
  H+  H191  1  0.36826910  -0.02165479  0.67026927  1
  H+  H192  1  0.73873319  0.11769208  0.98874608  1
  H+  H193  1  0.86945678  0.39517956  0.33482033  1
  H+  H194  1  0.85450349  0.37457048  0.49327533  1
  H+  H195  1  0.48454742  0.60805486  0.48848682  1
  H+  H196  1  0.22205776  0.35225345  0.32328600  1
  H+  H197  1  0.23230855  0.09937133  0.83934429  1
  H+  H198  1  0.35806918  0.74195834  0.68401672  1
  H+  H199  1  0.37827847  0.50730411  0.85294626  1
  H+  H200  1  0.35800603  0.88644867  0.15930222  1
  H+  H201  1  0.64044287  0.62464637  0.17586971  1
  H+  H202  1  0.21253114  0.62178476  0.32393743  1
  H+  H203  1  0.29571200  0.65373096  0.99415817  1
  H+  H204  1  0.97855328  0.11845256  0.83754596  1
  H+  H205  1  0.47064518  0.35299385  0.49821229  1
  H+  H206  1  0.36462311  0.49599182  0.01065212  1
  H+  H207  1  0.58779719  0.67434941  0.10349235  1
  H+  H208  1  0.27157702  0.40875748  0.00790228  1
  H+  H209  1  0.62749264  0.90065437  1.00615596  1
  H+  H210  1  0.38036459  0.98447717  0.00448447  1
  H+  H211  1  0.13081354  0.98873057  0.66729150  1
  H+  H212  1  0.83213762  0.83257813  0.05826376  1
  H+  H213  1  0.65090650  0.62270166  0.99533990  1
  H+  H214  1  0.39339369  0.78059505  0.18523515  1
  H+  H215  1  0.95740168  0.93726557  0.20039963  1
  H+  H216  1  -0.01744105  0.38095547  0.33550501  1
  H+  H217  1  0.91952941  0.85999280  0.68603574  1
  H+  H218  1  0.61334295  0.51261619  0.49705032  1
  H+  H219  1  0.89516937  0.76036574  -0.01703946  1
  H+  H220  1  0.16565567  0.32834543  0.26355207  1
  H+  H221  1  0.90872887  0.92575427  0.05323223  1
  H+  H222  1  0.04443361  0.63266758  0.50372267  1
  H+  H223  1  0.13095630  0.38743671  0.82651565  1
  H+  H224  1  0.90279773  0.32296644  0.37547461  1
  H+  H225  1  0.62284502  0.73868555  0.33631441  1
  H+  H226  1  0.63169329  0.77784922  0.66073560  1
  H+  H227  1  0.13586278  0.39624086  1.00377049  1
  H+  H228  1  0.64796817  0.61689042  0.83633367  1
  H+  H229  1  0.39101452  0.82522751  0.79958883  1
  H+  H230  1  0.84390660  0.10512179  0.18241960  1
  H+  H231  1  0.71204360  0.36880632  0.98902303  1
  H+  H232  1  0.53062724  0.38785103  0.66949799  1
  H+  H233  1  0.70191414  0.60010714  0.50242634  1
  H+  H234  1  0.60298494  0.37945425  0.49101856  1
  H+  H235  1  0.58884167  0.92760836  0.40257679  1
  H+  H236  1  0.88766486  0.62572085  0.82531068  1
  H+  H237  1  0.03533682  0.89737379  0.15834578  1
  H+  H238  1  0.89847511  0.84893679  0.97454422  1
  H+  H239  1  0.71565321  0.35666189  0.51317519  1
  H+  H240  1  -0.00158156  0.13789764  -0.00455031  1
  H+  H241  1  0.96744745  0.61066095  0.17596472  1
  H+  H242  1  0.64546284  0.53281123  0.66776394  1
  H+  H243  1  0.97839640  0.61202227  1.07336979  1
  H+  H244  1  0.37204496  0.22296642  0.67039118  1
  H+  H245  1  0.84196913  0.88655253  0.17443076  1
  H+  H246  1  0.23081392  0.61782207  0.67634472  1
  H+  H247  1  0.60759549  0.88572374  0.49502563  1
  H+  H248  1  0.88469706  0.85893930  0.33063054  1
  H+  H249  1  0.14737488  0.78132149  0.66535992  1
  H+  H250  1  0.62171929  0.48678653  0.16176772  1
  H+  H251  1  0.11179762  0.38231559  0.15878835  1
  H+  H252  1  0.21646251  0.11039169  0.32752959  1
  H+  H253  1  0.84267051  0.62735185  0.49846502  1
  H+  H254  1  0.83088529  0.49919288  0.78869958  1
  H+  H255  1  0.47357134  0.36081654  0.84688375  1
  H+  H256  1  0.61672268  0.39297421  0.33717999  1
  H+  H257  1  0.38290902  0.47783661  0.64719423  1
  H+  H258  1  0.65015643  0.62730682  0.32634831  1
  H+  H259  1  0.40126397  0.60349895  0.63129138  1
  H+  H260  1  0.85609885  0.10885121  0.81817725  1
  H+  H261  1  0.15649707  0.03523538  0.16140516  1
  H+  H262  1  0.15652479  0.53750309  1.00100966  1
  H+  H263  1  0.48074834  0.11684806  0.32388544  1
  H+  H264  1  -0.01637995  0.10068717  0.34029669  1
  H+  H265  1  0.93368294  0.29771731  0.87344694  1
  H+  H266  1  0.11852851  0.88970878  0.49382324  1
  H+  H267  1  0.84097412  0.91277740  0.66229470  1
  H+  H268  1  0.61919520  0.73132561  1.00847216  1
  H+  H269  1  0.11939721  0.64199381  0.67522422  1
  H+  H270  1  0.14818761  0.65957632  0.99637970  1
  H+  H271  1  0.38149929  0.37292039  0.33176465  1
  H+  H272  1  0.22940017  0.36106196  0.17313326  1
  H+  H273  1  0.13267940  0.27192154  0.50801006  1
  H+  H274  1  0.43389535  0.57573559  0.57448980  1
  H+  H275  1  0.62650851  0.03992806  0.83326227  1
  H+  H276  1  0.13790784  0.48427690  0.67476825  1
  H+  H277  1  0.36055021  0.36345881  0.84831411  1
  H+  H278  1  0.89700001  0.25638837  0.66024792  1
  H+  H279  1  0.22567410  0.35979655  0.85879553  1
  H+  H280  1  0.13263212  0.52593967  0.32847605  1
  H+  H281  1  0.03208180  0.87251246  -0.00133272  1
  H+  H282  1  0.04077471  0.88760783  0.66722867  1
  H+  H283  1  0.04848886  0.42423115  0.01461619  1
  H+  H284  1  0.24049024  0.87053115  0.66602005  1
  H+  H285  1  0.82593064  0.23013295  0.16580610  1
  H+  H286  1  0.87457870  0.15350675  0.01141708  1
  H+  H287  1  0.83612098  0.40845904  0.59618733  1
  H+  H288  1  0.34065531  0.67475949  0.37964853  1
  H+  H289  1  0.33419464  0.16081395  0.05315492  1
  H+  H290  1  0.08822630  0.91744804  0.09636056  1
  H+  H291  1  0.45652324  0.43343309  0.37837470  1
  H+  H292  1  0.55842839  0.17497537  0.07431595  1
  H+  H293  1  0.86113802  0.46606123  0.50135503  1
  H+  H294  1  0.09018712  0.41639371  0.39852805  1
  H+  H295  1  0.63635889  0.36607931  0.66303186  1
  H+  H296  1  0.67920355  0.84386000  0.93441153  1
  H+  H297  1  0.08438312  0.18055861  0.77485461  1
  H+  H298  1  0.59447166  0.93522117  0.06391079  1
  H+  H299  1  0.67819901  0.08237884  0.92685046  1
  H+  H300  1  0.38477210  0.31860386  0.24819183  1
  H+  H301  1  0.65593684  0.83221662  0.56644650  1
  H+  H302  1  0.82762370  0.93002959  0.73191539  1
  H+  H303  1  0.79447272  0.17529274  0.10382780  1
  H+  H304  1  0.84100267  0.68531747  0.10447292  1
  H+  H305  1  0.07607876  0.66097102  0.40317023  1
  H+  H306  1  0.90732221  0.37421106  0.93692009  1
  H+  H307  1  0.14591022  0.57707738  0.22843292  1
  H+  H308  1  0.87526215  0.32666300  0.93960695  1
  H+  H309  1  0.36749290  0.12704601  0.48719649  1
  H+  H310  1  0.80304766  0.13030641  0.42388368  1
  H+  H311  1  0.34720519  0.16644314  0.77199684  1
  H+  H312  1  0.26155134  0.70147828  0.55080534  1
  H+  H313  1  0.64274573  0.00885497  0.99590888  1
  H+  H314  1  0.08949366  0.45400293  0.49894903  1
  H+  H315  1  0.11573360  0.96828039  0.82417663  1
  H+  H316  1  0.42136745  0.34585967  0.94917305  1
  H+  H317  1  0.19138521  0.85674257  0.93033179  1
  H+  H318  1  0.09100564  0.67434038  0.73366401  1
  H+  H319  1  0.42451469  0.32038347  0.59187275  1
  H+  H320  1  0.67785268  0.59570885  0.26572428  1
  H+  H321  1  0.36859928  0.43473518  0.71090556  1
  H+  H322  1  0.38202538  0.84306960  0.90536057  1
  H+  H323  1  0.64890339  0.32560811  0.56673474  1
  H+  H324  1  0.91121358  0.54203651  1.02677616  1
  H+  H325  1  0.33047138  0.42343656  0.09935867  1
  H+  H326  1  0.33680023  0.16089287  0.38566235  1
  H+  H327  1  0.96095257  0.33787020  0.62330185  1
  H+  H328  1  0.85477196  0.47568724  0.15768749  1
  H+  H329  1  0.92260404  0.85392623  0.24068489  1
  H+  H330  1  0.15904636  0.34731145  0.91235691  1
  H+  H331  1  0.11004310  0.41767670  0.73843089  1
  H+  H332  1  0.92339796  0.82955895  0.88331919  1
  H+  H333  1  0.32527011  0.67729341  0.78981942  1
  H+  H334  1  0.09152296  0.70797958  0.14124414  1
  H+  H335  1  0.59040042  0.67669944  0.42860232  1
  H+  H336  1  0.91203596  0.58888721  0.26704591  1
  H+  H337  1  0.66172148  0.08420765  0.56543091  1
  H+  H338  1  0.59374605  0.42946971  0.10119824  1
  H+  H339  1  0.58024166  0.41855707  0.73311253  1
  H+  H340  1  0.79592197  0.43199838  0.73559278  1
  H+  H341  1  0.82072826  0.65141027  0.40575067  1
  H+  H342  1  0.16568159  0.06954600  0.89343428  1
  H+  H343  1  0.91405758  0.31132424  0.24681405  1
  H+  H344  1  0.29546401  0.64088567  0.48158285  1
  H+  H345  1  0.36412759  0.97341794  0.49181178  1
  H+  H346  1  0.09397828  0.42486245  0.09884671  1
  H+  H347  1  0.18567039  0.59469457  0.61154026  1
  H+  H348  1  0.33088253  0.92383270  0.39310280  1
  H+  H349  1  0.86496608  0.37510276  0.65232853  1
  H+  H350  1  0.42517399  0.57372034  0.23071869  1
  H+  H351  1  0.94221727  0.05568030  0.27526776  1
  H+  H352  1  0.66181935  0.84309340  0.27122063  1
  H+  H353  1  0.55804466  0.91869323  0.72976187  1
  H+  H354  1  0.60173847  0.67269405  0.76316905  1
  H+  H355  1  0.08094870  0.17033089  0.08426771  1
  H+  H356  1  0.16879707  0.58068335  0.93508484  1
  H+  H357  1  0.95413567  0.34065281  0.46886016  1
  H+  H358  1  0.12810348  0.88804702  0.00298654  1
  H+  H359  1  0.67630841  0.58751220  0.89766943  1
  H+  H360  1  0.17579550  0.83718744  0.56761222  1
  H+  H361  1  0.82251048  0.91571694  0.40514909  1
  H+  H362  1  0.84896715  0.13707370  0.72039457  1
  H+  H363  1  0.40707449  0.82006289  0.56220115  1
  H+  H364  1  0.15703911  0.78061138  0.83612975  1
  H+  H365  1  0.31067292  0.37263937  0.79174947  1
  H+  H366  1  0.63031666  0.11278710  0.65511771  1
  H+  H367  1  0.65212140  0.33634988  0.93064262  1
  H+  H368  1  0.91681965  0.83105636  0.56856031  1
  H+  H369  1  0.08190098  0.17116417  0.43731393  1
  H+  H370  1  0.36056272  0.88261372  0.48861529  1
  H+  H371  1  0.57952286  0.16729665  0.73151136  1
  H+  H372  1  0.08069696  0.91480267  0.39576402  1
  H+  H373  1  0.90803175  0.57187975  0.87335314  1
  H+  H374  1  0.43588431  0.09384429  0.25964969  1
  H+  H375  1  0.81164810  0.91772091  0.11739208  1
  H+  H376  1  0.92831402  0.60175971  0.57216260  1
  H+  H377  1  0.91954370  0.08672408  0.89711346  1
  H+  H378  1  0.33766173  0.91734809  0.09815678  1
  H+  H379  1  0.58859058  0.17092590  0.40036557  1
  H+  H380  1  0.42671421  0.58656431  0.94023795  1
  H+  H381  1  0.76863434  0.38556948  0.15621077  1
  H+  H382  1  0.39349455  0.38917447  0.00096879  1
  H+  H383  1  0.34109324  0.40546700  0.43295914  1
  O2-  O384  1  0.06505807  0.17402633  0.14170518  1
  O2-  O385  1  0.07912767  0.17325421  0.48299695  1
  O2-  O386  1  0.07018697  0.17857387  0.81840236  1
  O2-  O387  1  0.07712786  0.40799292  0.14437700  1
  O2-  O388  1  0.07231971  0.40014104  0.47797157  1
  O2-  O389  1  0.09976269  0.41261690  0.80136264  1
  O2-  O390  1  0.04921599  0.64289493  0.13749361  1
  O2-  O391  1  0.10232319  0.66774871  0.48628102  1
  O2-  O392  1  0.09022996  0.67411774  0.80762151  1
  O2-  O393  1  0.09374051  0.92480479  0.14151996  1
  O2-  O394  1  0.08188164  0.91340332  0.47978631  1
  O2-  O395  1  0.08156853  0.90675577  0.80947635  1
  O2-  O396  1  0.35329305  0.18023167  0.13270932  1
  O2-  O397  1  0.33851717  0.15811933  0.46949624  1
  O2-  O398  1  0.34593373  0.16585821  0.81705526  1
  O2-  O399  1  0.33202766  0.41931685  0.14502660  1
  O2-  O400  1  0.32947643  0.40519921  0.47732160  1
  O2-  O401  1  0.32535646  0.39151870  0.83356428  1
  O2-  O402  1  0.33425226  0.67088481  0.20121532  1
  O2-  O403  1  0.35112033  0.66536726  0.46023201  1
  O2-  O404  1  0.31704618  0.65557296  0.83217011  1
  O2-  O405  1  0.32219699  0.90847483  0.14201760  1
  O2-  O406  1  0.33016586  0.91341887  0.47561143  1
  O2-  O407  1  0.38000463  0.92640788  0.79983854  1
  O2-  O408  1  0.54839277  0.16271997  0.16209207  1
  O2-  O409  1  0.58124990  0.16399142  0.47509074  1
  O2-  O410  1  0.58628081  0.17636015  0.81020750  1
  O2-  O411  1  0.59320664  0.42659796  0.14712770  1
  O2-  O412  1  0.57061314  0.40677171  0.47451514  1
  O2-  O413  1  0.56975344  0.41938732  0.81159143  1
  O2-  O414  1  0.58610403  0.67454165  0.14909333  1
  O2-  O415  1  0.58237551  0.67107192  0.47359467  1
  O2-  O416  1  0.60663849  0.66934971  0.80786987  1
  O2-  O417  1  0.58005369  0.92963073  0.13942123  1
  O2-  O418  1  0.57931504  0.91778551  0.47948485  1
  O2-  O419  1  0.53489564  0.94822708  0.80785025  1
  O2-  O420  1  0.77479564  0.19422831  0.13928445  1
  O2-  O421  1  0.81530456  0.14927078  0.46683144  1
  O2-  O422  1  0.82555852  0.13502873  0.79559880  1
  O2-  O423  1  0.82651847  0.41877893  0.13747557  1
  O2-  O424  1  0.83064557  0.40683289  0.51583261  1
  O2-  O425  1  0.77766166  0.45400566  0.76944466  1
  O2-  O426  1  0.83885789  0.68585730  0.15012367  1
  O2-  O427  1  0.81606822  0.65799945  0.47891202  1
  O2-  O428  1  0.83527943  0.67101802  0.80746576  1
  O2-  O429  1  0.81034742  0.91693703  0.16197701  1
  O2-  O430  1  0.82112858  0.90933347  0.47735761  1
  O2-  O431  1  0.84144868  0.92022429  0.80601066  1
  O2-  O432  1  0.19279840  0.09640956  0.17333807  1
  O2-  O433  1  0.11336347  0.06500539  0.53667551  1
  O2-  O434  1  0.17038086  0.06594616  0.84884735  1
  O2-  O435  1  0.16949504  0.33141428  0.19000571  1
  O2-  O436  1  0.16508699  0.33363416  0.52271264  1
  O2-  O437  1  0.16396988  0.34135540  0.86640840  1
  O2-  O438  1  0.15144214  0.57714713  0.18361842  1
  O2-  O439  1  0.21960684  0.64223819  0.54007748  1
  O2-  O440  1  0.14757301  0.57234154  0.85326838  1
  O2-  O441  1  0.15265488  0.80348626  0.15429245  1
  O2-  O442  1  0.17065390  0.83240340  0.52252783  1
  O2-  O443  1  0.18721678  0.84164550  0.84929439  1
  O2-  O444  1  0.46695081  0.12751861  0.18227427  1
  O2-  O445  1  0.41691036  0.07835878  0.51687428  1
  O2-  O446  1  0.42956413  0.08351099  0.85756402  1
  O2-  O447  1  0.42000298  0.33961755  0.17518347  1
  O2-  O448  1  0.41064622  0.32170461  0.51570742  1
  O2-  O449  1  0.41566794  0.32520045  0.86616328  1
  O2-  O450  1  0.42155914  0.58107391  0.18648974  1
  O2-  O451  1  0.42290895  0.57570364  0.50435377  1
  O2-  O452  1  0.40765670  0.56799167  0.86539600  1
  O2-  O453  1  0.42674472  0.84462922  0.18770744  1
  O2-  O454  1  0.40878374  0.82393526  0.51682947  1
  O2-  O455  1  0.35056046  0.83669149  0.82165348  1
  O2-  O456  1  0.63482862  0.08612331  0.18098339  1
  O2-  O457  1  0.66221486  0.08471697  0.51883152  1
  O2-  O458  1  0.67365663  0.09346347  0.85168696  1
  O2-  O459  1  0.66387082  0.33611693  0.19011006  1
  O2-  O460  1  0.65295756  0.32632485  0.52109487  1
  O2-  O461  1  0.65469303  0.34085492  0.84857037  1
  O2-  O462  1  0.67266702  0.59634850  0.19167560  1
  O2-  O463  1  0.63987916  0.57385805  0.50956777  1
  O2-  O464  1  0.67654071  0.58419857  0.85250852  1
  O2-  O465  1  0.64492856  0.83592871  0.19550284  1
  O2-  O466  1  0.65976497  0.83279370  0.52103793  1
  O2-  O467  1  0.68660031  0.84100272  0.85739970  1
  O2-  O468  1  0.96731295  0.04018113  0.20904734  1
  O2-  O469  1  0.91741594  0.08679408  0.51119106  1
  O2-  O470  1  0.91637392  0.07860661  0.85257314  1
  O2-  O471  1  0.91592025  0.29803656  0.20389275  1
  O2-  O472  1  0.89397883  0.31830838  0.45589277  1
  O2-  O473  1  0.93446258  0.30302731  0.82919119  1
  O2-  O474  1  0.90753148  0.58458697  0.19585442  1
  O2-  O475  1  0.93048241  0.61040748  0.52619567  1
  O2-  O476  1  0.91728190  0.59030905  0.83103388  1
  O2-  O477  1  0.92802879  0.87347921  0.19601239  1
  O2-  O478  1  0.91217428  0.82765307  0.52376710  1
  O2-  O479  1  0.92247067  0.83533483  0.83842224  1
  O2-  O480  1  0.15352176  0.08557281  0.32372782  1
  O2-  O481  1  0.16742933  0.08437693  0.65341997  1
  O2-  O482  1  0.15414414  0.06841958  0.97566853  1
  O2-  O483  1  0.16267909  0.32803966  0.30995025  1
  O2-  O484  1  0.17903280  0.33790709  0.64372839  1
  O2-  O485  1  0.16188199  0.35727369  0.98360910  1
  O2-  O486  1  0.15141642  0.58456034  0.31225163  1
  O2-  O487  1  0.17404101  0.58193839  0.65592264  1
  O2-  O488  1  0.18577443  0.59456960  0.97812655  1
  O2-  O489  1  0.15400810  0.83270992  0.31451500  1
  O2-  O490  1  0.17906766  0.84168942  0.64936824  1
  O2-  O491  1  0.18972134  0.85664061  0.97540854  1
  O2-  O492  1  0.42356184  0.08628322  0.30415265  1
  O2-  O493  1  0.41693367  0.07796100  0.64066871  1
  O2-  O494  1  0.41855206  0.08176254  0.97445879  1
  O2-  O495  1  0.35384387  0.30494769  0.28810086  1
  O2-  O496  1  0.42708453  0.32364723  0.63751656  1
  O2-  O497  1  0.43071064  0.36439472  0.99202117  1
  O2-  O498  1  0.43356041  0.56850349  0.31374153  1
  O2-  O499  1  0.43401794  0.57552493  0.62124860  1
  O2-  O500  1  0.43139596  0.59599114  0.98548187  1
  O2-  O501  1  0.43347370  0.86384541  0.31292150  1
  O2-  O502  1  0.40132672  0.82367850  0.64200202  1
  O2-  O503  1  0.41055752  0.84319315  0.94344886  1
  O2-  O504  1  0.73329279  0.06718405  0.30201975  1
  O2-  O505  1  0.65729698  0.08116781  0.63740890  1
  O2-  O506  1  0.67917902  0.07927781  0.97266053  1
  O2-  O507  1  0.67756855  0.33913569  0.30962989  1
  O2-  O508  1  0.65835342  0.32981353  0.64372352  1
  O2-  O509  1  0.65111257  0.33665567  0.97584806  1
  O2-  O510  1  0.67869294  0.59441562  0.31194958  1
  O2-  O511  1  0.67508700  0.59406908  0.65559035  1
  O2-  O512  1  0.68216690  0.59334241  0.98063827  1
  O2-  O513  1  0.67007791  0.84502590  0.31664641  1
  O2-  O514  1  0.65019666  0.83786105  0.64591983  1
  O2-  O515  1  0.67511145  0.84471926  0.97994596  1
  O2-  O516  1  0.92547728  0.06211501  0.31872451  1
  O2-  O517  1  0.91925792  0.11365324  0.66226272  1
  O2-  O518  1  0.93747458  0.11059186  0.97979389  1
  O2-  O519  1  0.91833491  0.34820797  0.33361665  1
  O2-  O520  1  0.91857572  0.31919281  0.65569920  1
  O2-  O521  1  0.91827109  0.33993116  1.06333409  1
  O2-  O522  1  0.90828479  0.58399201  0.31382163  1
  O2-  O523  1  0.92717998  0.58648462  0.64446730  1
  O2-  O524  1  0.94639832  0.60446537  1.03454967  1
  O2-  O525  1  0.91573921  0.83418784  0.31020303  1
  O2-  O526  1  0.93844401  0.83326330  0.65585737  1
  O2-  O527  1  0.92754657  0.81785071  0.96183926  1
  O2-  O528  1  0.09120640  0.16922011  0.03223448  1
  O2-  O529  1  0.07639672  0.16157816  0.36180660  1
  O2-  O530  1  0.08974374  0.17221516  0.69281897  1
  O2-  O531  1  0.10569032  0.44395761  0.03091578  1
  O2-  O532  1  0.09000993  0.42167160  0.35352423  1
  O2-  O533  1  0.11306382  0.42239046  0.68944189  1
  O2-  O534  1  0.12494593  0.69865613  0.00523926  1
  O2-  O535  1  0.06663746  0.65830480  0.35879645  1
  O2-  O536  1  0.09078873  0.67463439  0.68739072  1
  O2-  O537  1  0.08798371  0.90838411  0.01892476  1
  O2-  O538  1  0.07758971  0.91540873  0.35095416  1
  O2-  O539  1  0.10465969  0.92375075  0.67539399  1
  O2-  O540  1  0.32736874  0.14875427  0.00888435  1
  O2-  O541  1  0.32891851  0.15801613  0.34110012  1
  O2-  O542  1  0.34134842  0.16381651  0.68819363  1
  O2-  O543  1  0.33088435  0.43438009  0.02434520  1
  O2-  O544  1  0.40070357  0.42341015  0.36431326  1
  O2-  O545  1  0.35159197  0.42022826  0.66853708  1
  O2-  O546  1  0.35816408  0.68777090  0.00317169  1
  O2-  O547  1  0.32468964  0.68966410  0.33990799  1
  O2-  O548  1  0.32941194  0.68590450  0.70903281  1
  O2-  O549  1  0.35273816  0.92299835  0.01820660  1
  O2-  O550  1  0.33001973  0.92236430  0.34797539  1
  O2-  O551  1  0.33779691  0.91759791  0.68610052  1
  O2-  O552  1  0.56760127  0.17224900  0.03049860  1
  O2-  O553  1  0.59038523  0.17505369  0.35427324  1
  O2-  O554  1  0.57716094  0.16481925  0.68606333  1
  O2-  O555  1  0.58974925  0.43441737  0.02560069  1
  O2-  O556  1  0.58783549  0.42288057  0.35405263  1
  O2-  O557  1  0.58886189  0.42011126  0.68798822  1
  O2-  O558  1  0.59258006  0.67221502  0.02442980  1
  O2-  O559  1  0.59876276  0.67773244  0.35000918  1
  O2-  O560  1  0.59664257  0.67742726  0.68236327  1
  O2-  O561  1  0.60346703  0.93803918  0.01841268  1
  O2-  O562  1  0.59558727  0.93154178  0.35727069  1
  O2-  O563  1  0.55975765  0.91138057  0.68536542  1
  O2-  O564  1  0.83316444  0.17148085  0.02480910  1
  O2-  O565  1  0.80542060  0.11739777  0.34321830  1
  O2-  O566  1  0.86369307  0.14974277  0.67601808  1
  O2-  O567  1  0.81956568  0.42839345  0.01803723  1
  O2-  O568  1  0.83090220  0.42264176  0.34192153  1
  O2-  O569  1  0.83899173  0.41149652  0.64153258  1
  O2-  O570  1  0.84285220  0.67445803  0.02721951  1
  O2-  O571  1  0.82245684  0.65005543  0.35955642  1
  O2-  O572  1  0.85068463  0.67439017  0.68747451  1
  O2-  O573  1  0.84897365  0.88881950  0.04076853  1
  O2-  O574  1  0.82666780  0.92038997  0.35870121  1
  O2-  O575  1  0.81702008  0.93954336  0.68807620  1
