# generated using pymatgen
data_H2O
_symmetry_space_group_name_H-M   'P 1'
_cell_length_a   17.99638047
_cell_length_b   17.99397934
_cell_length_c   22.00322618
_cell_angle_alpha   89.99985538
_cell_angle_beta   90.01007420
_cell_angle_gamma   120.00707643
_symmetry_Int_Tables_number   1
_chemical_formula_structural   H2O
_chemical_formula_sum   'H384 O192'
_cell_volume   6170.18800514
_cell_formula_units_Z   192
loop_
 _symmetry_equiv_pos_site_id
 _symmetry_equiv_pos_as_xyz
  1  'x, y, z'
loop_
 _atom_type_symbol
 _atom_type_oxidation_number
  H+  1.0
  O2-  -2.0
loop_
 _atom_site_type_symbol
 _atom_site_label
 _atom_site_symmetry_multiplicity
 _atom_site_fract_x
 _atom_site_fract_y
 _atom_site_fract_z
 _atom_site_occupancy
  H+  H0  1  0.87394783  0.09933785  0.65142256  1
  H+  H1  1  0.89290107  0.26166949  0.31808148  1
  H+  H2  1  1.02848215  0.63802350  0.82647756  1
  H+  H3  1  0.51939204  0.63744882  0.82512667  1
  H+  H4  1  0.71906519  0.35670013  0.84677757  1
  H+  H5  1  0.14046641  0.03149401  0.68437912  1
  H+  H6  1  0.12809573  0.36410853  0.65544047  1
  H+  H7  1  0.48325807  0.85554428  0.00023227  1
  H+  H8  1  0.72686592  0.87016280  0.32529787  1
  H+  H9  1  0.58909262  0.42276310  0.39611515  1
  H+  H10  1  0.10799092  0.22797940  0.49526874  1
  H+  H11  1  0.51951145  0.14341867  0.33658015  1
  H+  H12  1  0.12608820  0.11669875  -0.01113883  1
  H+  H13  1  0.61029843  0.47348070  0.00977012  1
  H+  H14  1  0.93106019  0.63041116  0.17502388  1
  H+  H15  1  0.60934896  0.61383851  0.17392691  1
  H+  H16  1  0.59828344  0.96542468  0.33384214  1
  H+  H17  1  0.36609874  0.16019887  0.66809566  1
  H+  H18  1  0.10984806  0.14501494  0.69571424  1
  H+  H19  1  0.72949923  0.11468855  0.49075521  1
  H+  H20  1  0.52652868  0.13230656  0.48588721  1
  H+  H21  1  0.26599965  0.86734299  0.15252679  1
  H+  H22  1  0.12074758  0.14562924  0.83329939  1
  H+  H23  1  0.30970835  0.33780894  0.70273959  1
  H+  H24  1  0.73400341  0.86784363  0.50438933  1
  H+  H25  1  0.67386531  0.84651013  0.56444279  1
  H+  H26  1  1.01752589  0.63145616  0.49271137  1
  H+  H27  1  0.81429588  0.17570214  0.82673998  1
  H+  H28  1  0.38169717  0.03347389  0.65930998  1
  H+  H29  1  0.38630649  0.48354524  0.66154985  1
  H+  H30  1  0.09289745  0.18365411  0.77505628  1
  H+  H31  1  0.85500659  0.74110927  0.16827753  1
  H+  H32  1  0.26819958  0.62759549  0.16675036  1
  H+  H33  1  0.57864130  0.17063809  0.77771306  1
  H+  H34  1  0.85978953  0.46429360  0.00680381  1
  H+  H35  1  0.61745810  0.59936399  0.00500120  1
  H+  H36  1  0.37268787  0.09656608  0.17806232  1
  H+  H37  1  0.61308884  0.88802360  0.67061722  1
  H+  H38  1  0.88527041  0.10077871  0.27783326  1
  H+  H39  1  0.36386421  0.39098137  0.48790477  1
  H+  H40  1  0.88652414  0.51302808  0.32181921  1
  H+  H41  1  0.66013323  0.06986629  0.94606272  1
  H+  H42  1  0.70919008  0.60656439  1.00187009  1
  H+  H43  1  0.88807214  0.61095204  0.84413318  1
  H+  H44  1  0.16407689  0.83289514  0.89272848  1
  H+  H45  1  0.57109514  0.07114090  0.15479433  1
  H+  H46  1  0.22927411  0.36650570  0.32168354  1
  H+  H47  1  0.22496623  0.12444193  0.68417155  1
  H+  H48  1  0.72542414  0.85987210  0.99321534  1
  H+  H49  1  0.62788879  0.10048970  0.31854021  1
  H+  H50  1  0.91417330  0.68875748  0.04041753  1
  H+  H51  1  0.54249830  0.39701013  0.66802013  1
  H+  H52  1  0.86381887  0.13205230  0.00694062  1
  H+  H53  1  0.48419404  0.37257412  0.32634976  1
  H+  H54  1  0.02541578  0.37157265  0.15935235  1
  H+  H55  1  0.28113263  0.63609266  0.82826057  1
  H+  H56  1  0.39000767  0.62438893  0.83562253  1
  H+  H57  1  0.70276094  0.62404694  0.16839376  1
  H+  H58  1  0.85586277  0.38963610  0.83109391  1
  H+  H59  1  0.11107258  0.47091332  0.34012651  1
  H+  H60  1  0.61152564  0.73358102  0.50605696  1
  H+  H61  1  0.13179730  0.60229331  0.99035659  1
  H+  H62  1  0.02412710  0.37898906  0.33739805  1
  H+  H63  1  0.63108186  0.76981895  0.65687572  1
  H+  H64  1  0.89144758  0.86179086  0.82485788  1
  H+  H65  1  0.64453248  0.61250602  0.66126985  1
  H+  H66  1  0.97415399  0.35973095  0.50104705  1
  H+  H67  1  0.86100432  0.72738406  0.48867459  1
  H+  H68  1  0.77478597  0.13964949  0.66520220  1
  H+  H69  1  0.76050955  0.87682671  0.16680892  1
  H+  H70  1  0.27423995  0.88816017  0.67715020  1
  H+  H71  1  0.60948244  0.22170078  0.84013638  1
  H+  H72  1  0.34907739  0.95770671  0.16007906  1
  H+  H73  1  0.88765441  0.27187698  0.65367086  1
  H+  H74  1  0.14107480  0.36997842  0.99641194  1
  H+  H75  1  0.36278309  0.38515330  0.16013201  1
  H+  H76  1  0.14643740  0.28017418  0.84703626  1
  H+  H77  1  0.48352263  0.37027483  0.49489270  1
  H+  H78  1  0.92950377  0.33022089  0.22916497  1
  H+  H79  1  0.85967933  0.47212303  0.48791041  1
  H+  H80  1  0.85999763  0.01765976  0.19368282  1
  H+  H81  1  0.14930836  0.04421892  0.46964493  1
  H+  H82  1  0.77462429  0.37757529  0.33809821  1
  H+  H83  1  0.88570716  0.35739207  1.00705974  1
  H+  H84  1  0.47317187  0.84983820  0.32119666  1
  H+  H85  1  0.10768182  0.23183953  0.68318012  1
  H+  H86  1  0.50947144  0.86102397  0.82387290  1
  H+  H87  1  0.11923626  -0.00415413  0.17183263  1
  H+  H88  1  0.38206804  0.60527405  0.32830245  1
  H+  H89  1  0.23102623  0.84274110  0.32233677  1
  H+  H90  1  0.85563535  0.10317468  0.18386909  1
  H+  H91  1  0.47395314  0.60976289  0.32153780  1
  H+  H92  1  0.64592704  0.37083018  0.65555063  1
  H+  H93  1  0.64086729  0.52529237  0.82169462  1
  H+  H94  1  0.63910679  0.02788573  0.49494337  1
  H+  H95  1  0.28002987  0.39232132  0.84071454  1
  H+  H96  1  0.12044301  0.22801672  0.14985497  1
  H+  H97  1  0.27960442  0.72039787  0.71583923  1
  H+  H98  1  0.60403017  0.23404377  0.16996997  1
  H+  H99  1  0.40293867  0.30389055  0.65351627  1
  H+  H100  1  0.76789891  0.63342169  0.83613244  1
  H+  H101  1  0.45189197  1.07715134  0.17253143  1
  H+  H102  1  0.86252661  0.62985747  0.32813758  1
  H+  H103  1  0.01190322  0.86483466  0.16466858  1
  H+  H104  1  0.26934015  0.15373103  0.47295184  1
  H+  H105  1  0.91277696  0.32810281  0.55902220  1
  H+  H106  1  0.70305111  0.09359561  0.17214349  1
  H+  H107  1  0.33325288  0.66312057  0.40230994  1
  H+  H108  1  0.38263216  0.52340097  0.98575597  1
  H+  H109  1  0.41642165  1.08333789  0.26791449  1
  H+  H110  1  0.21397714  0.36120116  0.66632616  1
  H+  H111  1  0.22923340  0.36647235  0.99567354  1
  H+  H112  1  0.86495459  0.22207437  1.01022850  1
  H+  H113  1  0.22311599  0.60598506  0.33405748  1
  H+  H114  1  0.39015213  0.78831130  0.66649602  1
  H+  H115  1  0.36452090  0.38868872  0.00672089  1
  H+  H116  1  0.85173978  0.96660518  0.66971891  1
  H+  H117  1  0.22994533  0.11992898  0.83820284  1
  H+  H118  1  0.61201941  0.96195835  0.01721164  1
  H+  H119  1  0.85331786  0.95640613  0.84333881  1
  H+  H120  1  0.26412972  0.88050013  0.49943657  1
  H+  H121  1  0.83137719  0.67646304  0.89224452  1
  H+  H122  1  0.11736959  0.48002562  1.00882462  1
  H+  H123  1  0.13823281  0.36514832  0.50537668  1
  H+  H124  1  0.39555318  0.12298858  0.32820345  1
  H+  H125  1  0.42236062  0.53488549  0.59868619  1
  H+  H126  1  0.12287714  0.37140385  0.15874054  1
  H+  H127  1  0.86816918  0.58826863  0.98472088  1
  H+  H128  1  0.01705100  0.62102860  0.00216693  1
  H+  H129  1  0.96516767  0.85536291  0.50605728  1
  H+  H130  1  0.13283566  0.60470774  0.33507398  1
  H+  H131  1  0.36259667  0.98369279  0.82812146  1
  H+  H132  1  0.37009935  0.24644845  0.48832912  1
  H+  H133  1  0.11892150  0.63778013  0.67277393  1
  H+  H134  1  0.72105919  0.85666327  0.66192499  1
  H+  H135  1  -0.01943777  0.95272464  0.32757151  1
  H+  H136  1  0.14029579  0.12986840  0.47390895  1
  H+  H137  1  0.86269685  0.12809875  0.48157416  1
  H+  H138  1  0.89285549  0.78813693  1.00816283  1
  H+  H139  1  0.09522524  0.94978524  0.53556561  1
  H+  H140  1  0.36904021  0.59999775  0.17437971  1
  H+  H141  1  0.12384454  0.15182383  0.34705690  1
  H+  H142  1  0.63833885  0.61359523  0.81826322  1
  H+  H143  1  0.88089680  0.61236418  0.49936525  1
  H+  H144  1  0.64635914  0.03034550  0.65340895  1
  H+  H145  1  0.03108283  0.34003321  0.79911322  1
  H+  H146  1  0.38496269  0.84972655  0.31481611  1
  H+  H147  1  0.26054374  0.12778893  0.16447785  1
  H+  H148  1  0.62523306  -0.00866036  0.16880965  1
  H+  H149  1  0.72591807  0.36109122  0.50177517  1
  H+  H150  1  0.06551632  0.68911132  0.17813381  1
  H+  H151  1  0.59570391  0.72347116  0.16562978  1
  H+  H152  1  0.53237065  0.87588527  0.15682968  1
  H+  H153  1  0.63395924  0.85335612  0.83960357  1
  H+  H154  1  0.47223936  0.10673013  0.84098645  1
  H+  H155  1  0.23270715  0.36393902  0.16970800  1
  H+  H156  1  0.60758147  0.48406995  0.16027462  1
  H+  H157  1  0.68921422  0.07593440  0.84406621  1
  H+  H158  1  0.85845028  0.97538843  0.01665374  1
  H+  H159  1  0.38106155  0.98964408  0.34113721  1
  H+  H160  1  0.48016921  0.36437333  0.84226192  1
  H+  H161  1  0.11083823  0.47397212  0.49012219  1
  H+  H162  1  0.31969385  0.40525802  0.75242402  1
  H+  H163  1  0.67264417  0.58289947  0.56552324  1
  H+  H164  1  0.88096825  0.35686524  0.65877435  1
  H+  H165  1  0.42554022  0.11036591  1.00566084  1
  H+  H166  1  0.72613296  0.61388017  0.50328447  1
  H+  H167  1  0.61869643  0.89326178  0.49095157  1
  H+  H168  1  0.99584558  0.12987636  0.83254497  1
  H+  H169  1  0.35935450  0.71642375  0.33940028  1
  H+  H170  1  0.26615482  0.88556298  0.82777656  1
  H+  H171  1  0.46690894  0.12401940  0.66220219  1
  H+  H172  1  0.89978007  0.49021121  0.16032239  1
  H+  H173  1  0.88741966  0.86272840  0.65974444  1
  H+  H174  1  0.97425591  0.60295065  0.32926739  1
  H+  H175  1  0.13276206  0.51900195  0.83850933  1
  H+  H176  1  0.54060720  0.13183150  -0.00111258  1
  H+  H177  1  0.14599958  0.77235166  0.83440599  1
  H+  H178  1  0.15237690  0.90370973  0.34288759  1
  H+  H179  1  0.12139055  0.83632049  0.17121971  1
  H+  H180  1  0.11683588  0.23524709  0.33974651  1
  H+  H181  1  0.61789709  0.47776653  0.33378842  1
  H+  H182  1  0.61128314  0.38109686  0.83018073  1
  H+  H183  1  0.01273822  0.93765021  0.32965229  1
  H+  H184  1  0.16411627  0.65341154  0.18623226  1
  H+  H185  1  0.08984426  0.40919577  0.09613305  1
  H+  H186  1  0.88448706  0.52058565  0.83415289  1
  H+  H187  1  0.86158888  0.38312334  0.48996142  1
  H+  H188  1  0.76211899  0.87380297  0.83155752  1
  H+  H189  1  0.81809126  0.63610156  0.17510508  1
  H+  H190  1  0.38517515  0.84877601  0.16383894  1
  H+  H191  1  0.89610653  0.16531683  0.82100577  1
  H+  H192  1  0.10087025  0.71113674  0.00254518  1
  H+  H193  1  0.14006863  0.77325284  0.66532478  1
  H+  H194  1  1.02743577  0.38914414  1.01288865  1
  H+  H195  1  0.52747880  0.88948852  0.49284932  1
  H+  H196  1  0.96960000  0.10322773  0.49886401  1
  H+  H197  1  0.63950407  0.27218784  1.00144776  1
  H+  H198  1  0.38899242  0.53382790  0.83960189  1
  H+  H199  1  0.89071801  0.87537516  1.01088738  1
  H+  H200  1  0.29406890  0.15537176  0.34102909  1
  H+  H201  1  0.86765410  0.73139348  0.67195747  1
  H+  H202  1  0.72975006  0.10504133  0.00044063  1
  H+  H203  1  0.88370603  0.84596112  0.27099124  1
  H+  H204  1  0.16617329  0.81603688  0.26703843  1
  H+  H205  1  0.25262519  0.14117089  0.00824291  1
  H+  H206  1  0.90666116  0.36896900  0.17116968  1
  H+  H207  1  0.36178474  0.63561577  0.50038378  1
  H+  H208  1  0.12278257  0.38145102  0.82689338  1
  H+  H209  1  0.17337598  0.04695787  0.33268537  1
  H+  H210  1  0.61997379  0.13810392  0.47974560  1
  H+  H211  1  0.38471066  0.86248247  0.50750419  1
  H+  H212  1  0.85065436  0.99758589  0.34312985  1
  H+  H213  1  0.13915582  0.86264257  0.66233905  1
  H+  H214  1  0.37003783  0.39255330  0.83771141  1
  H+  H215  1  0.72391633  0.60891137  0.31691656  1
  H+  H216  1  0.63370757  0.86120331  0.32541863  1
  H+  H217  1  0.77078720  0.37802028  0.01536424  1
  H+  H218  1  0.10866967  0.23079645  0.99675306  1
  H+  H219  1  0.73569398  0.61644941  0.66030417  1
  H+  H220  1  0.63640996  0.27357899  0.50037847  1
  H+  H221  1  0.12996946  0.76518657  0.51078061  1
  H+  H222  1  0.60608555  0.63372510  0.32772973  1
  H+  H223  1  0.11378395  -0.01967505  1.01336823  1
  H+  H224  1  0.91091887  0.06330377  0.79810085  1
  H+  H225  1  0.22535519  0.61278844  0.50254279  1
  H+  H226  1  0.58985106  0.95309484  0.83006077  1
  H+  H227  1  0.36946313  0.23378013  0.82995642  1
  H+  H228  1  0.86606219  0.21909963  0.48011205  1
  H+  H229  1  0.38032578  0.88942212  0.00176456  1
  H+  H230  1  0.76902992  0.37986261  0.67193574  1
  H+  H231  1  0.27348594  0.38847770  0.49090613  1
  H+  H232  1  0.60256662  0.24401922  0.67938537  1
  H+  H233  1  0.48011170  0.36350453  0.99935671  1
  H+  H234  1  0.56571803  0.23907217  0.16403317  1
  H+  H235  1  0.07906446  0.17705068  0.43133201  1
  H+  H236  1  0.36344532  0.72554538  0.49720787  1
  H+  H237  1  0.38621455  0.52623883  0.50477671  1
  H+  H238  1  0.48232028  0.87485765  0.66161914  1
  H+  H239  1  0.61733874  0.48123741  0.49209190  1
  H+  H240  1  0.52870786  0.38844315  0.16289564  1
  H+  H241  1  0.39190961  0.36918269  0.32710622  1
  H+  H242  1  1.01759933  0.38845828  0.66765867  1
  H+  H243  1  0.33363722  0.41833704  0.06536484  1
  H+  H244  1  0.34220695  0.91682709  0.05776817  1
  H+  H245  1  0.90642967  0.29937494  0.84586474  1
  H+  H246  1  0.88671010  0.34819142  0.32263231  1
  H+  H247  1  0.36532967  0.14268163  0.82522259  1
  H+  H248  1  0.39582400  1.02234617  0.50561886  1
  H+  H249  1  0.96905553  0.51980768  0.61302875  1
  H+  H250  1  0.43209931  0.40499806  0.63719647  1
  H+  H251  1  0.52740079  0.61106031  0.66927382  1
  H+  H252  1  0.10778009  0.71500444  0.34173123  1
  H+  H253  1  0.36371791  0.47571904  0.33589815  1
  H+  H254  1  0.12140144  0.89353102  0.82123726  1
  H+  H255  1  0.62825313  0.13678330  0.01299635  1
  H+  H256  1  0.79420296  0.83892706  0.44409484  1
  H+  H257  1  0.85249989  0.88109745  0.16909966  1
  H+  H258  1  0.87231272  0.85562884  0.50107259  1
  H+  H259  1  0.97529258  0.11342309  0.98730434  1
  H+  H260  1  0.89802424  0.77722101  0.83085754  1
  H+  H261  1  0.35422994  0.72093267  -0.00177476  1
  H+  H262  1  0.66423670  0.39949300  0.18342730  1
  H+  H263  1  0.88315401  0.01244027  0.49344894  1
  H+  H264  1  0.61514887  0.09855635  0.84803230  1
  H+  H265  1  0.66718662  0.83003692  0.90169689  1
  H+  H266  1  0.50257543  0.63243888  0.16818992  1
  H+  H267  1  0.61597163  0.39082427  0.49039175  1
  H+  H268  1  0.37951685  0.74876557  0.83707404  1
  H+  H269  1  0.13938152  0.36590340  0.32231249  1
  H+  H270  1  0.85396051  0.22174453  0.15997316  1
  H+  H271  1  0.14254744  0.03008854  0.83612360  1
  H+  H272  1  0.02616398  0.88636786  0.66868054  1
  H+  H273  1  0.61011404  0.64395174  0.50642616  1
  H+  H274  1  0.61525045  0.24056554  0.33659229  1
  H+  H275  1  0.47360613  0.61547655  0.51741151  1
  H+  H276  1  0.11451577  0.13744950  0.14212567  1
  H+  H277  1  0.63700846  0.36121430  1.00179689  1
  H+  H278  1  0.33131624  0.12893857  0.00295696  1
  H+  H279  1  0.38716988  0.27724678  0.99781960  1
  H+  H280  1  0.63586180  0.85716645  -0.00641492  1
  H+  H281  1  0.60851779  0.72358308  0.32755406  1
  H+  H282  1  0.42915338  0.08854446  0.56004337  1
  H+  H283  1  0.98264272  0.39358764  0.85576013  1
  H+  H284  1  0.13711525  0.52486795  0.65587768  1
  H+  H285  1  0.07956002  0.17096757  0.05590964  1
  H+  H286  1  0.11049446  0.85793475  0.98666096  1
  H+  H287  1  0.75437879  0.39951440  0.18570941  1
  H+  H288  1  0.55008005  0.11445027  0.09876433  1
  H+  H289  1  0.11552550  0.63430212  0.82859295  1
  H+  H290  1  0.85094513  0.42475045  0.10552001  1
  H+  H291  1  0.82788513  0.91099230  0.73195935  1
  H+  H292  1  0.08642216  0.66410852  0.73336589  1
  H+  H293  1  0.42313563  0.33582331  0.90372709  1
  H+  H294  1  0.16298652  0.08575081  0.93356814  1
  H+  H295  1  0.07678196  0.65966718  0.40291140  1
  H+  H296  1  0.41172381  0.07505425  0.89914874  1
  H+  H297  1  0.66758597  0.33136154  0.59645191  1
  H+  H298  1  0.83620034  0.40875977  0.39516608  1
  H+  H299  1  0.41435465  0.81864309  0.22280297  1
  H+  H300  1  0.22469302  0.60678768  0.98628900  1
  H+  H301  1  0.61166110  0.72248968  0.82584550  1
  H+  H302  1  0.03193629  0.89319316  0.81787453  1
  H+  H303  1  0.82155276  0.40900279  0.76895535  1
  H+  H304  1  0.07474605  0.89935285  0.10473271  1
  H+  H305  1  0.67524551  0.34392568  0.27207164  1
  H+  H306  1  0.42834078  0.34192352  0.55586871  1
  H+  H307  1  0.56367349  0.65089504  0.07371714  1
  H+  H308  1  0.64519411  0.05858782  0.25993158  1
  H+  H309  1  0.58312254  0.91628192  0.73017186  1
  H+  H310  1  0.51211259  0.62600125  1.01064622  1
  H+  H311  1  0.35106365  0.18662131  0.42470835  1
  H+  H312  1  0.33175468  0.41562534  0.39506455  1
  H+  H313  1  0.36821497  0.89581652  0.67767667  1
  H+  H314  1  0.83558107  0.67304057  0.73036204  1
  H+  H315  1  0.83289313  0.67126083  0.07600851  1
  H+  H316  1  0.91853882  0.33618701  0.94640739  1
  H+  H317  1  0.58224060  0.17162294  0.40313087  1
  H+  H318  1  0.36016348  0.47403061  0.16195277  1
  H+  H319  1  0.17032260  0.33367174  0.22941039  1
  H+  H320  1  0.86227691  0.71541730  0.31185664  1
  H+  H321  1  0.84401857  0.15174921  0.38445023  1
  H+  H322  1  0.66113970  0.82928162  0.23055099  1
  H+  H323  1  0.94320560  0.59142396  0.23659531  1
  H+  H324  1  0.32682634  0.67715333  0.75162060  1
  H+  H325  1  0.41911891  0.83911492  0.56679652  1
  H+  H326  1  0.11549701  0.88367763  0.50517351  1
  H+  H327  1  0.42768387  0.82787830  0.93761519  1
  H+  H328  1  0.16379091  0.07993501  0.57943289  1
  H+  H329  1  0.58693045  0.90266447  0.07784172  1
  H+  H330  1  0.08624546  0.91454646  0.72819568  1
  H+  H331  1  0.22498894  0.61661443  0.66173158  1
  H+  H332  1  0.05065561  0.78028445  0.94597687  1
  H+  H333  1  0.39684335  0.00921418  0.99280239  1
  H+  H334  1  0.58689625  0.41100940  0.76776977  1
  H+  H335  1  0.66278588  0.32929143  0.90829216  1
  H+  H336  1  0.08321883  0.41965428  0.72481281  1
  H+  H337  1  0.57400714  0.90850776  0.39522513  1
  H+  H338  1  0.90815436  0.56671003  0.92662113  1
  H+  H339  1  0.91344289  0.83179202  0.59892170  1
  H+  H340  1  0.58394303  0.41442078  0.06952419  1
  H+  H341  1  0.84040939  0.17476244  0.72297688  1
  H+  H342  1  0.09036278  0.04955933  0.21045407  1
  H+  H343  1  0.19188396  0.10118713  0.27220379  1
  H+  H344  1  0.15839864  0.57258185  0.90060331  1
  H+  H345  1  0.38332942  0.84220801  0.84359795  1
  H+  H346  1  0.63074070  0.48432140  0.67456853  1
  H+  H347  1  0.34744756  0.19257688  0.73059920  1
  H+  H348  1  0.16390120  0.82470151  0.57127899  1
  H+  H349  1  0.91169885  0.57783525  0.55713967  1
  H+  H350  1  0.90968354  0.07525942  0.93188198  1
  H+  H351  1  0.82305914  0.16016055  0.10238304  1
  H+  H352  1  0.16828951  0.59478465  0.23849816  1
  H+  H353  1  0.32188321  0.91315723  0.43939621  1
  H+  H354  1  0.08170753  0.41145144  0.43207423  1
  H+  H355  1  0.36075652  0.70922309  0.15745183  1
  H+  H356  1  0.17219132  0.34326389  0.90521444  1
  H+  H357  1  0.52833375  0.23136159  0.72198977  1
  H+  H358  1  0.82701758  0.91756837  0.07754114  1
  H+  H359  1  0.89606347  0.06171863  0.59321725  1
  H+  H360  1  0.98982187  0.59770429  0.65450991  1
  H+  H361  1  0.57865975  0.65896884  0.72985293  1
  H+  H362  1  0.86279004  0.46369394  0.67357431  1
  H+  H363  1  0.11536272  0.05546976  0.57883372  1
  H+  H364  1  0.02164510  0.89464237  0.01593569  1
  H+  H365  1  0.67653994  0.08832739  0.59391440  1
  H+  H366  1  0.12013323  0.93341294  0.39980649  1
  H+  H367  1  0.38417755  0.24406792  0.33925826  1
  H+  H368  1  0.16647779  0.58249574  0.56166652  1
  H+  H369  1  0.33068546  0.92132576  0.76241030  1
  H+  H370  1  0.63598379  0.36233049  0.33186471  1
  H+  H371  1  0.31739731  0.15765785  0.10518223  1
  H+  H372  1  0.41827436  0.33340347  0.23279808  1
  H+  H373  1  0.35431093  0.63241106  -0.00591504  1
  H+  H374  1  0.83862166  0.93083871  0.39390187  1
  H+  H375  1  0.41743799  0.58895243  0.92900119  1
  H+  H376  1  0.38469716  0.27036878  0.17551352  1
  H+  H377  1  0.40231455  0.56959436  0.23403170  1
  H+  H378  1  0.16822119  0.33649967  0.56521635  1
  H+  H379  1  0.83337436  0.67053347  0.42729888  1
  H+  H380  1  0.63172950  0.86179954  0.16868367  1
  H+  H381  1  0.10800440  0.63164113  0.49419467  1
  H+  H382  1  0.65740044  0.57936290  0.26075395  1
  H+  H383  1  0.41722227  0.94188100  0.37909145  1
  O2-  O384  1  0.08973240  0.17212595  0.12824810  1
  O2-  O385  1  0.07710649  0.16908636  0.47744638  1
  O2-  O386  1  0.09297245  0.18029152  0.82254425  1
  O2-  O387  1  0.08741621  0.39988106  0.14263221  1
  O2-  O388  1  0.08023769  0.41232252  0.47775746  1
  O2-  O389  1  0.08073836  0.39668460  0.80656406  1
  O2-  O390  1  0.12357820  0.72720860  0.16006289  1
  O2-  O391  1  0.07934061  0.66429022  0.48020838  1
  O2-  O392  1  0.08934594  0.66864619  0.81224773  1
  O2-  O393  1  0.07404227  0.89322405  0.15015327  1
  O2-  O394  1  0.08978986  0.92134920  0.49664349  1
  O2-  O395  1  0.09509863  0.92667815  0.80614107  1
  O2-  O396  1  0.32036330  0.15693857  0.15036109  1
  O2-  O397  1  0.33802356  0.18491679  0.47070052  1
  O2-  O398  1  0.33853519  0.17559390  0.81003695  1
  O2-  O399  1  0.33061263  0.41302174  0.14454471  1
  O2-  O400  1  0.33275595  0.42019810  0.47326671  1
  O2-  O401  1  0.33915797  0.42241174  0.82270911  1
  O2-  O402  1  0.32694252  0.64619796  0.15068191  1
  O2-  O403  1  0.33217693  0.66512416  0.48213343  1
  O2-  O404  1  0.33888384  0.66759963  0.81034671  1
  O2-  O405  1  0.32603188  0.90172371  0.13885595  1
  O2-  O406  1  0.32479083  0.91169132  0.48409896  1
  O2-  O407  1  0.32954949  0.92147969  0.81042141  1
  O2-  O408  1  0.52416958  0.07719569  0.13440055  1
  O2-  O409  1  0.58608083  0.16659642  0.46590434  1
  O2-  O410  1  0.57849400  0.16168337  0.82243830  1
  O2-  O411  1  0.58862770  0.42334739  0.14783364  1
  O2-  O412  1  0.58639900  0.42123039  0.47453562  1
  O2-  O413  1  0.58111711  0.41010178  0.81295658  1
  O2-  O414  1  0.56331298  0.66137772  0.15259961  1
  O2-  O415  1  0.57440050  0.67068820  0.50020775  1
  O2-  O416  1  0.57923679  0.66376430  0.80779003  1
  O2-  O417  1  0.59315598  0.90760711  0.14435807  1
  O2-  O418  1  0.58582027  0.92092557  0.47466704  1
  O2-  O419  1  0.57079131  0.89801745  0.80902760  1
  O2-  O420  1  0.81652339  0.16140672  0.14722131  1
  O2-  O421  1  0.83575562  0.16006010  0.46300226  1
  O2-  O422  1  0.87153205  0.20345870  0.80903824  1
  O2-  O423  1  0.86054432  0.42901773  0.15052062  1
  O2-  O424  1  0.82924645  0.41110382  0.47395780  1
  O2-  O425  1  0.82152672  0.41432462  0.81443494  1
  O2-  O426  1  0.81298279  0.67683403  0.14880585  1
  O2-  O427  1  0.83241049  0.66652336  0.47213780  1
  O2-  O428  1  0.83255824  0.66474433  0.84911405  1
  O2-  O429  1  0.82365572  0.91266345  0.15492467  1
  O2-  O430  1  0.82424930  0.88702258  0.47219331  1
  O2-  O431  1  0.82458405  0.90699291  0.81635774  1
  O2-  O432  1  0.13984263  0.05619768  0.18755364  1
  O2-  O433  1  0.18021860  0.10666890  0.46433937  1
  O2-  O434  1  0.17040326  0.08883095  0.85467750  1
  O2-  O435  1  0.17028002  0.33237601  0.18334979  1
  O2-  O436  1  0.17000979  0.33605589  0.51977344  1
  O2-  O437  1  0.17515830  0.34265137  0.85925123  1
  O2-  O438  1  0.17109648  0.60342862  0.19386215  1
  O2-  O439  1  0.16383919  0.58155775  0.51629746  1
  O2-  O440  1  0.15873930  0.57743047  0.85451469  1
  O2-  O441  1  0.15625590  0.81139114  0.18943627  1
  O2-  O442  1  0.16128590  0.82605871  0.52579534  1
  O2-  O443  1  0.17752835  0.83430751  0.84823476  1
  O2-  O444  1  0.39719944  0.06316565  0.19633535  1
  O2-  O445  1  0.43531458  0.08338822  0.51577131  1
  O2-  O446  1  0.41001583  0.07499129  0.85337737  1
  O2-  O447  1  0.41733795  0.33175540  0.18734264  1
  O2-  O448  1  0.42243614  0.33920019  0.51040576  1
  O2-  O449  1  0.41974971  0.33484476  0.85816901  1
  O2-  O450  1  0.40164518  0.56843434  0.18857627  1
  O2-  O451  1  0.41078707  0.57968813  0.52946198  1
  O2-  O452  1  0.42145416  0.59456568  0.85292120  1
  O2-  O453  1  0.41496316  0.81806434  0.17774770  1
  O2-  O454  1  0.41773103  0.83479906  0.52156545  1
  O2-  O455  1  0.41468229  0.81356770  0.85607108  1
  O2-  O456  1  0.64427100  0.05421318  0.18680518  1
  O2-  O457  1  0.66990097  0.09001025  0.50711521  1
  O2-  O458  1  0.63581869  0.05998547  0.86504422  1
  O2-  O459  1  0.70285430  0.38798555  0.20908059  1
  O2-  O460  1  0.66545988  0.33259149  0.51756068  1
  O2-  O461  1  0.65899241  0.32442003  0.86263767  1
  O2-  O462  1  0.64492716  0.58543096  0.18558947  1
  O2-  O463  1  0.66695076  0.58122406  0.52023877  1
  O2-  O464  1  0.67660105  0.58818272  0.81648278  1
  O2-  O465  1  0.66045801  0.82565926  0.18535207  1
  O2-  O466  1  0.67297649  0.84729162  0.51926867  1
  O2-  O467  1  0.66687725  0.82622498  0.85471536  1
  O2-  O468  1  0.88225127  0.07676403  0.20910253  1
  O2-  O469  1  0.90735820  0.07091830  0.51018607  1
  O2-  O470  1  0.92930067  0.09820618  0.83504283  1
  O2-  O471  1  0.93264627  0.33316192  0.18348309  1
  O2-  O472  1  0.91230805  0.32820140  0.51372983  1
  O2-  O473  1  0.92208141  0.35496013  0.86631903  1
  O2-  O474  1  0.96122197  0.60298915  0.19217341  1
  O2-  O475  1  0.91023036  0.57965870  0.51220484  1
  O2-  O476  1  0.92047776  0.57978304  0.85129478  1
  O2-  O477  1  0.91079921  0.82297379  0.18962763  1
  O2-  O478  1  0.90564190  0.82401120  0.52085031  1
  O2-  O479  1  0.93213181  0.84049695  0.83098402  1
  O2-  O480  1  0.19461848  0.10658347  0.31663330  1
  O2-  O481  1  0.16424915  0.09224330  0.69619284  1
  O2-  O482  1  0.15929596  0.08673310  0.97895609  1
  O2-  O483  1  0.16963127  0.33675444  0.30464727  1
  O2-  O484  1  0.15867818  0.33277758  0.64375212  1
  O2-  O485  1  0.16878986  0.33826763  0.97916047  1
  O2-  O486  1  0.16254319  0.57478688  0.31868131  1
  O2-  O487  1  0.16717098  0.58572571  0.64127284  1
  O2-  O488  1  0.15988326  0.56988232  0.97496095  1
  O2-  O489  1  0.17056500  0.82044071  0.31242985  1
  O2-  O490  1  0.17257710  0.83358470  0.64977317  1
  O2-  O491  1  0.10999006  0.81158691  0.96012964  1
  O2-  O492  1  0.42465050  0.09068007  0.31399738  1
  O2-  O493  1  0.40987853  0.09213325  0.64207898  1
  O2-  O494  1  0.42890831  0.07382202  0.97447486  1
  O2-  O495  1  0.42316878  0.33933940  0.31183624  1
  O2-  O496  1  0.44393983  0.35715530  0.63106526  1
  O2-  O497  1  0.42018192  0.33647531  0.98176423  1
  O2-  O498  1  0.41007700  0.57415397  0.31121406  1
  O2-  O499  1  0.43778805  0.51273309  0.63559494  1
  O2-  O500  1  0.41292155  0.58493829  0.97450373  1
  O2-  O501  1  0.41259266  0.81627717  0.30408022  1
  O2-  O502  1  0.42032644  0.84732729  0.64845716  1
  O2-  O503  1  0.42375847  0.83180347  0.98243129  1
  O2-  O504  1  0.64470514  0.05905682  0.30605871  1
  O2-  O505  1  0.67962731  0.09050965  0.63882739  1
  O2-  O506  1  0.66686089  0.07473879  0.99068988  1
  O2-  O507  1  0.66316349  0.32797699  0.31733274  1
  O2-  O508  1  0.66972923  0.33327379  0.64199295  1
  O2-  O509  1  0.66939544  0.33285846  0.98606872  1
  O2-  O510  1  0.66195497  0.57571608  0.30615006  1
  O2-  O511  1  0.67460463  0.58217556  0.64549678  1
  O2-  O512  1  0.65034992  0.57056194  0.98839253  1
  O2-  O513  1  0.66663678  0.83404513  0.31020563  1
  O2-  O514  1  0.66143959  0.83147884  0.64518219  1
  O2-  O515  1  0.67078360  0.83726620  0.97080923  1
  O2-  O516  1  0.89458533  0.11172361  0.32415262  1
  O2-  O517  1  0.89215796  0.05840555  0.63812680  1
  O2-  O518  1  0.91243165  0.07913429  0.97624515  1
  O2-  O519  1  0.92142840  0.32361548  0.30607870  1
  O2-  O520  1  0.91654378  0.33406616  0.64067361  1
  O2-  O521  1  0.91953885  0.33063380  0.99121715  1
  O2-  O522  1  0.91686570  0.57440123  0.30834071  1
  O2-  O523  1  0.94200157  0.55038574  0.63036718  1
  O2-  O524  1  0.90298399  0.56266815  0.97232715  1
  O2-  O525  1  0.90613899  0.80924269  0.25693444  1
  O2-  O526  1  0.92024190  0.83517089  0.64436865  1
  O2-  O527  1  0.92547573  0.84895862  0.99638656  1
  O2-  O528  1  0.07618005  0.16926390  0.00975419  1
  O2-  O529  1  0.08975364  0.17805025  0.35976198  1
  O2-  O530  1  0.08138245  0.17849766  0.70777434  1
  O2-  O531  1  0.08856203  0.41910153  0.02676287  1
  O2-  O532  1  0.08353415  0.40971947  0.35451313  1
  O2-  O533  1  0.08001104  0.42061263  0.67994921  1
  O2-  O534  1  0.07724957  0.65135815  0.01592780  1
  O2-  O535  1  0.07533010  0.65516098  0.35741454  1
  O2-  O536  1  0.08631093  0.66611925  0.68784746  1
  O2-  O537  1  0.08495166  0.91993607  0.02798929  1
  O2-  O538  1  0.15518778  0.95419331  0.36316586  1
  O2-  O539  1  0.08742609  0.91395804  0.68264345  1
  O2-  O540  1  0.31408352  0.16575089  0.02376812  1
  O2-  O541  1  0.35551774  0.18301648  0.35583169  1
  O2-  O542  1  0.34748727  0.19937742  0.68546974  1
  O2-  O543  1  0.33104865  0.41637631  0.01987101  1
  O2-  O544  1  0.33342180  0.41351813  0.34961975  1
  O2-  O545  1  0.30747725  0.39050755  0.70731432  1
  O2-  O546  1  0.31742596  0.65787738  0.00288280  1
  O2-  O547  1  0.32833058  0.65740257  0.35711566  1
  O2-  O548  1  0.31129109  0.69178219  0.70419858  1
  O2-  O549  1  0.35161146  0.92357264  0.01311751  1
  O2-  O550  1  0.36429639  0.93191574  0.35950689  1
  O2-  O551  1  0.33397172  0.92188660  0.69476044  1
  O2-  O552  1  0.59437464  0.16631723  0.02206910  1
  O2-  O553  1  0.58130121  0.17580259  0.35344445  1
  O2-  O554  1  0.55545393  0.19989473  0.70633210  1
  O2-  O555  1  0.58210785  0.41102626  0.02403511  1
  O2-  O556  1  0.58772540  0.41734237  0.35080790  1
  O2-  O557  1  0.59984776  0.42191966  0.68791399  1
  O2-  O558  1  0.56877519  0.64399652  0.02945160  1
  O2-  O559  1  0.57250587  0.66176412  0.33791909  1
  O2-  O560  1  0.58332003  0.65799249  0.68440027  1
  O2-  O561  1  0.58183911  0.90105290  0.02969282  1
  O2-  O562  1  0.56889111  0.90405453  0.35004330  1
  O2-  O563  1  0.58560014  0.92158332  0.68489719  1
  O2-  O564  1  0.83262885  0.16070568  0.02319321  1
  O2-  O565  1  0.84536663  0.15404852  0.33875071  1
  O2-  O566  1  0.83780315  0.17155799  0.67841777  1
  O2-  O567  1  0.83268148  0.40786985  0.02836611  1
  O2-  O568  1  0.83633568  0.40669690  0.34966598  1
  O2-  O569  1  0.82715428  0.40562563  0.69168011  1
  O2-  O570  1  0.85476117  0.67351728  0.03317360  1
  O2-  O571  1  0.83461162  0.66422861  0.33842661  1
  O2-  O572  1  0.83654441  0.67031924  0.68624269  1
  O2-  O573  1  0.83035440  0.91577634  0.03195353  1
  O2-  O574  1  0.83269319  0.93643414  0.34947225  1
  O2-  O575  1  0.82587074  0.90617596  0.68717780  1
