# generated using pymatgen
data_H2O
_symmetry_space_group_name_H-M   'P 1'
_cell_length_a   17.98254387
_cell_length_b   17.98327389
_cell_length_c   21.99389776
_cell_angle_alpha   89.99891939
_cell_angle_beta   90.00466019
_cell_angle_gamma   119.99630597
_symmetry_Int_Tables_number   1
_chemical_formula_structural   H2O
_chemical_formula_sum   'H384 O192'
_cell_volume   6159.83223253
_cell_formula_units_Z   192
loop_
 _symmetry_equiv_pos_site_id
 _symmetry_equiv_pos_as_xyz
  1  'x, y, z'
loop_
 _atom_type_symbol
 _atom_type_oxidation_number
  H+  1.0
  O2-  -2.0
loop_
 _atom_site_type_symbol
 _atom_site_label
 _atom_site_symmetry_multiplicity
 _atom_site_fract_x
 _atom_site_fract_y
 _atom_site_fract_z
 _atom_site_occupancy
  H+  H0  1  0.86259915  0.38080386  0.34705481  1
  H+  H1  1  0.87787607  0.76160018  0.33908706  1
  H+  H2  1  0.54805355  0.64264287  0.34098064  1
  H+  H3  1  0.36295270  0.88958268  0.33739862  1
  H+  H4  1  0.82159660  0.15846916  0.25657767  1
  H+  H5  1  0.09298130  0.66730238  0.59609932  1
  H+  H6  1  0.35373555  0.47443508  0.00496777  1
  H+  H7  1  0.12634099  0.03135098  1.00881900  1
  H+  H8  1  0.65391451  0.87734933  0.17955109  1
  H+  H9  1  0.14428873  0.85873590  0.83711331  1
  H+  H10  1  0.88199476  0.51406689  0.16940864  1
  H+  H11  1  0.60376790  0.63777370  0.99898842  1
  H+  H12  1  -0.01291781  0.33667403  -0.02579453  1
  H+  H13  1  0.54763426  0.65562842  0.50324106  1
  H+  H14  1  0.13562881  0.89840075  0.33585648  1
  H+  H15  1  0.62373393  0.26600105  0.50140707  1
  H+  H16  1  0.88209276  0.26639126  0.19489424  1
  H+  H17  1  0.78988629  0.58775767  0.00121718  1
  H+  H18  1  0.14448492  0.88215128  0.16190607  1
  H+  H19  1  0.26917722  0.12930997  0.00948215  1
  H+  H20  1  0.37415395  0.86081791  0.83277875  1
  H+  H21  1  0.62364592  0.25229400  0.65392281  1
  H+  H22  1  0.97711441  0.35680376  0.65874221  1
  H+  H23  1  0.72957419  0.11292886  0.83939546  1
  H+  H24  1  0.39590691  0.26217471  0.50420811  1
  H+  H25  1  0.83975227  0.73440215  0.65646428  1
  H+  H26  1  0.40398940  0.40778596  0.34301733  1
  H+  H27  1  0.76382689  0.37305900  0.49837627  1
  H+  H28  1  0.13621768  0.35859138  0.66132723  1
  H+  H29  1  0.87917313  0.26480077  0.50624375  1
  H+  H30  1  0.53038722  0.14274153  0.01046737  1
  H+  H31  1  0.23695666  0.60829538  0.65723197  1
  H+  H32  1  0.51408225  0.14188870  0.16742407  1
  H+  H33  1  0.31889835  0.41428467  0.06442633  1
  H+  H34  1  0.28095419  0.49629220  0.37965680  1
  H+  H35  1  0.39075091  0.76878413  -0.01826912  1
  H+  H36  1  0.85592805  0.37462707  0.82435692  1
  H+  H37  1  0.88382153  0.03632320  0.98873408  1
  H+  H38  1  0.87991633  0.89752552  0.50794112  1
  H+  H39  1  0.85861131  0.46794645  0.34520747  1
  H+  H40  1  0.38056861  -0.02392833  0.99702520  1
  H+  H41  1  0.76210677  0.36703699  0.82668297  1
  H+  H42  1  0.88282022  0.85380782  0.83194659  1
  H+  H43  1  0.72713899  0.86097430  0.99468392  1
  H+  H44  1  0.55012969  0.38493773  -0.02991578  1
  H+  H45  1  0.10579425  0.36242645  0.34992997  1
  H+  H46  1  0.58434239  0.93020892  0.72751240  1
  H+  H47  1  0.26586470  0.13672399  0.16076937  1
  H+  H48  1  0.11266371  0.23135340  0.16173530  1
  H+  H49  1  0.60307420  0.73023268  0.81818066  1
  H+  H50  1  0.47040926  0.61112179  -0.00600183  1
  H+  H51  1  0.88254300  0.49958630  0.66671146  1
  H+  H52  1  0.37965117  0.77218207  0.50354978  1
  H+  H53  1  0.21218281  0.32488841  0.33303091  1
  H+  H54  1  0.64047751  0.86634945  0.83902764  1
  H+  H55  1  0.90194530  0.89872933  0.14531982  1
  H+  H56  1  0.23475828  0.88434426  0.15995022  1
  H+  H57  1  0.23786770  0.87839857  0.32250596  1
  H+  H58  1  0.91557056  0.56925982  0.93340936  1
  H+  H59  1  0.55236910  0.58809168  0.66676190  1
  H+  H60  1  0.39785016  0.86216723  -0.01770958  1
  H+  H61  1  0.61336898  0.13569615  0.82863678  1
  H+  H62  1  0.26705129  0.63819924  0.48697347  1
  H+  H63  1  0.39291967  0.77566476  0.66011045  1
  H+  H64  1  0.67628374  0.55957890  0.95900101  1
  H+  H65  1  0.53768391  0.89789638  -0.00108195  1
  H+  H66  1  0.38614019  0.10495566  0.33065930  1
  H+  H67  1  0.62801090  0.11098242  0.18422827  1
  H+  H68  1  0.38592414  0.89759959  0.15698547  1
  H+  H69  1  0.35410159  0.47035060  0.16253966  1
  H+  H70  1  0.11435746  0.22614328  0.49423042  1
  H+  H71  1  0.37967219  0.09643512  0.84018140  1
  H+  H72  1  0.53150814  0.89289403  0.82502991  1
  H+  H73  1  0.27398940  0.63719009  0.82673338  1
  H+  H74  1  0.72593275  0.86197249  0.34141027  1
  H+  H75  1  0.89024868  0.26517998  0.82026036  1
  H+  H76  1  0.57491089  0.15272649  0.43462048  1
  H+  H77  1  0.62648926  0.98726551  0.00364385  1
  H+  H78  1  0.03053235  0.38433953  0.81914325  1
  H+  H79  1  0.13119944  0.12090079  0.00087637  1
  H+  H80  1  0.13266681  0.36610368  0.18718180  1
  H+  H81  1  0.26734622  0.62650129  -0.00314693  1
  H+  H82  1  0.13011036  0.50247452  0.33586658  1
  H+  H83  1  0.47825521  0.36950379  0.84574965  1
  H+  H84  1  0.27419891  0.13286481  0.67224413  1
  H+  H85  1  0.40965197  0.24333228  0.52927911  1
  H+  H86  1  0.63426321  0.86007796  0.33749848  1
  H+  H87  1  0.39101856  0.01395803  0.84447865  1
  H+  H88  1  0.84543275  0.58695232  0.83909859  1
  H+  H89  1  0.89335549  0.59003282  0.68413744  1
  H+  H90  1  0.62937801  0.26536597  0.84073479  1
  H+  H91  1  0.89652073  0.99026897  0.49196795  1
  H+  H92  1  0.85930373  0.37100066  0.67228303  1
  H+  H93  1  0.62480548  0.61505529  0.81585794  1
  H+  H94  1  0.22581813  0.36846581  0.51426351  1
  H+  H95  1  0.48772094  0.11227864  0.66072727  1
  H+  H96  1  0.63423030  0.87589628  0.65530594  1
  H+  H97  1  0.63043215  0.52789713  0.18988347  1
  H+  H98  1  0.78398348  0.36895726  0.13229050  1
  H+  H99  1  0.02222737  0.87553903  0.83039619  1
  H+  H100  1  0.67191622  0.58497255  0.55692207  1
  H+  H101  1  0.51981658  0.12997604  0.49650097  1
  H+  H102  1  0.14956356  0.78135009  0.65184263  1
  H+  H103  1  0.87428714  0.74942459  -0.01715294  1
  H+  H104  1  0.86031273  -0.03667577  0.34314619  1
  H+  H105  1  0.37876892  0.64012455  0.67930856  1
  H+  H106  1  0.12096488  0.88800371  0.49355627  1
  H+  H107  1  0.82480548  0.15892538  0.75936092  1
  H+  H108  1  0.74522964  0.35326888  0.99129067  1
  H+  H109  1  0.38938242  0.10857368  0.99479838  1
  H+  H110  1  0.36381969  0.63747415  0.82968242  1
  H+  H111  1  0.14282288  0.61225272  0.83046061  1
  H+  H112  1  0.77493674  0.88460932  0.82802239  1
  H+  H113  1  0.12824367  0.89880552  0.68073130  1
  H+  H114  1  0.60342790  0.38198546  0.84084341  1
  H+  H115  1  0.86354432  0.34958486  -0.00635374  1
  H+  H116  1  0.86678788  0.12908543  0.33551947  1
  H+  H117  1  0.62786438  0.62534862  0.16126585  1
  H+  H118  1  1.02773894  0.61752473  1.00717599  1
  H+  H119  1  0.08017484  0.16191183  0.76592442  1
  H+  H120  1  0.69309905  0.60854753  0.65107007  1
  H+  H121  1  0.36167190  0.88178783  0.49378785  1
  H+  H122  1  0.76061207  0.13230000  0.20035685  1
  H+  H123  1  0.69752498  0.09140808  0.32727457  1
  H+  H124  1  0.27438157  0.87275658  0.82608683  1
  H+  H125  1  0.97629500  0.11971828  0.66107321  1
  H+  H126  1  0.14846053  0.60939542  0.64716761  1
  H+  H127  1  0.62098785  0.50914680  0.64821002  1
  H+  H128  1  0.60697756  0.20600083  0.34527267  1
  H+  H129  1  0.65163613  0.12462166  0.99965644  1
  H+  H130  1  0.67515500  0.08711340  0.90199736  1
  H+  H131  1  0.50150091  0.41644135  0.52197690  1
  H+  H132  1  0.63095285  0.73640118  0.34554840  1
  H+  H133  1  0.42141538  0.84041289  0.22974762  1
  H+  H134  1  0.12423536  0.35001566  -0.01845890  1
  H+  H135  1  0.41869514  0.07577234  0.57106759  1
  H+  H136  1  0.87013239  0.37516387  0.15655059  1
  H+  H137  1  0.01960423  0.14174613  0.00515128  1
  H+  H138  1  0.97584311  0.11795340  0.17410619  1
  H+  H139  1  0.11454870  0.83168803  0.98418699  1
  H+  H140  1  0.76854872  0.61664768  0.36631668  1
  H+  H141  1  0.72475914  0.35244129  0.34044326  1
  H+  H142  1  0.88640734  0.11530316  0.50544162  1
  H+  H143  1  0.76086382  0.63345931  0.80507750  1
  H+  H144  1  0.60916685  0.99145200  0.66859081  1
  H+  H145  1  0.24732882  0.63588573  0.33739574  1
  H+  H146  1  0.89110479  0.76319477  0.17440444  1
  H+  H147  1  0.63285047  1.01921710  0.50494180  1
  H+  H148  1  0.47338072  0.70024663  0.31952460  1
  H+  H149  1  0.26323784  0.11124495  0.82638067  1
  H+  H150  1  0.63504816  0.10910338  0.50506287  1
  H+  H151  1  0.88543028  0.11894609  0.65955973  1
  H+  H152  1  0.84786099  0.62018544  0.15894026  1
  H+  H153  1  0.34173545  0.65595995  0.32322702  1
  H+  H154  1  0.86046266  0.13220244  0.81871590  1
  H+  H155  1  0.37623386  0.78332999  0.32186125  1
  H+  H156  1  0.74542038  0.13096249  0.99504084  1
  H+  H157  1  0.96110676  0.60894702  0.18055400  1
  H+  H158  1  0.88972401  0.13045609  0.98471349  1
  H+  H159  1  0.70320396  0.37743833  0.19906517  1
  H+  H160  1  0.62686144  0.12171084  0.65841454  1
  H+  H161  1  0.60023596  0.97019308  0.33569517  1
  H+  H162  1  0.72416239  0.65955240  0.96464458  1
  H+  H163  1  0.76378223  0.60836668  0.46656330  1
  H+  H164  1  0.37787657  0.43209709  0.51422377  1
  H+  H165  1  0.36700965  0.35761567  0.17468855  1
  H+  H166  1  -0.02569994  0.11204106  0.83577573  1
  H+  H167  1  0.49235510  0.34123186  0.32567920  1
  H+  H168  1  0.21960741  0.36278485  0.98940636  1
  H+  H169  1  0.12288758  0.01843989  0.51249751  1
  H+  H170  1  0.51869998  0.88799869  0.49280406  1
  H+  H171  1  0.61000176  0.98132792  0.16377577  1
  H+  H172  1  0.59483800  0.39428620  0.20448622  1
  H+  H173  1  0.34026768  0.34003399  0.98092911  1
  H+  H174  1  0.39550351  0.51789033  0.67062133  1
  H+  H175  1  0.87567956  0.59924155  0.33949303  1
  H+  H176  1  0.07270893  0.67843155  0.23002005  1
  H+  H177  1  0.11070337  0.13466198  0.67501057  1
  H+  H178  1  0.12015664  0.61493471  0.18701842  1
  H+  H179  1  0.11316346  0.22524009  0.67458280  1
  H+  H180  1  0.89785555  0.98439502  0.14646905  1
  H+  H181  1  0.12047403  0.24183491  0.33405302  1
  H+  H182  1  0.16439676  0.57651952  0.89209870  1
  H+  H183  1  0.60747815  0.38335518  0.49860607  1
  H+  H184  1  0.11273101  0.22281021  0.82417227  1
  H+  H185  1  0.97268148  0.09744670  0.33056636  1
  H+  H186  1  0.09666228  0.92245548  0.74136304  1
  H+  H187  1  0.12468517  0.50024325  -0.01671876  1
  H+  H188  1  0.86882973  0.87631062  0.64618996  1
  H+  H189  1  0.02569488  0.65798798  0.52173416  1
  H+  H190  1  0.38553953  0.37435855  0.83289891  1
  H+  H191  1  0.47852218  0.86879041  0.65779306  1
  H+  H192  1  0.66812179  0.85420347  0.56379474  1
  H+  H193  1  0.12888927  0.11293327  0.17270379  1
  H+  H194  1  0.11011764  0.48476182  0.17063198  1
  H+  H195  1  0.50277323  0.35441195  0.97335962  1
  H+  H196  1  0.86402674  -0.02638250  0.82832800  1
  H+  H197  1  0.50876550  0.39759689  0.19160041  1
  H+  H198  1  0.13134642  0.35642392  0.51038827  1
  H+  H199  1  0.91862750  0.31233422  0.88213039  1
  H+  H200  1  0.39246629  0.10642807  0.66197346  1
  H+  H201  1  0.38098020  0.02872918  0.18203584  1
  H+  H202  1  0.23875177  0.86885986  0.66385528  1
  H+  H203  1  0.13981769  0.02668695  0.67066788  1
  H+  H204  1  0.12753519  -0.01024034  0.33937362  1
  H+  H205  1  0.36380484  0.22006288  0.67515153  1
  H+  H206  1  0.60178860  0.11073774  0.33878599  1
  H+  H207  1  0.08874285  0.92931577  -0.03727357  1
  H+  H208  1  0.12655512  1.02270769  0.16967665  1
  H+  H209  1  0.88637608  0.62227784  0.51135027  1
  H+  H210  1  0.10782413  -0.03205326  0.83754696  1
  H+  H211  1  0.37525659  0.27297178  0.17370719  1
  H+  H212  1  0.27431807  0.38761442  0.82412431  1
  H+  H213  1  0.41120670  0.58038559  0.89939212  1
  H+  H214  1  -0.02093829  0.35804336  0.33684154  1
  H+  H215  1  0.85783835  0.88648348  -0.00848527  1
  H+  H216  1  0.86914931  0.22139348  0.33862014  1
  H+  H217  1  0.11898709  0.47561939  0.82146206  1
  H+  H218  1  0.65356418  0.62047313  0.33593496  1
  H+  H219  1  0.34682215  0.25332676  0.98022776  1
  H+  H220  1  0.18246189  0.86341377  0.26001366  1
  H+  H221  1  0.69996451  0.44008511  -0.03179804  1
  H+  H222  1  0.82356963  0.39701296  0.73103716  1
  H+  H223  1  0.35754234  0.37233095  0.34666680  1
  H+  H224  1  0.22811559  0.10862031  0.32418988  1
  H+  H225  1  0.84381043  0.49676673  0.84449778  1
  H+  H226  1  0.41170060  0.60168548  0.34235867  1
  H+  H227  1  0.61899765  0.47371967  0.34683479  1
  H+  H228  1  0.02155411  0.14007866  0.49633942  1
  H+  H229  1  0.12933047  0.75223261  0.98800226  1
  H+  H230  1  0.72576004  0.61389243  0.17003825  1
  H+  H231  1  0.90526857  0.50520694  -0.01382928  1
  H+  H232  1  0.38116983  0.61035306  -0.00759762  1
  H+  H233  1  0.52904890  0.38175673  0.67098879  1
  H+  H234  1  0.85514287  0.92624832  0.05439028  1
  H+  H235  1  0.34739518  0.74924233  0.15110698  1
  H+  H236  1  0.60163054  0.22959827  0.17199861  1
  H+  H237  1  0.02088719  0.87902845  0.15933324  1
  H+  H238  1  0.13064878  0.59035097  0.99351814  1
  H+  H239  1  0.41253773  0.97859640  0.11495655  1
  H+  H240  1  0.86190546  -0.01207998  0.67376257  1
  H+  H241  1  0.36606470  0.20658070  0.33938253  1
  H+  H242  1  0.72090047  0.87365987  0.65696338  1
  H+  H243  1  0.38542799  0.36011129  0.67318373  1
  H+  H244  1  0.11702165  0.47159633  0.66799893  1
  H+  H245  1  0.26022301  0.38664982  0.16372343  1
  H+  H246  1  0.88567515  0.62818331  1.01113203  1
  H+  H247  1  0.91799034  0.81735313  0.23601608  1
  H+  H248  1  0.25420658  0.10189141  0.49096453  1
  H+  H249  1  0.64726414  0.27879407  0.99937478  1
  H+  H250  1  0.36205529  0.48054430  0.82579256  1
  H+  H251  1  0.85497511  0.22263020  0.67108834  1
  H+  H252  1  0.48369738  0.86785739  0.16973919  1
  H+  H253  1  0.12692603  0.10904004  0.51201707  1
  H+  H254  1  -0.02667287  0.35329077  0.17792539  1
  H+  H255  1  0.76231145  0.51049878  -0.08038500  1
  H+  H256  1  0.35562266  0.13926097  0.16569154  1
  H+  H257  1  0.66324121  0.08741475  0.60115212  1
  H+  H258  1  0.52811097  0.61980965  0.15837693  1
  H+  H259  1  0.12841147  0.72737390  0.81472960  1
  H+  H260  1  0.14281089  0.36287968  0.83195441  1
  H+  H261  1  0.84210468  0.65638563  0.63091571  1
  H+  H262  1  0.36532960  -0.02074123  0.34071310  1
  H+  H263  1  0.20969773  0.62087126  0.17687044  1
  H+  H264  1  0.10832723  0.12136986  0.34692682  1
  H+  H265  1  0.87648544  0.35314779  0.50904311  1
  H+  H266  1  0.23442852  0.87353348  0.50564243  1
  H+  H267  1  0.64989474  0.79763081  0.50499831  1
  H+  H268  1  0.71556212  0.34327548  0.65259122  1
  H+  H269  1  0.12987352  0.60098534  0.51182603  1
  H+  H270  1  0.39035684  1.01673512  0.51095101  1
  H+  H271  1  0.62379469  0.48077780  0.49381301  1
  H+  H272  1  0.64065895  0.86486447  0.99508600  1
  H+  H273  1  0.16062289  0.08057322  0.60840349  1
  H+  H274  1  0.65141048  0.62551145  0.50011153  1
  H+  H275  1  0.01280895  0.37396126  0.49741980  1
  H+  H276  1  0.80859429  0.23225347  0.93393959  1
  H+  H277  1  0.61989797  0.98170949  0.82889683  1
  H+  H278  1  0.11097809  0.22836838  0.00241152  1
  H+  H279  1  0.46443076  0.51619125  0.22371412  1
  H+  H280  1  0.76644327  0.12762352  0.49128059  1
  H+  H281  1  0.63636737  0.35466153  0.34458047  1
  H+  H282  1  0.52278655  0.13137725  0.82868526  1
  H+  H283  1  0.12698679  0.10541966  0.84256389  1
  H+  H284  1  0.27347951  0.38736000  0.67406736  1
  H+  H285  1  0.40461500  0.55923246  0.52439454  1
  H+  H286  1  0.07718609  0.15322969  0.40660931  1
  H+  H287  1  0.02742952  0.87772916  0.48630675  1
  H+  H288  1  0.16092448  0.07803499  0.26677202  1
  H+  H289  1  0.66763011  0.32412451  0.90076604  1
  H+  H290  1  0.01354491  0.34872169  0.04070870  1
  H+  H291  1  0.61582698  0.38042848  0.65815785  1
  H+  H292  1  0.85936635  0.39848606  0.05388505  1
  H+  H293  1  0.15961292  0.32348144  0.24120419  1
  H+  H294  1  0.47870694  0.10619228  0.33104095  1
  H+  H295  1  0.91466613  0.08751718  0.89482951  1
  H+  H296  1  0.76190792  0.13539678  0.66973689  1
  H+  H297  1  0.82722956  0.40582318  0.44241343  1
  H+  H298  1  0.58169563  0.16559848  0.72069964  1
  H+  H299  1  0.58412022  0.41664523  0.40751561  1
  H+  H300  1  0.82550711  0.15620958  0.43147765  1
  H+  H301  1  0.60033212  0.67945308  0.43990351  1
  H+  H302  1  0.33345368  0.91516137  0.43439706  1
  H+  H303  1  0.89773318  0.80676003  0.92125714  1
  H+  H304  1  1.01705647  0.64817188  0.31424631  1
  H+  H305  1  0.66414282  0.82945909  0.89789387  1
  H+  H306  1  0.09918899  0.92290839  0.40248302  1
  H+  H307  1  0.58386802  0.65549687  0.09378220  1
  H+  H308  1  0.10650146  0.73736044  0.17168589  1
  H+  H309  1  0.37452289  0.98015042  0.67922738  1
  H+  H310  1  0.42636959  0.31434445  0.26941044  1
  H+  H311  1  0.45440065  0.61048524  0.58219255  1
  H+  H312  1  0.61096432  0.89170576  0.49265570  1
  H+  H313  1  0.17044322  0.33104646  0.89147254  1
  H+  H314  1  0.88366520  0.10838549  0.18907833  1
  H+  H315  1  0.33771515  0.90353951  0.04760287  1
  H+  H316  1  0.34236658  0.46382788  0.45872045  1
  H+  H317  1  0.58399347  0.17379989  0.07242635  1
  H+  H318  1  0.26586667  0.73042606  0.11399253  1
  H+  H319  1  0.02997127  0.62830737  0.65144802  1
  H+  H320  1  0.66261205  0.60124255  0.87572005  1
  H+  H321  1  0.64353255  0.06990767  0.24785897  1
  H+  H322  1  0.82526500  0.65938976  0.74942619  1
  H+  H323  1  0.16752014  0.81886378  0.89360560  1
  H+  H324  1  0.82500458  0.65096948  0.09746013  1
  H+  H325  1  0.12201608  0.73413296  0.51459471  1
  H+  H326  1  0.55595905  0.46098019  0.07189704  1
  H+  H327  1  0.14577251  0.56457914  0.27915875  1
  H+  H328  1  0.07796130  0.39734920  0.40893807  1
  H+  H329  1  0.86803061  0.84298678  0.32785971  1
  H+  H330  1  0.46986108  0.61403999  0.83878236  1
  H+  H331  1  0.67877207  0.84548615  0.23742134  1
  H+  H332  1  0.57321098  0.91216024  0.39735327  1
  H+  H333  1  0.33948854  0.66684785  0.73368960  1
  H+  H334  1  0.11313804  0.67408125  0.75432052  1
  H+  H335  1  0.38271538  0.76492748  0.83621917  1
  H+  H336  1  0.17049605  0.56919361  0.56172930  1
  H+  H337  1  0.91800735  0.06983892  0.26857580  1
  H+  H338  1  0.37078424  0.88812019  0.67592691  1
  H+  H339  1  0.47415273  0.86484380  0.32548096  1
  H+  H340  1  0.68594499  0.59345763  0.27751614  1
  H+  H341  1  0.41299911  0.08602238  0.24199542  1
  H+  H342  1  0.91913468  0.09123789  0.56684345  1
  H+  H343  1  0.87918167  0.76275269  0.82439602  1
  H+  H344  1  0.58862670  0.92623470  0.10162355  1
  H+  H345  1  0.44112621  0.58686322  0.24032408  1
  H+  H346  1  0.84673363  0.91196071  0.40488032  1
  H+  H347  1  0.55506581  0.66263663  0.76223863  1
  H+  H348  1  -0.00182267  0.86475659  -0.01056013  1
  H+  H349  1  0.33197970  0.41843999  0.73479596  1
  H+  H350  1  0.31830065  0.13705670  0.39615462  1
  H+  H351  1  0.34044714  0.90777613  0.76610099  1
  H+  H352  1  0.89166611  0.57059628  0.27321085  1
  H+  H353  1  0.08294669  0.64926198  0.06839146  1
  H+  H354  1  0.34127146  0.46086933  0.35915354  1
  H+  H355  1  0.10522919  0.42894897  0.11379630  1
  H+  H356  1  0.65310358  0.32630678  0.25798845  1
  H+  H357  1  0.33295791  0.16606026  0.06534801  1
  H+  H358  1  0.83280046  0.92276445  0.73118003  1
  H+  H359  1  0.92204849  0.33779762  0.27651231  1
  H+  H360  1  0.17938462  0.85326517  0.56753098  1
  H+  H361  1  0.32093690  0.67944195  0.42708133  1
  H+  H362  1  0.32453683  0.14182876  0.76797894  1
  H+  H363  1  0.10466105  0.74088830  0.31134801  1
  H+  H364  1  0.42262689  0.08234506  0.93548517  1
  H+  H365  1  0.08252954  0.17392232  0.10077947  1
  H+  H366  1  0.10318618  0.46398582  0.49536467  1
  H+  H367  1  0.49595730  0.48038125  0.56753570  1
  H+  H368  1  0.60409724  0.47236561  0.83041538  1
  H+  H369  1  0.34196980  0.09804814  0.49042563  1
  H+  H370  1  0.41148891  0.83087416  0.56452540  1
  H+  H371  1  0.32113186  0.67271411  0.05597933  1
  H+  H372  1  0.60387516  0.48001785  0.07126247  1
  H+  H373  1  0.08725396  0.41467715  0.72859591  1
  H+  H374  1  0.60881067  0.72792341  0.00850373  1
  H+  H375  1  0.41621290  0.82835358  0.89835059  1
  H+  H376  1  0.15646583  0.08103773  0.90461977  1
  H+  H377  1  0.38674451  0.32214387  0.89610686  1
  H+  H378  1  0.16589834  0.32692057  0.60312989  1
  H+  H379  1  0.06897023  0.91222957  0.09542728  1
  H+  H380  1  0.91555811  0.32617541  0.59966392  1
  H+  H381  1  0.42366424  0.34974588  0.61287750  1
  H+  H382  1  0.65249465  0.32059120  0.56311726  1
  H+  H383  1  0.91002589  0.59933401  0.57676246  1
  O2-  O384  1  0.08246329  0.17132471  0.14623536  1
  O2-  O385  1  0.08203833  0.16528654  0.47975701  1
  O2-  O386  1  0.07952574  0.16127307  0.81175591  1
  O2-  O387  1  0.08664106  0.42328218  0.15600076  1
  O2-  O388  1  0.07418093  0.40198629  0.48276612  1
  O2-  O389  1  0.09198620  0.41505989  0.80615681  1
  O2-  O390  1  0.07223492  0.67553478  0.18224469  1
  O2-  O391  1  0.08687685  0.67075647  0.52053088  1
  O2-  O392  1  0.10422644  0.66789650  0.79816073  1
  O2-  O393  1  0.07900896  0.91681954  0.13949201  1
  O2-  O394  1  0.08718718  0.91359983  0.47369582  1
  O2-  O395  1  0.08525749  0.90771217  0.82274776  1
  O2-  O396  1  0.32668819  0.16852620  0.14647835  1
  O2-  O397  1  0.29835909  0.10130854  0.46448796  1
  O2-  O398  1  0.32287646  0.13318027  0.81275082  1
  O2-  O399  1  0.31803465  0.41362563  0.14359686  1
  O2-  O400  1  0.33241435  0.44578578  0.50147475  1
  O2-  O401  1  0.33584711  0.42034747  0.80960793  1
  O2-  O402  1  0.29658634  0.70195711  0.12857129  1
  O2-  O403  1  0.32604361  0.67623204  0.47159799  1
  O2-  O404  1  0.33610079  0.67048709  0.81358969  1
  O2-  O405  1  0.36276608  0.93295468  0.13597580  1
  O2-  O406  1  0.33245095  0.91448195  0.47973248  1
  O2-  O407  1  0.33720050  0.89996139  0.81290080  1
  O2-  O408  1  0.57478460  0.17213969  0.15263752  1
  O2-  O409  1  0.57994891  0.16042332  0.47995399  1
  O2-  O410  1  0.58312578  0.16571354  0.81390374  1
  O2-  O411  1  0.57185235  0.43382797  0.19886451  1
  O2-  O412  1  0.58208643  0.41946126  0.48377390  1
  O2-  O413  1  0.56782974  0.40908951  0.83291575  1
  O2-  O414  1  0.58670381  0.65185592  0.13994576  1
  O2-  O415  1  0.60676487  0.68270692  0.48470437  1
  O2-  O416  1  0.56751929  0.66830907  0.80639286  1
  O2-  O417  1  0.58126620  0.92142834  0.14637974  1
  O2-  O418  1  0.57771943  0.91983423  0.47552358  1
  O2-  O419  1  0.59158472  0.92205476  0.81124696  1
  O2-  O420  1  0.82389113  0.16285470  0.21164825  1
  O2-  O421  1  0.82785661  0.15911070  0.47639563  1
  O2-  O422  1  0.83004231  0.16330761  0.80537458  1
  O2-  O423  1  0.84615622  0.40662129  0.13211681  1
  O2-  O424  1  0.82567579  0.40031669  0.48731820  1
  O2-  O425  1  0.82249012  0.40178383  0.81059745  1
  O2-  O426  1  0.82143915  0.65377141  0.14257326  1
  O2-  O427  1  0.80913126  0.59969638  0.44631733  1
  O2-  O428  1  0.82310963  0.65745611  0.79438518  1
  O2-  O429  1  0.90525970  0.94479675  0.11924096  1
  O2-  O430  1  0.89159348  0.93750712  0.47381999  1
  O2-  O431  1  0.83507230  0.91339122  0.81240779  1
  O2-  O432  1  0.15779582  0.08121298  0.18803716  1
  O2-  O433  1  0.15455754  0.07726535  0.52928452  1
  O2-  O434  1  0.15332060  0.07248534  0.86001050  1
  O2-  O435  1  0.16244271  0.33327783  0.19636317  1
  O2-  O436  1  0.16434636  0.32832671  0.52470770  1
  O2-  O437  1  0.17307431  0.33184722  0.84605901  1
  O2-  O438  1  0.15179958  0.58278300  0.19400856  1
  O2-  O439  1  0.16054829  0.56817429  0.51690942  1
  O2-  O440  1  0.17091992  0.57967537  0.84715495  1
  O2-  O441  1  0.17824244  0.85627508  0.17958811  1
  O2-  O442  1  0.17386686  0.84697432  0.52218926  1
  O2-  O443  1  0.17577009  0.82767321  0.84816824  1
  O2-  O444  1  0.40855499  0.08885495  0.19591131  1
  O2-  O445  1  0.41829569  0.07748028  0.52526850  1
  O2-  O446  1  0.41724645  0.07399140  0.85820862  1
  O2-  O447  1  0.40040653  0.33193190  0.19150321  1
  O2-  O448  1  0.45967744  0.42548075  0.54740192  1
  O2-  O449  1  0.41066948  0.33959245  0.85143811  1
  O2-  O450  1  0.44550030  0.55364840  0.20566665  1
  O2-  O451  1  0.45375144  0.61431665  0.53756578  1
  O2-  O452  1  0.40899640  0.58153819  0.85387519  1
  O2-  O453  1  0.42127572  0.83977502  0.18386932  1
  O2-  O454  1  0.41159877  0.83318374  0.51924679  1
  O2-  O455  1  0.41190096  0.82795336  0.85072524  1
  O2-  O456  1  0.65385134  0.07725461  0.19924654  1
  O2-  O457  1  0.66678433  0.08024526  0.52012845  1
  O2-  O458  1  0.67006880  0.08287368  0.85673471  1
  O2-  O459  1  0.64645543  0.33282506  0.21191522  1
  O2-  O460  1  0.65223046  0.32633725  0.51728921  1
  O2-  O461  1  0.66229606  0.32669202  0.85576637  1
  O2-  O462  1  0.66761703  0.59458397  0.18960909  1
  O2-  O463  1  0.67789031  0.58912637  0.51180295  1
  O2-  O464  1  0.65890304  0.58899638  0.83144323  1
  O2-  O465  1  0.68902897  0.85276268  0.19337989  1
  O2-  O466  1  0.66845727  0.85685691  0.51811964  1
  O2-  O467  1  0.66570237  0.83047670  0.85253165  1
  O2-  O468  1  0.91784914  0.07900293  0.19141184  1
  O2-  O469  1  0.92320161  0.09247515  0.52141228  1
  O2-  O470  1  0.91282507  0.08185562  0.84944883  1
  O2-  O471  1  0.91486912  0.33151169  0.19446109  1
  O2-  O472  1  0.91065726  0.32450588  0.52261744  1
  O2-  O473  1  0.92246954  0.32521046  0.83845862  1
  O2-  O474  1  0.89830357  0.57023765  0.18809897  1
  O2-  O475  1  0.92858794  0.64358967  0.54474763  1
  O2-  O476  1  0.84737509  0.54585199  0.86855171  1
  O2-  O477  1  0.92717298  0.82176619  0.19079058  1
  O2-  O478  1  0.88589355  0.83023470  0.56927462  1
  O2-  O479  1  0.90955656  0.81926473  0.84583158  1
  O2-  O480  1  0.16454981  0.07763916  0.31236391  1
  O2-  O481  1  0.16623175  0.08711564  0.65347942  1
  O2-  O482  1  0.15985597  0.08691492  0.98853266  1
  O2-  O483  1  0.15382494  0.30453742  0.31882442  1
  O2-  O484  1  0.16891348  0.32937331  0.64865156  1
  O2-  O485  1  0.16175694  0.32696890  0.96958812  1
  O2-  O486  1  0.15572947  0.56335298  0.32305951  1
  O2-  O487  1  0.17750475  0.57489173  0.64061121  1
  O2-  O488  1  0.15940855  0.56148713  0.97315843  1
  O2-  O489  1  0.17801026  0.85775887  0.30523745  1
  O2-  O490  1  0.18013190  0.84441304  0.64567607  1
  O2-  O491  1  0.14910206  0.80784606  0.96767595  1
  O2-  O492  1  0.41747909  0.07635346  0.31379568  1
  O2-  O493  1  0.42157716  0.07452490  0.64848965  1
  O2-  O494  1  0.42435318  0.08260645  0.98121729  1
  O2-  O495  1  0.44061130  0.29334695  0.30645701  1
  O2-  O496  1  0.41457095  0.33016033  0.65570930  1
  O2-  O497  1  0.34267489  0.29661780  0.95443273  1
  O2-  O498  1  0.44151237  0.63994191  0.30700489  1
  O2-  O499  1  0.43783665  0.58144258  0.66143470  1
  O2-  O500  1  0.41054365  0.57896249  0.97776276  1
  O2-  O501  1  0.41537470  0.84222708  0.30581351  1
  O2-  O502  1  0.41651045  0.83504166  0.64437632  1
  O2-  O503  1  0.42549299  0.82843320  0.96562727  1
  O2-  O504  1  0.63812977  0.06282345  0.31272538  1
  O2-  O505  1  0.66230123  0.08990246  0.64636057  1
  O2-  O506  1  0.68192579  0.09602040  0.98209068  1
  O2-  O507  1  0.66279395  0.32157374  0.32730830  1
  O2-  O508  1  0.65602624  0.31597130  0.63722270  1
  O2-  O509  1  0.68534200  0.33552221  0.97930225  1
  O2-  O510  1  0.68041078  0.58579590  0.32194145  1
  O2-  O511  1  0.63510147  0.56982378  0.63466529  1
  O2-  O512  1  0.66746482  0.61062173  0.95566218  1
  O2-  O513  1  0.66530292  0.82883959  0.32572620  1
  O2-  O514  1  0.66227105  0.84422861  0.63976314  1
  O2-  O515  1  0.66545046  0.82881513  0.98103774  1
  O2-  O516  1  0.91317195  0.06969769  0.31409239  1
  O2-  O517  1  0.91621341  0.08905080  0.64465869  1
  O2-  O518  1  0.91878797  0.09610706  0.97337497  1
  O2-  O519  1  0.91850738  0.33084974  0.32137997  1
  O2-  O520  1  0.91579115  0.32607558  0.64541951  1
  O2-  O521  1  0.86324766  0.26063298  0.95641334  1
  O2-  O522  1  0.90451787  0.57237474  0.31715164  1
  O2-  O523  1  0.91492840  0.56346848  0.65590608  1
  O2-  O524  1  0.93250204  0.56756504  0.97632954  1
  O2-  O525  1  0.89317589  0.80878847  0.31077246  1
  O2-  O526  1  0.89654866  0.84188829  0.63072200  1
  O2-  O527  1  0.89692425  0.80840365  0.96714416  1
  O2-  O528  1  0.07958320  0.17027193  0.02197165  1
  O2-  O529  1  0.07568613  0.14994580  0.36041323  1
  O2-  O530  1  0.07899659  0.16458045  0.68940344  1
  O2-  O531  1  0.03668926  0.37162309  0.00054385  1
  O2-  O532  1  0.08029498  0.39763185  0.36287906  1
  O2-  O533  1  0.08369605  0.41112355  0.68314733  1
  O2-  O534  1  0.08805912  0.64684418  0.02434367  1
  O2-  O535  1  0.07622184  0.68044847  0.29782170  1
  O2-  O536  1  0.09242925  0.66407063  0.64216815  1
  O2-  O537  1  0.06135774  0.89977106  0.00049914  1
  O2-  O538  1  0.10320931  0.92748931  0.35588684  1
  O2-  O539  1  0.10029422  0.93012789  0.69669837  1
  O2-  O540  1  0.33136125  0.16088207  0.02010889  1
  O2-  O541  1  0.32294744  0.14537812  0.35038283  1
  O2-  O542  1  0.33459231  0.15852685  0.68735795  1
  O2-  O543  1  0.31774712  0.41371721  0.01908602  1
  O2-  O544  1  0.34013285  0.50783565  0.38109565  1
  O2-  O545  1  0.33425668  0.41895477  0.68913962  1
  O2-  O546  1  0.32714480  0.66358204  0.01204038  1
  O2-  O547  1  0.31103180  0.67969520  0.34515034  1
  O2-  O548  1  0.34267005  0.66595519  0.68842855  1
  O2-  O549  1  0.35413128  0.91284762  0.00461063  1
  O2-  O550  1  0.33073230  0.91716623  0.35429956  1
  O2-  O551  1  0.34256023  0.91839440  0.69546996  1
  O2-  O552  1  0.59001724  0.17465585  0.02721594  1
  O2-  O553  1  0.57223801  0.14504221  0.35754372  1
  O2-  O554  1  0.57900946  0.16210713  0.67610443  1
  O2-  O555  1  0.72351636  0.50074025  -0.04478105  1
  O2-  O556  1  0.58887192  0.41382380  0.36205900  1
  O2-  O557  1  0.59241437  0.41777163  0.67198140  1
  O2-  O558  1  0.57617549  0.66556384  0.02174152  1
  O2-  O559  1  0.60534637  0.67290404  0.35909969  1
  O2-  O560  1  0.51439636  0.59738033  0.69560627  1
  O2-  O561  1  0.59528786  0.92615877  0.01778557  1
  O2-  O562  1  0.57239939  0.90721252  0.35184792  1
  O2-  O563  1  0.57821480  0.92909085  0.68278838  1
  O2-  O564  1  0.84794424  0.19270931  0.00250516  1
  O2-  O565  1  0.83244359  0.15801118  0.34406052  1
  O2-  O566  1  0.82321917  0.16173375  0.68555635  1
  O2-  O567  1  0.85518169  0.39709415  0.00870915  1
  O2-  O568  1  0.82862559  0.40776173  0.36073849  1
  O2-  O569  1  0.82735901  0.40063769  0.68576265  1
  O2-  O570  1  0.83889213  0.64116858  0.01888605  1
  O2-  O571  1  0.82647244  0.64317088  0.38673258  1
  O2-  O572  1  0.81678665  0.67200815  0.66445748  1
  O2-  O573  1  0.83461544  0.92021507  0.01069133  1
  O2-  O574  1  0.82976537  0.90437644  0.36061829  1
  O2-  O575  1  0.83050218  0.92582510  0.68606787  1
