# generated using pymatgen
data_H2O
_symmetry_space_group_name_H-M   'P 1'
_cell_length_a   17.99751531
_cell_length_b   17.99618099
_cell_length_c   22.00642416
_cell_angle_alpha   90.01463640
_cell_angle_beta   89.99597710
_cell_angle_gamma   119.99474566
_symmetry_Int_Tables_number   1
_chemical_formula_structural   H2O
_chemical_formula_sum   'H384 O192'
_cell_volume   6172.99594609
_cell_formula_units_Z   192
loop_
 _symmetry_equiv_pos_site_id
 _symmetry_equiv_pos_as_xyz
  1  'x, y, z'
loop_
 _atom_type_symbol
 _atom_type_oxidation_number
  H+  1.0
  O2-  -2.0
loop_
 _atom_site_type_symbol
 _atom_site_label
 _atom_site_symmetry_multiplicity
 _atom_site_fract_x
 _atom_site_fract_y
 _atom_site_fract_z
 _atom_site_occupancy
  H+  H0  1  0.11908048  0.88744342  0.00493300  1
  H+  H1  1  0.21163001  0.36607226  0.51659501  1
  H+  H2  1  0.84448124  0.39831895  0.83850279  1
  H+  H3  1  0.60639714  0.40726656  0.49027127  1
  H+  H4  1  0.22266175  0.60422384  0.32265285  1
  H+  H5  1  0.35882946  0.64150792  0.67089295  1
  H+  H6  1  0.77029922  0.39789400  0.68755799  1
  H+  H7  1  0.78069596  0.88750635  0.01067361  1
  H+  H8  1  0.88707901  0.49925768  1.01362314  1
  H+  H9  1  0.09934800  0.72448222  0.34775725  1
  H+  H10  1  0.61242035  0.14626533  0.67831847  1
  H+  H11  1  0.62624742  0.60851196  0.98989076  1
  H+  H12  1  0.22985791  0.12967203  0.31538189  1
  H+  H13  1  0.61602927  0.65086980  0.51883223  1
  H+  H14  1  0.52363717  0.87949435  0.33234606  1
  H+  H15  1  0.35377675  0.23408370  0.32753300  1
  H+  H16  1  0.86867198  0.22099278  0.44335473  1
  H+  H17  1  0.43343334  0.46650921  0.04434624  1
  H+  H18  1  0.60600390  0.84743519  0.63292375  1
  H+  H19  1  0.21463375  0.86409121  0.83788934  1
  H+  H20  1  0.76701614  0.12270140  0.32744844  1
  H+  H21  1  0.71992766  0.11194918  0.16409838  1
  H+  H22  1  0.13607746  0.86384638  0.48280556  1
  H+  H23  1  0.34953739  0.47308539  0.49130732  1
  H+  H24  1  0.39248365  0.29154512  0.50042773  1
  H+  H25  1  0.36352257  0.63878928  0.33827575  1
  H+  H26  1  0.46929605  0.36349343  0.31969679  1
  H+  H27  1  0.79469235  0.14466525  0.82186251  1
  H+  H28  1  0.36460755  1.00545301  0.50691619  1
  H+  H29  1  0.89757925  0.75226999  0.65898038  1
  H+  H30  1  0.35669565  0.40387114  0.11218051  1
  H+  H31  1  0.12027930  0.39449931  0.69037548  1
  H+  H32  1  0.11454354  0.63726802  0.15482436  1
  H+  H33  1  0.13024915  -0.01218104  0.49826127  1
  H+  H34  1  0.36473203  0.49338815  0.82360321  1
  H+  H35  1  0.86277007  0.38577832  0.30811438  1
  H+  H36  1  0.11910090  0.35008646  0.99175461  1
  H+  H37  1  0.89546999  0.86716340  0.99386971  1
  H+  H38  1  0.64320898  0.85971906  0.32352930  1
  H+  H39  1  0.14087256  0.57220037  0.91974861  1
  H+  H40  1  0.36966948  0.25067634  0.03571017  1
  H+  H41  1  0.90340807  0.59707852  0.90527311  1
  H+  H42  1  0.16513070  0.84149411  0.92832165  1
  H+  H43  1  0.12423621  1.02270522  0.65545088  1
  H+  H44  1  0.10670398  0.22186998  0.00716119  1
  H+  H45  1  0.90004392  0.25923144  0.66905721  1
  H+  H46  1  0.32298468  0.05473004  0.53661241  1
  H+  H47  1  0.64030177  0.86176331  1.00463340  1
  H+  H48  1  0.26912573  0.87475823  0.48185216  1
  H+  H49  1  0.37044565  0.36931292  0.02845791  1
  H+  H50  1  0.14868117  0.86310877  0.32816666  1
  H+  H51  1  0.13317920  0.28080144  0.67048206  1
  H+  H52  1  0.06053424  0.36919360  0.87327433  1
  H+  H53  1  0.47095537  0.86012123  0.50601769  1
  H+  H54  1  0.60458176  0.91985343  0.75440718  1
  H+  H55  1  0.89826247  0.78563355  0.49550005  1
  H+  H56  1  1.04125621  0.14628102  0.48380593  1
  H+  H57  1  0.39428656  0.51321883  0.18062717  1
  H+  H58  1  0.37853468  1.02287601  0.16495013  1
  H+  H59  1  0.77848361  0.64768172  0.50576049  1
  H+  H60  1  0.15636986  0.37408914  0.83474551  1
  H+  H61  1  0.89259671  0.86705872  0.16440612  1
  H+  H62  1  0.76769566  0.63951056  0.16610347  1
  H+  H63  1  0.81502356  0.12655852  0.38817124  1
  H+  H64  1  0.39318278  0.03895247  0.99266783  1
  H+  H65  1  0.45958521  0.88748076  0.84883114  1
  H+  H66  1  0.83262236  0.46460185  0.54263603  1
  H+  H67  1  0.73671010  0.12061672  0.68587992  1
  H+  H68  1  0.13798489  0.26936102  0.17078018  1
  H+  H69  1  0.85318667  0.63612252  0.83317833  1
  H+  H70  1  0.86440472  -0.02032508  0.15827647  1
  H+  H71  1  0.61133157  0.63097082  0.34369755  1
  H+  H72  1  0.38328868  0.12223931  0.16747509  1
  H+  H73  1  0.88244642  0.85810389  0.85390687  1
  H+  H74  1  0.92055484  0.03864559  0.63518152  1
  H+  H75  1  0.63183013  0.61404388  0.17821940  1
  H+  H76  1  0.63994698  0.54013979  0.51746937  1
  H+  H77  1  0.40021158  0.39433296  0.83702311  1
  H+  H78  1  0.71685337  0.12045019  0.46976365  1
  H+  H79  1  0.35745011  0.47678066  0.34011172  1
  H+  H80  1  0.98257512  0.11580553  0.84779280  1
  H+  H81  1  0.36417365  0.89079368  0.68352030  1
  H+  H82  1  0.59954892  0.22093857  0.15921949  1
  H+  H83  1  0.66805898  0.02893590  0.84595139  1
  H+  H84  1  0.10835664  0.47390925  0.33922778  1
  H+  H85  1  0.85243289  0.17776621  0.73337294  1
  H+  H86  1  0.52214113  0.89205699  0.66756930  1
  H+  H87  1  0.90086727  0.89434710  0.63098261  1
  H+  H88  1  0.38238030  0.86009574  0.50549590  1
  H+  H89  1  0.72106771  0.61303387  0.83532471  1
  H+  H90  1  0.83759453  0.37939697  0.54393469  1
  H+  H91  1  0.87718449  0.14095822  0.67007896  1
  H+  H92  1  0.21876740  0.12560583  0.84029823  1
  H+  H93  1  0.41690417  0.34212235  0.59752685  1
  H+  H94  1  0.60016398  0.46674153  0.33511391  1
  H+  H95  1  0.95147119  0.36909807  0.85680533  1
  H+  H96  1  0.24177649  0.37224015  0.83849144  1
  H+  H97  1  0.61668901  0.98570324  0.47959628  1
  H+  H98  1  0.11569847  0.73381028  0.82510259  1
  H+  H99  1  0.00067696  0.62864531  0.66446745  1
  H+  H100  1  0.21942926  0.61218327  0.50511785  1
  H+  H101  1  0.14197400  0.86426304  0.17114674  1
  H+  H102  1  0.88338070  1.02378390  0.00298079  1
  H+  H103  1  0.89523794  0.61667465  0.67435010  1
  H+  H104  1  0.14446308  0.77969326  0.98532695  1
  H+  H105  1  0.60794296  0.38861323  0.82433347  1
  H+  H106  1  0.99413349  0.36442245  0.67579218  1
  H+  H107  1  0.75082714  0.86519489  0.68023970  1
  H+  H108  1  0.63146737  0.52240645  0.83265363  1
  H+  H109  1  0.36758641  0.15707463  0.47561627  1
  H+  H110  1  0.52122426  0.39807933  0.82188463  1
  H+  H111  1  0.67020480  0.59709920  0.71946831  1
  H+  H112  1  0.93201748  0.81166091  0.31777317  1
  H+  H113  1  0.88079496  0.61562373  0.52097583  1
  H+  H114  1  0.36971756  0.18129993  0.82731713  1
  H+  H115  1  0.46008483  0.60761951  0.65401677  1
  H+  H116  1  0.88718405  0.26773222  0.32693850  1
  H+  H117  1  0.14875145  0.11548595  0.50277379  1
  H+  H118  1  0.38584876  0.77728111  0.17026645  1
  H+  H119  1  0.58062980  0.71049070  0.54275690  1
  H+  H120  1  0.87961885  0.62316769  0.00043916  1
  H+  H121  1  0.53127586  0.89738622  0.00392959  1
  H+  H122  1  0.78469554  0.88853406  0.32861328  1
  H+  H123  1  0.03224580  0.89153475  0.15432571  1
  H+  H124  1  0.36624770  0.89712043  0.15979459  1
  H+  H125  1  0.90837554  0.88582422  0.31515390  1
  H+  H126  1  0.59994111  0.92124784  0.53404971  1
  H+  H127  1  0.88715188  0.35483218  0.17225348  1
  H+  H128  1  0.10639909  0.38450820  0.34349007  1
  H+  H129  1  0.11198991  0.13645800  0.82810361  1
  H+  H130  1  0.27869734  0.89810575  1.00109630  1
  H+  H131  1  0.61805170  0.32114080  0.55527566  1
  H+  H132  1  0.62418203  0.11088226  0.46591002  1
  H+  H133  1  1.02804821  0.64214202  0.15449094  1
  H+  H134  1  0.05862145  0.91374880  0.33638027  1
  H+  H135  1  0.40106934  0.88154863  -0.00716862  1
  H+  H136  1  0.14227725  0.77540559  0.16787778  1
  H+  H137  1  0.14046086  1.02234003  0.16655188  1
  H+  H138  1  0.36254170  0.23398921  0.66995009  1
  H+  H139  1  0.88564896  0.53580131  0.17750626  1
  H+  H140  1  0.60881803  0.38690505  0.67338677  1
  H+  H141  1  0.51324131  0.39638598  0.15790574  1
  H+  H142  1  -0.02497148  0.11595950  0.16019568  1
  H+  H143  1  0.14057532  0.52560451  0.16751329  1
  H+  H144  1  0.58558995  0.22327457  0.48276735  1
  H+  H145  1  1.00460213  0.64235711  0.35011265  1
  H+  H146  1  0.48682879  0.11993168  0.98910588  1
  H+  H147  1  0.12806329  0.60820866  0.51083549  1
  H+  H148  1  0.59532979  0.46969248  0.00208941  1
  H+  H149  1  0.97116014  0.37495366  0.51739104  1
  H+  H150  1  0.45105340  0.33092925  0.00717263  1
  H+  H151  1  0.52252713  0.14409896  0.67496825  1
  H+  H152  1  0.35894715  0.39086127  0.66863924  1
  H+  H153  1  0.59109114  0.71639928  0.65776707  1
  H+  H154  1  0.36400909  0.63887374  0.16090550  1
  H+  H155  1  1.00338996  0.86108897  0.80613606  1
  H+  H156  1  0.87326020  0.15640808  0.49134817  1
  H+  H157  1  0.47343487  0.36727250  0.65870757  1
  H+  H158  1  0.37678498  0.74837119  1.01270466  1
  H+  H159  1  0.38204354  0.37372402  0.50460325  1
  H+  H160  1  0.09687270  0.49742458  -0.02639273  1
  H+  H161  1  0.88987730  0.11157553  0.31422768  1
  H+  H162  1  0.87979215  0.51745041  0.31121742  1
  H+  H163  1  0.38753986  0.77933756  0.66308109  1
  H+  H164  1  0.11426271  0.23097879  0.32951964  1
  H+  H165  1  0.14608741  0.80557499  0.43455836  1
  H+  H166  1  0.23350586  0.86563674  0.67223808  1
  H+  H167  1  0.77928237  0.89113399  0.86701813  1
  H+  H168  1  0.07131181  0.46082341  0.88165870  1
  H+  H169  1  0.52144082  0.88534479  0.15856537  1
  H+  H170  1  0.61559429  -0.02160921  0.67266829  1
  H+  H171  1  0.65765917  0.57721933  0.27013433  1
  H+  H172  1  0.61024590  0.63711826  0.82415351  1
  H+  H173  1  0.64505149  0.77225615  0.32547782  1
  H+  H174  1  0.37644742  0.52956815  0.99346879  1
  H+  H175  1  0.89421739  1.02543049  0.31051384  1
  H+  H176  1  0.59666524  0.63145680  0.66926465  1
  H+  H177  1  0.27489046  0.89304775  0.16102454  1
  H+  H178  1  0.36139051  0.14430599  0.67748371  1
  H+  H179  1  0.86915246  0.10471367  0.99694145  1
  H+  H180  1  0.62987400  0.51198212  0.68021721  1
  H+  H181  1  0.37423541  0.10977861  0.34633545  1
  H+  H182  1  0.90549560  1.05095373  0.49431255  1
  H+  H183  1  0.63770523  0.01710156  0.31726752  1
  H+  H184  1  0.37095581  0.51986230  0.65439907  1
  H+  H185  1  0.15826941  0.08610697  0.89814410  1
  H+  H186  1  0.39042257  0.77339535  0.32278197  1
  H+  H187  1  0.97295045  0.63034979  0.99445594  1
  H+  H188  1  0.51729207  0.63755618  0.00758581  1
  H+  H189  1  0.47611318  0.61885734  0.84290560  1
  H+  H190  1  0.88466882  0.28488241  0.52471516  1
  H+  H191  1  0.27387619  0.64686616  0.67546018  1
  H+  H192  1  0.86409312  0.24257659  0.81832083  1
  H+  H193  1  0.41048442  0.58679263  0.93330380  1
  H+  H194  1  0.09015207  0.62452436  -0.00971825  1
  H+  H195  1  1.02807576  0.88396400  1.00846102  1
  H+  H196  1  0.16128801  0.32897499  0.93538845  1
  H+  H197  1  0.39017888  0.30333517  0.83812664  1
  H+  H198  1  0.80897388  0.91505216  0.47339985  1
  H+  H199  1  0.47457371  0.61197117  0.32975572  1
  H+  H200  1  0.35501762  0.72470042  0.49101688  1
  H+  H201  1  0.97584475  0.35883745  0.32972041  1
  H+  H202  1  0.67113264  0.79615164  0.48758072  1
  H+  H203  1  0.77400806  0.38693534  0.30291594  1
  H+  H204  1  0.11760723  0.73220574  0.66833022  1
  H+  H205  1  0.71052975  0.37274922  0.84028548  1
  H+  H206  1  0.61048751  0.72513508  0.16026250  1
  H+  H207  1  0.85643028  0.13531171  0.14662444  1
  H+  H208  1  0.86411615  0.47690882  0.68303450  1
  H+  H209  1  0.65692332  0.10964347  0.84691982  1
  H+  H210  1  0.39452086  0.86428375  0.32433619  1
  H+  H211  1  0.66839142  0.83189742  0.22865232  1
  H+  H212  1  0.89692854  0.91634918  0.47628060  1
  H+  H213  1  0.83242302  0.68993932  0.35193945  1
  H+  H214  1  0.98961110  0.13080372  0.65541178  1
  H+  H215  1  0.61584589  0.13424961  0.32870632  1
  H+  H216  1  -0.03512153  0.60520217  0.51816333  1
  H+  H217  1  0.93065185  0.10645310  0.55596863  1
  H+  H218  1  0.34813236  0.86552896  0.83689113  1
  H+  H219  1  0.22796494  0.11471258  0.16696944  1
  H+  H220  1  0.06831980  0.41639397  0.43715768  1
  H+  H221  1  0.17116137  0.82634614  0.26892059  1
  H+  H222  1  0.77606293  0.30654457  0.11416738  1
  H+  H223  1  0.36889542  0.65664357  0.00944000  1
  H+  H224  1  1.05919392  0.89833504  0.74407648  1
  H+  H225  1  0.71064145  0.59117007  0.33260865  1
  H+  H226  1  0.85917285  0.22409055  0.15226433  1
  H+  H227  1  0.36093473  0.97263830  0.35056997  1
  H+  H228  1  0.38310550  0.02289525  0.67479910  1
  H+  H229  1  0.27836875  0.15164629  0.49013235  1
  H+  H230  1  0.99386663  0.96303535  0.63324790  1
  H+  H231  1  0.63700243  0.86249811  0.17033896  1
  H+  H232  1  0.11743494  0.22861615  0.82711936  1
  H+  H233  1  0.13026069  0.10734879  0.99185007  1
  H+  H234  1  0.66866655  0.88264282  0.48367502  1
  H+  H235  1  0.08057251  0.41250416  0.07496564  1
  H+  H236  1  0.26806367  0.38898288  0.67354613  1
  H+  H237  1  1.02586678  0.13905584  0.32435339  1
  H+  H238  1  0.27753158  0.87887417  0.33902907  1
  H+  H239  1  0.13399211  0.02166996  0.98883493  1
  H+  H240  1  0.38068457  0.74764152  0.83292264  1
  H+  H241  1  0.60308920  0.13199355  0.16116307  1
  H+  H242  1  0.88562090  0.77470088  0.99875283  1
  H+  H243  1  0.25490434  0.64956945  0.85838340  1
  H+  H244  1  0.84856892  0.61050693  0.34454307  1
  H+  H245  1  0.13389393  0.12841835  0.31171257  1
  H+  H246  1  0.52770822  0.10476273  0.82826110  1
  H+  H247  1  0.62720806  0.98000825  0.00940428  1
  H+  H248  1  0.76075211  0.63685636  1.00690527  1
  H+  H249  1  0.62998425  0.35698813  0.32007160  1
  H+  H250  1  0.62682499  0.27285468  0.98806612  1
  H+  H251  1  0.11520855  0.63935844  0.66661287  1
  H+  H252  1  0.78202033  0.61578252  0.68335356  1
  H+  H253  1  0.63546213  0.27082887  0.31579725  1
  H+  H254  1  0.87301847  0.97761978  0.86660909  1
  H+  H255  1  0.13885122  0.53035245  0.66644812  1
  H+  H256  1  0.11117471  0.13658919  0.15686046  1
  H+  H257  1  0.87155797  0.53482444  0.84775416  1
  H+  H258  1  0.11945929  0.38520877  0.16150938  1
  H+  H259  1  0.66705294  0.09505057  0.73708791  1
  H+  H260  1  0.39180213  0.08534800  0.84060258  1
  H+  H261  1  0.50206317  0.13117735  0.47847385  1
  H+  H262  1  0.92799177  0.84335122  0.55295629  1
  H+  H263  1  0.72166825  0.84265154  0.70671847  1
  H+  H264  1  0.54983160  0.88937632  0.81366158  1
  H+  H265  1  0.08341498  0.17186785  0.73622588  1
  H+  H266  1  0.92074406  0.43165693  0.02123706  1
  H+  H267  1  0.12552592  0.37018177  0.51690720  1
  H+  H268  1  1.02914008  0.38393993  0.16336131  1
  H+  H269  1  0.09598903  0.71085101  0.49836557  1
  H+  H270  1  0.10957675  0.91031800  0.65659670  1
  H+  H271  1  0.39187954  0.62787894  0.84155266  1
  H+  H272  1  0.64094929  0.27801867  0.65349503  1
  H+  H273  1  0.16898988  1.09256847  0.24963214  1
  H+  H274  1  0.82975683  0.40141591  0.09194067  1
  H+  H275  1  0.93066901  0.09406251  0.91025547  1
  H+  H276  1  0.61535879  0.35471897  -0.01000804  1
  H+  H277  1  0.47522600  0.11591583  0.16410153  1
  H+  H278  1  0.64727778  0.86595828  0.84217015  1
  H+  H279  1  0.11464597  0.14541825  0.67479541  1
  H+  H280  1  0.70513306  0.35136319  0.16139617  1
  H+  H281  1  0.16984179  0.65634318  0.85031658  1
  H+  H282  1  0.46338741  0.61029155  0.50525018  1
  H+  H283  1  0.35581920  0.38741996  0.33744488  1
  H+  H284  1  0.60949058  0.72370603  0.01177947  1
  H+  H285  1  0.85383125  0.72624478  0.82495533  1
  H+  H286  1  0.40090835  0.57835480  0.56237253  1
  H+  H287  1  0.12137558  0.85682835  0.82786564  1
  H+  H288  1  0.34621600  0.68382560  0.77333313  1
  H+  H289  1  0.57121116  0.41215214  0.39480313  1
  H+  H290  1  0.68121374  0.11078905  0.57657717  1
  H+  H291  1  0.01711852  0.13513763  0.01471101  1
  H+  H292  1  0.33933396  0.91030140  0.43047455  1
  H+  H293  1  0.32974165  0.66835242  0.39542259  1
  H+  H294  1  0.82483714  0.43074726  0.77720845  1
  H+  H295  1  0.03730273  0.90055058  0.49265990  1
  H+  H296  1  0.35793908  0.95844919  0.83685750  1
  H+  H297  1  0.65226020  0.33011215  0.22374621  1
  H+  H298  1  0.23080381  0.35260777  0.17616693  1
  H+  H299  1  0.70649225  0.09648427  0.94232658  1
  H+  H300  1  0.79112859  0.14790870  0.05253259  1
  H+  H301  1  0.33084697  0.91205572  0.74621621  1
  H+  H302  1  0.64480674  0.33396086  0.89495384  1
  H+  H303  1  0.41665116  0.58095769  0.26971573  1
  H+  H304  1  0.92238317  0.59165597  0.60577760  1
  H+  H305  1  0.85381819  0.46367938  0.42399613  1
  H+  H306  1  0.10369479  0.92672071  0.40072243  1
  H+  H307  1  0.40832174  0.34564859  0.26107136  1
  H+  H308  1  0.81689066  0.66569308  0.06868993  1
  H+  H309  1  0.57891572  0.66207858  0.10252020  1
  H+  H310  1  0.63712622  0.07186317  0.57694645  1
  H+  H311  1  0.15819053  0.34456746  0.61240171  1
  H+  H312  1  0.16550611  0.58192260  0.60257707  1
  H+  H313  1  0.58540580  0.66699616  0.40137402  1
  H+  H314  1  0.31884649  0.17984040  0.38892763  1
  H+  H315  1  0.92243535  0.81996093  0.89733689  1
  H+  H316  1  0.67369444  0.59152733  0.58047452  1
  H+  H317  1  0.58829193  0.16767613  0.38692904  1
  H+  H318  1  0.86310765  0.42743152  0.42645384  1
  H+  H319  1  0.59685848  0.38551624  0.15888320  1
  H+  H320  1  0.66611638  0.07645486  0.25715162  1
  H+  H321  1  0.86627960  0.95320258  0.75754704  1
  H+  H322  1  0.35194835  0.63448817  0.49076537  1
  H+  H323  1  0.71598209  0.35240638  0.61010262  1
  H+  H324  1  0.83767144  0.65558746  0.74516115  1
  H+  H325  1  0.40737529  0.07384157  0.61215713  1
  H+  H326  1  0.58944811  0.16181233  0.77521746  1
  H+  H327  1  0.66396464  0.83508076  0.58363412  1
  H+  H328  1  0.63117354  0.52505965  0.17689125  1
  H+  H329  1  0.09998250  0.67557867  0.76699618  1
  H+  H330  1  0.42216323  0.84350416  0.93271649  1
  H+  H331  1  0.34135694  0.67713104  0.10154643  1
  H+  H332  1  0.17673429  0.09397876  0.56756961  1
  H+  H333  1  0.84048982  0.91825391  0.06919790  1
  H+  H334  1  0.85386534  0.93111005  0.38357619  1
  H+  H335  1  0.88263677  0.62205548  0.17113489  1
  H+  H336  1  0.58350266  0.91034843  0.39067283  1
  H+  H337  1  0.33678930  0.43210872  0.76346573  1
  H+  H338  1  0.18493545  0.84447094  0.60907192  1
  H+  H339  1  0.09511651  0.92091935  0.09719674  1
  H+  H340  1  0.65710497  0.58025181  0.93017310  1
  H+  H341  1  0.58324205  0.91582917  0.10011585  1
  H+  H342  1  0.47633509  0.60653378  0.17484881  1
  H+  H343  1  0.08760576  0.42771321  0.74805538  1
  H+  H344  1  0.93193600  0.84535682  0.22150600  1
  H+  H345  1  0.63194195  0.02079724  0.16618588  1
  H+  H346  1  0.69551735  0.35556203  0.51276345  1
  H+  H347  1  0.05897535  0.65027697  0.44331549  1
  H+  H348  1  0.46351914  1.11212975  0.34560058  1
  H+  H349  1  0.21719083  0.11372189  0.66269711  1
  H+  H350  1  0.95870909  0.30529804  1.01613632  1
  H+  H351  1  0.41838565  0.83778787  0.22855551  1
  H+  H352  1  0.82661035  0.65264468  0.44384911  1
  H+  H353  1  0.41282816  0.83699711  0.60306639  1
  H+  H354  1  0.57175883  0.41827367  0.06441371  1
  H+  H355  1  0.09075107  0.15667201  0.42230261  1
  H+  H356  1  0.57713438  0.41164967  0.73680276  1
  H+  H357  1  0.33382290  0.92755075  0.06229330  1
  H+  H358  1  0.77617022  0.88818033  0.16077475  1
  H+  H359  1  0.93353818  0.33764772  0.61110291  1
  H+  H360  1  0.98221220  0.84657596  0.64919794  1
  H+  H361  1  0.85894360  0.72832003  0.15995226  1
  H+  H362  1  0.22811076  0.61573881  0.16844425  1
  H+  H363  1  0.16380831  0.57419319  0.26409418  1
  H+  H364  1  0.36420099  0.29401807  0.16419448  1
  H+  H365  1  0.87508274  0.32123445  0.90402894  1
  H+  H366  1  0.08577845  0.66320724  0.05529348  1
  H+  H367  1  0.66678688  0.82999650  0.94573017  1
  H+  H368  1  0.63250026  0.14334845  0.00935792  1
  H+  H369  1  0.08426905  0.16931441  0.09754005  1
  H+  H370  1  0.58755530  0.16300429  0.06465684  1
  H+  H371  1  0.42755040  0.07774803  0.90623997  1
  H+  H372  1  0.63661316  0.77308281  0.84703392  1
  H+  H373  1  0.52381078  0.41617955  0.49117278  1
  H+  H374  1  0.33197745  0.18944589  0.76415365  1
  H+  H375  1  0.91920793  0.32821291  0.23190218  1
  H+  H376  1  0.31894515  0.41137115  0.43378508  1
  H+  H377  1  0.10219455  0.47842849  0.49550201  1
  H+  H378  1  0.91637612  0.08902020  0.21888579  1
  H+  H379  1  0.16340231  0.33440445  0.26595045  1
  H+  H380  1  0.22129017  0.36428955  0.32614340  1
  H+  H381  1  0.57676606  0.67005394  0.76792579  1
  H+  H382  1  0.90070340  0.95121577  0.73947304  1
  H+  H383  1  0.91397975  0.59872074  0.26904115  1
  O2-  O384  1  0.08259541  0.16909942  0.14408194  1
  O2-  O385  1  0.09541023  0.15418654  0.46683971  1
  O2-  O386  1  0.08330858  0.16971808  0.81106814  1
  O2-  O387  1  0.08875701  0.41512297  0.14645122  1
  O2-  O388  1  0.06511027  0.41724059  0.48262763  1
  O2-  O389  1  0.05905163  0.41447132  0.84976034  1
  O2-  O390  1  0.08713617  0.66972326  0.13797714  1
  O2-  O391  1  0.06324097  0.64834885  0.48944470  1
  O2-  O392  1  0.10340661  0.67585696  0.81134694  1
  O2-  O393  1  0.09441855  0.92243827  0.14344314  1
  O2-  O394  1  0.09897231  0.92864976  0.48010018  1
  O2-  O395  1  0.05505974  0.86996536  0.78414329  1
  O2-  O396  1  0.34223065  0.17752570  0.15232657  1
  O2-  O397  1  0.33498376  0.18633730  0.46765657  1
  O2-  O398  1  0.32957180  0.19624730  0.80960673  1
  O2-  O399  1  0.34704061  0.39577792  0.15999170  1
  O2-  O400  1  0.31986639  0.41149902  0.47918088  1
  O2-  O401  1  0.33648282  0.43237046  0.80884091  1
  O2-  O402  1  0.33623552  0.67169944  0.14792376  1
  O2-  O403  1  0.32201455  0.66483499  0.47519184  1
  O2-  O404  1  0.35355543  0.68483762  0.81785486  1
  O2-  O405  1  0.33601951  0.92841520  0.14636536  1
  O2-  O406  1  0.33285686  0.90900689  0.47633075  1
  O2-  O407  1  0.32169527  0.90063619  0.81855931  1
  O2-  O408  1  0.57034882  0.15949792  0.14504750  1
  O2-  O409  1  0.56267152  0.16375787  0.46706314  1
  O2-  O410  1  0.58479586  0.12440827  0.80923223  1
  O2-  O411  1  0.57421973  0.42393187  0.14606422  1
  O2-  O412  1  0.58540550  0.44686216  0.47783425  1
  O2-  O413  1  0.58178344  0.42307531  0.80448400  1
  O2-  O414  1  0.57982672  0.66314964  0.14815270  1
  O2-  O415  1  0.58574199  0.68243212  0.50583726  1
  O2-  O416  1  0.58080452  0.67036142  0.81271870  1
  O2-  O417  1  0.58325490  0.91557870  0.14574091  1
  O2-  O418  1  0.59155468  0.92194049  0.49023891  1
  O2-  O419  1  0.60909053  0.92389830  0.79989939  1
  O2-  O420  1  0.82440972  0.16534326  0.13470091  1
  O2-  O421  1  0.84066715  0.18742062  0.47967969  1
  O2-  O422  1  0.84617749  0.18640346  0.79884523  1
  O2-  O423  1  0.80202503  0.36481563  0.13023024  1
  O2-  O424  1  0.79725980  0.40166168  0.54838140  1
  O2-  O425  1  0.81912834  0.43214102  0.82245654  1
  O2-  O426  1  0.82625985  0.66637606  0.14763417  1
  O2-  O427  1  0.83642878  0.66960098  0.48757567  1
  O2-  O428  1  0.82227882  0.66422825  0.81035003  1
  O2-  O429  1  0.83712993  0.91742397  0.14680860  1
  O2-  O430  1  0.86954542  0.94811173  0.45876973  1
  O2-  O431  1  0.84123098  0.91363722  0.87214929  1
  O2-  O432  1  0.16783515  0.08368685  0.18217946  1
  O2-  O433  1  0.18387387  0.09187629  0.52192018  1
  O2-  O434  1  0.15829694  0.09076668  0.85237607  1
  O2-  O435  1  0.16993176  0.32991740  0.18719808  1
  O2-  O436  1  0.15732021  0.34683165  0.53885573  1
  O2-  O437  1  0.18010280  0.34124004  0.85326135  1
  O2-  O438  1  0.16671501  0.58592367  0.18187140  1
  O2-  O439  1  0.16137708  0.58034979  0.52468516  1
  O2-  O440  1  0.20401984  0.64325128  0.88021372  1
  O2-  O441  1  0.17257670  0.83421398  0.18616884  1
  O2-  O442  1  0.15862712  0.82244850  0.47731162  1
  O2-  O443  1  0.15469373  0.83664282  0.85335339  1
  O2-  O444  1  0.41225620  0.08663469  0.17895929  1
  O2-  O445  1  0.37914535  0.06192955  0.52679566  1
  O2-  O446  1  0.42596321  0.06389163  0.85967065  1
  O2-  O447  1  0.39695013  0.35450679  0.17934752  1
  O2-  O448  1  0.42008983  0.35035806  0.51809143  1
  O2-  O449  1  0.42981028  0.36316038  0.85074332  1
  O2-  O450  1  0.41652818  0.57412470  0.19149762  1
  O2-  O451  1  0.40211280  0.57940240  0.51645188  1
  O2-  O452  1  0.41534411  0.59010234  0.85698379  1
  O2-  O453  1  0.41633113  0.83922086  0.18319597  1
  O2-  O454  1  0.41188087  0.82935029  0.52222235  1
  O2-  O455  1  0.40934704  0.83534211  0.86251118  1
  O2-  O456  1  0.66024553  0.08198182  0.18094114  1
  O2-  O457  1  0.65727152  0.08162549  0.45675634  1
  O2-  O458  1  0.69473710  0.08755831  0.86280818  1
  O2-  O459  1  0.64593198  0.32685044  0.17819368  1
  O2-  O460  1  0.63164371  0.32830009  0.51144320  1
  O2-  O461  1  0.64799594  0.33928528  0.84936612  1
  O2-  O462  1  0.66244756  0.58438799  0.19448643  1
  O2-  O463  1  0.67218336  0.59917177  0.53645289  1
  O2-  O464  1  0.65891061  0.58344820  0.84812983  1
  O2-  O465  1  0.66784261  0.83169367  0.18334607  1
  O2-  O466  1  0.70526847  0.85841981  0.49569440  1
  O2-  O467  1  0.66408686  0.83060610  0.86668369  1
  O2-  O468  1  0.91335312  0.08643531  0.17350691  1
  O2-  O469  1  0.92741944  0.11000075  0.51063485  1
  O2-  O470  1  0.92432328  0.08376097  0.86599828  1
  O2-  O471  1  0.92175821  0.32919820  0.18639230  1
  O2-  O472  1  0.91586844  0.34392194  0.54181360  1
  O2-  O473  1  0.88737390  0.33405035  0.86094622  1
  O2-  O474  1  0.91758117  0.59669246  0.18774129  1
  O2-  O475  1  0.90719654  0.58258706  0.53868893  1
  O2-  O476  1  0.89964895  0.59626129  0.86019539  1
  O2-  O477  1  0.92330540  0.83573796  0.17688879  1
  O2-  O478  1  0.92990749  0.84697210  0.50790261  1
  O2-  O479  1  0.91040997  0.82078734  0.85346436  1
  O2-  O480  1  0.16864232  0.09940956  0.29671600  1
  O2-  O481  1  0.16052162  0.08951238  0.64289424  1
  O2-  O482  1  0.16048907  0.08058513  0.97217941  1
  O2-  O483  1  0.16039853  0.33267765  0.31137467  1
  O2-  O484  1  0.16183180  0.34338832  0.65856662  1
  O2-  O485  1  0.15053424  0.32078591  0.97954234  1
  O2-  O486  1  0.16256922  0.56839695  0.30895462  1
  O2-  O487  1  0.16626120  0.58848209  0.64801044  1
  O2-  O488  1  0.08469593  0.52467693  0.93932107  1
  O2-  O489  1  0.17341160  0.82638815  0.31412829  1
  O2-  O490  1  0.17489032  0.83468159  0.65248575  1
  O2-  O491  1  0.17335290  0.84116872  0.97374631  1
  O2-  O492  1  0.40408257  0.07960149  0.36076835  1
  O2-  O493  1  0.41243359  0.08225287  0.65663939  1
  O2-  O494  1  0.42807730  0.09552030  0.97236214  1
  O2-  O495  1  0.40818473  0.33712267  0.30558400  1
  O2-  O496  1  0.41331131  0.33862581  0.64291753  1
  O2-  O497  1  0.38742211  0.29940211  1.00746113  1
  O2-  O498  1  0.41429163  0.58201485  0.31525901  1
  O2-  O499  1  0.40018817  0.58046132  0.63815402  1
  O2-  O500  1  0.41173661  0.58868405  0.97914451  1
  O2-  O501  1  0.42443243  0.83431306  0.30775652  1
  O2-  O502  1  0.41715910  0.84054642  0.64827498  1
  O2-  O503  1  0.43219967  0.85181943  0.97933815  1
  O2-  O504  1  0.66921333  0.07767543  0.30283892  1
  O2-  O505  1  0.67351335  0.09033226  0.69336033  1
  O2-  O506  1  0.70237517  0.09571558  0.98821269  1
  O2-  O507  1  0.66086299  0.33089292  0.29987428  1
  O2-  O508  1  0.66776924  0.33896636  0.63822925  1
  O2-  O509  1  0.64826230  0.33045385  0.97066740  1
  O2-  O510  1  0.65213588  0.57129732  0.31581380  1
  O2-  O511  1  0.66520027  0.57818377  0.67718897  1
  O2-  O512  1  0.65652153  0.57805764  0.97552130  1
  O2-  O513  1  0.67596679  0.83176760  0.30898070  1
  O2-  O514  1  0.61266506  0.80350191  0.60923176  1
  O2-  O515  1  0.66876597  0.82904479  0.99107742  1
  O2-  O516  1  0.92409409  0.08688146  0.29695974  1
  O2-  O517  1  0.93127946  0.09905175  0.63558882  1
  O2-  O518  1  0.91199977  0.08636853  0.99207616  1
  O2-  O519  1  0.91689312  0.32671011  0.31077040  1
  O2-  O520  1  0.93498060  0.32791165  0.65684212  1
  O2-  O521  1  0.97609465  0.36494662  1.02595978  1
  O2-  O522  1  0.90581048  0.58319118  0.31291423  1
  O2-  O523  1  0.93131375  0.59199218  0.65260089  1
  O2-  O524  1  0.91089432  0.59468023  0.98403249  1
  O2-  O525  1  0.94911836  0.86684790  0.29910419  1
  O2-  O526  1  0.92468237  0.80173517  0.63119941  1
  O2-  O527  1  0.92384489  0.83360238  0.98272296  1
  O2-  O528  1  0.07890822  0.16325119  0.02629002  1
  O2-  O529  1  0.08675000  0.16754400  0.33918932  1
  O2-  O530  1  0.08581042  0.17727766  0.69028557  1
  O2-  O531  1  0.07021529  0.40754602  0.02863126  1
  O2-  O532  1  0.07554008  0.41415882  0.35800594  1
  O2-  O533  1  0.08787305  0.42520420  0.70351787  1
  O2-  O534  1  0.08053060  0.66786852  0.01057314  1
  O2-  O535  1  0.05754862  0.67744506  0.37417253  1
  O2-  O536  1  0.08323387  0.66946536  0.68022128  1
  O2-  O537  1  0.08873906  0.91587825  0.02348683  1
  O2-  O538  1  0.11107666  0.92215524  0.35639520  1
  O2-  O539  1  0.07212059  0.93235746  0.66922437  1
  O2-  O540  1  0.34254893  0.16375200  0.09259953  1
  O2-  O541  1  0.31833830  0.17401506  0.34370161  1
  O2-  O542  1  0.33183493  0.17611784  0.68965608  1
  O2-  O543  1  0.37237248  0.42439754  0.04616067  1
  O2-  O544  1  0.32429781  0.41555889  0.35387766  1
  O2-  O545  1  0.33063302  0.42264096  0.68452358  1
  O2-  O546  1  0.34576550  0.68936903  0.03015991  1
  O2-  O547  1  0.33432531  0.67135890  0.35018019  1
  O2-  O548  1  0.33521458  0.67683050  0.68809721  1
  O2-  O549  1  0.33858530  0.93080849  0.01744478  1
  O2-  O550  1  0.33784846  0.90922972  0.35536078  1
  O2-  O551  1  0.33312133  0.91925347  0.70003166  1
  O2-  O552  1  0.59340816  0.16498055  0.01973898  1
  O2-  O553  1  0.58798016  0.16751806  0.34186892  1
  O2-  O554  1  0.58458605  0.18103983  0.68521918  1
  O2-  O555  1  0.56378219  0.41087143  0.01976563  1
  O2-  O556  1  0.56997450  0.40576997  0.35001451  1
  O2-  O557  1  0.57654522  0.41384123  0.68925854  1
  O2-  O558  1  0.57662093  0.66159077  0.02417414  1
  O2-  O559  1  0.58548702  0.66684096  0.35695026  1
  O2-  O560  1  0.56527521  0.66132628  0.68080747  1
  O2-  O561  1  0.59025279  0.92032376  0.02312379  1
  O2-  O562  1  0.58585735  0.90989039  0.34636078  1
  O2-  O563  1  0.58484670  0.91473058  0.67647569  1
  O2-  O564  1  0.79320622  0.14718414  0.00710800  1
  O2-  O565  1  0.82638585  0.14910811  0.34673410  1
  O2-  O566  1  0.85151404  0.17611250  0.68549268  1
  O2-  O567  1  0.87396147  0.44248732  0.03103768  1
  O2-  O568  1  0.83700769  0.42137113  0.29698020  1
  O2-  O569  1  0.82923656  0.42091753  0.70263930  1
  O2-  O570  1  0.82037616  0.66914643  0.02350643  1
  O2-  O571  1  0.81055914  0.63143486  0.36603652  1
  O2-  O572  1  0.84187603  0.64694965  0.69824477  1
  O2-  O573  1  0.84178631  0.92078410  0.02376613  1
  O2-  O574  1  0.84739257  0.92349850  0.33811705  1
  O2-  O575  1  0.93779062  0.95516756  0.61993568  1
