# generated using pymatgen
data_H2O
_symmetry_space_group_name_H-M   'P 1'
_cell_length_a   17.98916255
_cell_length_b   17.99548282
_cell_length_c   22.00691133
_cell_angle_alpha   90.01322875
_cell_angle_beta   89.99998452
_cell_angle_gamma   120.00705574
_symmetry_Int_Tables_number   1
_chemical_formula_structural   H2O
_chemical_formula_sum   'H384 O192'
_cell_volume   6169.26289208
_cell_formula_units_Z   192
loop_
 _symmetry_equiv_pos_site_id
 _symmetry_equiv_pos_as_xyz
  1  'x, y, z'
loop_
 _atom_type_symbol
 _atom_type_oxidation_number
  H+  1.0
  O2-  -2.0
loop_
 _atom_site_type_symbol
 _atom_site_label
 _atom_site_symmetry_multiplicity
 _atom_site_fract_x
 _atom_site_fract_y
 _atom_site_fract_z
 _atom_site_occupancy
  H+  H0  1  0.11832231  -0.02470059  0.81511529  1
  H+  H1  1  0.74278249  0.37724442  0.33872958  1
  H+  H2  1  0.64885370  1.02116981  0.51168933  1
  H+  H3  1  0.40731303  0.24025472  0.14544902  1
  H+  H4  1  0.11498909  0.13975373  0.81377857  1
  H+  H5  1  0.86777952  0.77259444  0.84022380  1
  H+  H6  1  0.87092275  0.25758989  0.01860554  1
  H+  H7  1  0.31367971  0.85499075  0.00831567  1
  H+  H8  1  0.64084913  0.12520339  0.66161128  1
  H+  H9  1  0.01618963  0.90340923  0.00482495  1
  H+  H10  1  0.86814963  0.22973905  0.49325089  1
  H+  H11  1  0.12791012  0.88139661  -0.01543819  1
  H+  H12  1  0.87390621  0.17133815  0.00901837  1
  H+  H13  1  0.77492777  0.13252281  0.67511683  1
  H+  H14  1  1.02314714  0.64133238  0.83806349  1
  H+  H15  1  0.80551871  0.88567258  0.07012028  1
  H+  H16  1  0.35603095  0.65209544  0.33807226  1
  H+  H17  1  0.62410309  0.77462440  0.32586577  1
  H+  H18  1  0.35711736  0.72611311  0.16226121  1
  H+  H19  1  0.88317665  0.63786685  0.32111044  1
  H+  H20  1  0.38552521  0.26595667  0.68749893  1
  H+  H21  1  0.77286038  0.94111651  0.42661464  1
  H+  H22  1  0.62867729  0.61605879  0.48827005  1
  H+  H23  1  0.63239795  0.86717021  0.32736377  1
  H+  H24  1  0.89158112  0.38701200  0.01886607  1
  H+  H25  1  0.87492503  0.27012142  0.83107739  1
  H+  H26  1  0.35970537  0.97016688  0.15855727  1
  H+  H27  1  0.97162637  0.09391562  0.98263995  1
  H+  H28  1  0.36442719  0.39826362  0.47793408  1
  H+  H29  1  0.84778689  0.87973949  0.82541625  1
  H+  H30  1  0.91823406  0.62404874  -0.00187244  1
  H+  H31  1  0.10653812  0.88548016  0.15709835  1
  H+  H32  1  0.23509505  0.92071022  0.62711613  1
  H+  H33  1  0.60853040  0.36915354  0.84838559  1
  H+  H34  1  -0.03024537  0.85530764  0.31573330  1
  H+  H35  1  0.13473703  0.77364765  0.84388125  1
  H+  H36  1  0.21168986  0.35677884  0.96521618  1
  H+  H37  1  0.60034113  0.52099900  1.04771135  1
  H+  H38  1  0.37089405  0.48919343  0.16981815  1
  H+  H39  1  0.77308263  0.11601209  0.82542107  1
  H+  H40  1  0.11022672  0.39036216  0.67150668  1
  H+  H41  1  0.14068656  0.74652707  0.99586784  1
  H+  H42  1  0.88549035  0.36353143  0.18316613  1
  H+  H43  1  0.12059920  0.88740077  0.81555460  1
  H+  H44  1  0.88470108  0.34324969  0.66081527  1
  H+  H45  1  0.63201755  0.04464585  0.84547922  1
  H+  H46  1  0.90424062  0.13001199  0.50644174  1
  H+  H47  1  0.37222016  0.24872452  0.13599989  1
  H+  H48  1  0.37940938  0.85887522  0.17223575  1
  H+  H49  1  0.87400481  1.01513464  -0.02298792  1
  H+  H50  1  0.48112797  0.63436926  0.32935834  1
  H+  H51  1  0.86150504  0.47601982  0.18241525  1
  H+  H52  1  0.51059334  0.39579674  0.18893572  1
  H+  H53  1  0.31742782  0.90717045  0.10216973  1
  H+  H54  1  0.21673574  0.86092908  0.17813069  1
  H+  H55  1  0.12621581  0.77274566  0.18407662  1
  H+  H56  1  0.41850019  0.29995002  0.34366098  1
  H+  H57  1  0.37252861  0.97083937  0.50399722  1
  H+  H58  1  0.38943045  0.87298559  0.32899757  1
  H+  H59  1  0.12404314  0.41298802  -0.00751636  1
  H+  H60  1  0.88228826  0.51466767  0.84094275  1
  H+  H61  1  0.59951190  0.23500802  0.01123952  1
  H+  H62  1  0.01357788  0.13987843  0.34408829  1
  H+  H63  1  0.54138214  0.14788893  0.33632431  1
  H+  H64  1  0.13106194  0.26385820  0.33197724  1
  H+  H65  1  0.07500599  0.16646808  0.75647801  1
  H+  H66  1  0.66131254  0.62686097  0.18833095  1
  H+  H67  1  0.35294230  0.72054660  0.01103894  1
  H+  H68  1  0.86597535  0.23489415  0.34351264  1
  H+  H69  1  0.61783568  0.92660409  0.82871695  1
  H+  H70  1  0.10510055  0.22717298  0.00026097  1
  H+  H71  1  0.88794482  0.86741705  0.65578633  1
  H+  H72  1  0.24897602  0.61351638  0.84011902  1
  H+  H73  1  0.90443507  0.62142906  0.64335070  1
  H+  H74  1  0.40975668  0.39724471  0.19156202  1
  H+  H75  1  1.08724490  0.65547273  1.02241498  1
  H+  H76  1  0.22624805  0.86255646  0.83927656  1
  H+  H77  1  0.47903736  0.12423746  0.65747296  1
  H+  H78  1  0.02875729  0.89053745  0.66764099  1
  H+  H79  1  0.13850682  0.26659932  0.50482604  1
  H+  H80  1  0.55451158  0.66620667  0.69683927  1
  H+  H81  1  0.60502677  0.11958939  0.49785168  1
  H+  H82  1  0.11280819  0.72340102  0.64390144  1
  H+  H83  1  0.87239537  0.85207822  0.99580644  1
  H+  H84  1  0.68672078  0.31092844  0.88942595  1
  H+  H85  1  1.03263549  0.63376022  0.30941758  1
  H+  H86  1  0.24661477  0.83479800  0.68382283  1
  H+  H87  1  0.53862953  0.39527331  0.69275205  1
  H+  H88  1  0.48193455  0.11284018  0.16635854  1
  H+  H89  1  0.01566504  0.88271791  0.15531994  1
  H+  H90  1  0.59683737  0.65005956  0.00923611  1
  H+  H91  1  0.74913307  0.62864279  0.63152083  1
  H+  H92  1  0.30532630  0.54540680  0.28892034  1
  H+  H93  1  0.48786491  0.38049525  0.47386521  1
  H+  H94  1  0.22586324  0.60605370  0.50579824  1
  H+  H95  1  0.51692591  0.87148328  0.15620771  1
  H+  H96  1  0.63485846  0.03296027  0.66626633  1
  H+  H97  1  0.39322436  0.12110515  0.33377941  1
  H+  H98  1  0.91856873  0.32081297  0.56518314  1
  H+  H99  1  0.65907583  0.90418320  0.01834395  1
  H+  H100  1  0.89185512  0.77280760  0.16762988  1
  H+  H101  1  0.83538584  0.60480901  0.48276173  1
  H+  H102  1  0.72575331  0.12857949  0.17770623  1
  H+  H103  1  0.63652203  0.39328889  0.34633286  1
  H+  H104  1  0.75988906  0.61432729  0.81565396  1
  H+  H105  1  0.52536465  0.89374418  0.67388875  1
  H+  H106  1  0.88388232  0.27358984  0.18148491  1
  H+  H107  1  0.13686648  1.02510618  0.65795941  1
  H+  H108  1  0.16258269  0.32390712  0.27217762  1
  H+  H109  1  0.47535227  0.12163571  0.83387215  1
  H+  H110  1  0.36703842  0.46707383  0.69751887  1
  H+  H111  1  0.10339022  0.47520556  0.67151362  1
  H+  H112  1  0.36364338  0.64067061  0.48692965  1
  H+  H113  1  0.08373594  0.12617284  0.66799182  1
  H+  H114  1  0.00213049  0.62666705  0.46597929  1
  H+  H115  1  0.65324515  0.52111258  0.33727645  1
  H+  H116  1  0.16220781  0.85114009  0.92557241  1
  H+  H117  1  0.68690609  0.60199683  1.06979945  1
  H+  H118  1  0.87966680  0.63380208  0.17636655  1
  H+  H119  1  0.22574442  0.11012758  0.83744358  1
  H+  H120  1  0.86829667  0.97631316  0.66540140  1
  H+  H121  1  0.60318121  0.42637100  0.43436743  1
  H+  H122  1  0.67122997  0.08339240  0.56952487  1
  H+  H123  1  0.42485028  0.33890050  0.63872911  1
  H+  H124  1  0.10773743  0.37706263  0.49299714  1
  H+  H125  1  0.90033073  0.78213051  0.99607352  1
  H+  H126  1  0.88166950  0.03256151  0.32229695  1
  H+  H127  1  0.10959063  0.63982245  0.83938552  1
  H+  H128  1  0.99552956  0.13747030  0.50690764  1
  H+  H129  1  0.47589968  0.62539479  0.16617719  1
  H+  H130  1  0.08547165  0.08525543  0.32104511  1
  H+  H131  1  0.82992606  0.91495229  0.72406813  1
  H+  H132  1  0.61415355  0.14698248  0.16321095  1
  H+  H133  1  0.64899566  0.76504179  0.49820793  1
  H+  H134  1  0.40424391  0.77459946  0.50471193  1
  H+  H135  1  0.34977454  0.47655627  1.02094507  1
  H+  H136  1  0.86992147  1.00924689  0.82752183  1
  H+  H137  1  0.86260560  0.14068625  0.16071909  1
  H+  H138  1  0.22595333  0.11732583  -0.00275960  1
  H+  H139  1  0.76580442  0.89010004  0.34379771  1
  H+  H140  1  0.07829628  0.72075896  0.47546556  1
  H+  H141  1  0.12198391  0.01606803  0.16906846  1
  H+  H142  1  0.13322636  0.60979351  0.64941175  1
  H+  H143  1  0.91738267  0.08749028  0.22794591  1
  H+  H144  1  0.59453399  0.72470632  -0.02829193  1
  H+  H145  1  0.17568238  0.86215268  0.49493688  1
  H+  H146  1  0.63740288  0.88570619  0.49153318  1
  H+  H147  1  0.11656737  0.51042659  0.83864722  1
  H+  H148  1  0.91304777  0.07347840  0.88843469  1
  H+  H149  1  0.62951277  0.27659641  0.16513182  1
  H+  H150  1  0.35620948  -0.02517498  0.34954097  1
  H+  H151  1  0.26432916  0.37324506  0.33778497  1
  H+  H152  1  0.60776667  0.15753640  0.81537995  1
  H+  H153  1  0.79326308  0.63070851  0.33141537  1
  H+  H154  1  0.33905826  0.08703788  0.14403653  1
  H+  H155  1  0.88998054  0.76290109  0.31302272  1
  H+  H156  1  0.96148619  0.36013115  0.82911590  1
  H+  H157  1  0.11498428  0.22813409  0.15939419  1
  H+  H158  1  0.21807183  0.60709379  0.17116766  1
  H+  H159  1  0.02520290  0.63578725  0.64175571  1
  H+  H160  1  0.22404661  0.87482760  0.33208421  1
  H+  H161  1  0.80889988  0.64294746  0.01603449  1
  H+  H162  1  0.59060857  0.91744591  0.40005166  1
  H+  H163  1  0.14113875  0.88528935  0.65534455  1
  H+  H164  1  0.25034020  0.88910271  1.00382209  1
  H+  H165  1  0.34728186  0.46626994  0.33061750  1
  H+  H166  1  0.22667617  0.36270973  0.18357004  1
  H+  H167  1  0.11116212  0.25504979  0.83067902  1
  H+  H168  1  0.36154624  0.97500900  0.81892717  1
  H+  H169  1  0.41668242  0.86837443  0.50495665  1
  H+  H170  1  0.35596824  0.22071606  0.83532723  1
  H+  H171  1  0.55862589  0.62027885  0.31785962  1
  H+  H172  1  0.50613213  0.85653894  0.99883833  1
  H+  H173  1  0.08461664  0.16475475  0.40096046  1
  H+  H174  1  0.74808268  0.38005571  0.65803029  1
  H+  H175  1  0.62717057  0.49981796  0.81167816  1
  H+  H176  1  0.37909001  0.51956170  0.49364813  1
  H+  H177  1  0.54610407  0.88095174  0.49593502  1
  H+  H178  1  0.12271901  0.02497625  0.99894940  1
  H+  H179  1  0.34766789  0.18378147  0.52663133  1
  H+  H180  1  0.65870813  0.36287866  0.94744089  1
  H+  H181  1  0.63083697  0.76292421  0.68342250  1
  H+  H182  1  0.13647442  0.60839742  0.32069124  1
  H+  H183  1  0.61690479  0.90132219  0.66941607  1
  H+  H184  1  0.38598832  0.11435553  0.65958648  1
  H+  H185  1  0.32873448  0.44976987  0.84399022  1
  H+  H186  1  0.62473997  0.37850922  0.00944225  1
  H+  H187  1  0.14181409  0.52137491  0.32922898  1
  H+  H188  1  0.85297085  0.38070154  0.82192517  1
  H+  H189  1  0.11307469  0.38308109  0.34292676  1
  H+  H190  1  0.64484102  1.03216402  0.33241860  1
  H+  H191  1  0.52642918  0.89363714  0.34228365  1
  H+  H192  1  0.90934954  0.74889237  0.67063141  1
  H+  H193  1  0.78027664  0.13848778  0.49390899  1
  H+  H194  1  0.64396640  0.77387087  0.17535111  1
  H+  H195  1  0.38192477  0.84415081  0.65897044  1
  H+  H196  1  0.56629308  0.65182490  0.83138278  1
  H+  H197  1  0.61441434  0.48358304  0.49256516  1
  H+  H198  1  -0.02196247  0.35337107  0.66187103  1
  H+  H199  1  0.34369596  0.41956828  0.11803010  1
  H+  H200  1  0.61848490  0.38341152  0.16932896  1
  H+  H201  1  0.98359687  0.39391478  1.01321488  1
  H+  H202  1  0.09278809  0.37650288  0.82219301  1
  H+  H203  1  0.51641608  0.14241546  0.00708551  1
  H+  H204  1  0.02336252  0.37661483  0.17194387  1
  H+  H205  1  0.36629619  0.89036775  0.83199113  1
  H+  H206  1  0.15847899  0.07919376  0.89177771  1
  H+  H207  1  0.34527907  0.62931176  0.01199360  1
  H+  H208  1  0.65472064  0.28604071  0.34413108  1
  H+  H209  1  0.97549507  0.35628478  0.50544847  1
  H+  H210  1  0.73416887  0.64946720  0.65430829  1
  H+  H211  1  0.39859373  0.37719533  0.34013154  1
  H+  H212  1  0.66390369  0.39073318  0.50396322  1
  H+  H213  1  0.47434083  0.85583287  0.84314115  1
  H+  H214  1  0.62533973  0.14170435  0.34528102  1
  H+  H215  1  0.61626808  0.25109810  0.82516595  1
  H+  H216  1  0.02460667  0.14066916  0.15601653  1
  H+  H217  1  0.65035053  0.76320724  0.87534411  1
  H+  H218  1  0.88491037  0.52489335  0.64594292  1
  H+  H219  1  0.77651171  0.88756661  0.16189819  1
  H+  H220  1  0.62513875  0.48178906  0.17285073  1
  H+  H221  1  0.01759003  0.63757834  0.18151998  1
  H+  H222  1  0.39716161  0.29479518  0.47441841  1
  H+  H223  1  0.91369791  0.84289106  0.59422144  1
  H+  H224  1  0.45560979  0.60854184  0.99406084  1
  H+  H225  1  0.34447788  0.58888959  0.84953893  1
  H+  H226  1  0.36432693  0.34958529  0.01008693  1
  H+  H227  1  0.30901684  -0.13233493  0.74191695  1
  H+  H228  1  0.86878097  0.90247360  0.47529908  1
  H+  H229  1  0.88950644  1.02728775  0.16867979  1
  H+  H230  1  0.87876012  0.40338450  0.34130386  1
  H+  H231  1  0.92620201  0.46249193  0.69623561  1
  H+  H232  1  0.89774652  0.10775262  0.66068291  1
  H+  H233  1  0.91659638  0.83182454  0.22633277  1
  H+  H234  1  0.60756111  0.87492892  0.16170854  1
  H+  H235  1  0.30028120  0.87051682  0.51047028  1
  H+  H236  1  0.21923339  0.36065077  0.50766608  1
  H+  H237  1  0.13069826  0.12440496  -0.00307702  1
  H+  H238  1  0.61461564  0.82445842  0.88950234  1
  H+  H239  1  0.87533367  0.10903401  0.82851859  1
  H+  H240  1  0.21563281  0.09279831  0.36746608  1
  H+  H241  1  0.89351808  0.52455742  0.29313520  1
  H+  H242  1  0.67597969  0.61955151  0.35099943  1
  H+  H243  1  0.73404391  0.11933093  0.99180549  1
  H+  H244  1  0.33189939  0.67756546  0.43278376  1
  H+  H245  1  0.73447724  0.12224775  0.33401834  1
  H+  H246  1  0.26477806  0.64450796  0.33975672  1
  H+  H247  1  0.22334440  0.36954272  0.66327597  1
  H+  H248  1  0.86399075  0.88537118  0.15570616  1
  H+  H249  1  0.13271622  0.11016937  0.16809661  1
  H+  H250  1  0.32024482  0.17361922  0.36393443  1
  H+  H251  1  0.79596772  0.64563872  0.88076667  1
  H+  H252  1  0.79813747  0.43331863  0.49522285  1
  H+  H253  1  0.11378754  0.46929240  0.49357777  1
  H+  H254  1  0.66366724  0.38745363  0.65842152  1
  H+  H255  1  0.43655270  0.88136750  1.00928801  1
  H+  H256  1  0.19705804  0.34528641  0.83956736  1
  H+  H257  1  0.36818994  0.11296048  0.50376859  1
  H+  H258  1  0.13584778  0.11487165  0.49718007  1
  H+  H259  1  0.63973467  0.59291855  0.79548823  1
  H+  H260  1  0.22895946  0.06817021  0.34655136  1
  H+  H261  1  0.36895998  0.35041780  0.85584503  1
  H+  H262  1  0.73234897  0.87887280  0.65292173  1
  H+  H263  1  0.54828121  0.40244358  0.34568693  1
  H+  H264  1  0.12276890  0.88768930  0.33704859  1
  H+  H265  1  0.14249111  0.55630108  0.90292382  1
  H+  H266  1  0.72163214  0.36654191  0.17297465  1
  H+  H267  1  0.18393800  0.21690509  0.44985001  1
  H+  H268  1  0.35916090  0.72197472  0.68621154  1
  H+  H269  1  0.37138447  0.09837117  -0.01395544  1
  H+  H270  1  0.76078312  0.88435624  0.82030432  1
  H+  H271  1  0.46072718  0.35338793  0.86162803  1
  H+  H272  1  0.56765264  0.49796643  0.63386384  1
  H+  H273  1  0.42761840  0.60063168  0.65341642  1
  H+  H274  1  0.08496529  0.96841055  0.33367860  1
  H+  H275  1  0.65662678  0.02241089  0.99665812  1
  H+  H276  1  0.35670334  0.37489338  0.69834599  1
  H+  H277  1  0.76440373  0.38496679  0.82167528  1
  H+  H278  1  0.62309088  0.24357464  0.66615418  1
  H+  H279  1  0.51645831  0.63810453  0.48273591  1
  H+  H280  1  0.24961641  0.08808822  0.14841734  1
  H+  H281  1  0.21903958  0.61033885  0.66624917  1
  H+  H282  1  0.42823299  0.57548336  0.85282494  1
  H+  H283  1  0.26709442  0.13636784  0.67393468  1
  H+  H284  1  0.86581798  0.49054073  1.01844476  1
  H+  H285  1  0.19069216  0.57364823  0.00782716  1
  H+  H286  1  0.08208225  0.97109161  0.48963194  1
  H+  H287  1  0.10649990  0.64253431  0.16799133  1
  H+  H288  1  0.39686940  0.32281511  0.95060260  1
  H+  H289  1  0.55066496  0.36427927  0.79402031  1
  H+  H290  1  0.08898589  0.91672048  0.72985838  1
  H+  H291  1  -0.01988044  0.36766003  0.33262237  1
  H+  H292  1  0.67046273  0.83909685  0.59583561  1
  H+  H293  1  0.67042115  0.83195426  0.23589978  1
  H+  H294  1  0.07742969  0.92723359  0.06476217  1
  H+  H295  1  0.30603099  0.12790963  0.06076339  1
  H+  H296  1  0.44218471  0.36642457  0.25562261  1
  H+  H297  1  0.58573139  0.18859936  0.72671634  1
  H+  H298  1  0.11080856  0.46463880  0.16587722  1
  H+  H299  1  0.41122010  0.57886214  0.55232812  1
  H+  H300  1  0.71540543  0.61095098  0.49767345  1
  H+  H301  1  0.68489437  0.59019420  0.24526371  1
  H+  H302  1  0.14298593  0.83659358  0.56253997  1
  H+  H303  1  0.42057401  0.08138815  0.22497509  1
  H+  H304  1  0.79210220  0.63541776  0.16932875  1
  H+  H305  1  0.57418587  0.88274241  0.76775318  1
  H+  H306  1  0.16980408  0.57053350  0.56558339  1
  H+  H307  1  0.59804553  0.90864489  0.06967810  1
  H+  H308  1  0.66293578  0.56758771  0.92045226  1
  H+  H309  1  0.58701171  0.55432308  0.57525256  1
  H+  H310  1  0.56912471  0.69888253  0.09075790  1
  H+  H311  1  0.62309060  0.47860741  0.71896354  1
  H+  H312  1  0.68367744  0.05200220  0.90572990  1
  H+  H313  1  0.41348284  0.83553446  0.23241413  1
  H+  H314  1  0.83433503  0.17887831  0.10537735  1
  H+  H315  1  0.59142940  0.63244657  0.11134496  1
  H+  H316  1  0.93258304  0.08973801  0.59874877  1
  H+  H317  1  0.16663838  0.34164380  0.60185498  1
  H+  H318  1  0.89895546  0.55426792  0.54562669  1
  H+  H319  1  0.57899538  0.17078566  0.10121684  1
  H+  H320  1  0.42790935  0.83174595  0.59954333  1
  H+  H321  1  0.38604352  0.78392437  0.32815464  1
  H+  H322  1  0.32670547  0.05038216  0.29143129  1
  H+  H323  1  0.84458465  0.42449536  0.73905134  1
  H+  H324  1  0.57435345  0.15080758  0.43983528  1
  H+  H325  1  0.32137962  0.15634626  0.73670648  1
  H+  H326  1  0.88382968  0.12226855  0.32347571  1
  H+  H327  1  0.16456665  0.84866490  0.26916885  1
  H+  H328  1  0.31287300  0.39579788  0.78290970  1
  H+  H329  1  0.06550899  0.87546846  0.49334272  1
  H+  H330  1  0.50012052  0.38086849  0.02584774  1
  H+  H331  1  0.33089539  0.91176847  0.40700975  1
  H+  H332  1  0.83779111  0.17196993  0.40187717  1
  H+  H333  1  0.28854794  0.73160444  0.71560885  1
  H+  H334  1  0.34294530  0.21191854  0.01280072  1
  H+  H335  1  0.82754287  0.65468603  0.42752494  1
  H+  H336  1  0.83471212  0.42784068  0.11757031  1
  H+  H337  1  0.07208479  0.41416305  0.76234623  1
  H+  H338  1  0.70049035  0.36439188  0.56047828  1
  H+  H339  1  0.13593804  0.32039969  0.91882210  1
  H+  H340  1  0.13446229  0.35948032  0.18075865  1
  H+  H341  1  0.91813231  0.33769720  0.27425902  1
  H+  H342  1  0.42917590  0.84600876  0.90679142  1
  H+  H343  1  0.06878428  0.91210287  0.40100831  1
  H+  H344  1  0.36152945  0.13422459  0.82925642  1
  H+  H345  1  0.37691801  0.01337610  0.98861375  1
  H+  H346  1  0.56589104  0.66679504  0.41989073  1
  H+  H347  1  0.32019933  0.42297001  0.42828479  1
  H+  H348  1  0.41687836  0.07228559  0.57211044  1
  H+  H349  1  0.11579121  0.05445528  0.26078918  1
  H+  H350  1  0.67150879  0.61251273  0.92590248  1
  H+  H351  1  0.08256873  0.17266804  0.06338029  1
  H+  H352  1  0.62465795  0.70457659  0.77561412  1
  H+  H353  1  0.38221770  0.56267114  0.94364384  1
  H+  H354  1  0.90216535  0.83618004  0.89636620  1
  H+  H355  1  0.48763894  0.55696456  0.64263866  1
  H+  H356  1  0.16084471  0.08208226  0.59831955  1
  H+  H357  1  0.86307611  0.45719228  0.39279132  1
  H+  H358  1  0.47197603  0.29593250  0.57094338  1
  H+  H359  1  0.88455946  0.68681635  0.72751373  1
  H+  H360  1  0.41572804  0.07989076  0.89316127  1
  H+  H361  1  0.38385547  0.62404419  0.16512435  1
  H+  H362  1  0.92855296  0.86825959  0.49237355  1
  H+  H363  1  0.39012013  0.57935285  0.25051387  1
  H+  H364  1  0.31605929  0.65536522  0.78517495  1
  H+  H365  1  0.86754262  0.21671443  0.67610375  1
  H+  H366  1  0.74629244  0.83053046  0.51445778  1
  H+  H367  1  0.26142693  0.39916329  0.04635914  1
  H+  H368  1  0.07531109  0.66302213  0.37484286  1
  H+  H369  1  0.42546922  0.28489694  0.56890929  1
  H+  H370  1  0.73656709  0.87647205  0.95766236  1
  H+  H371  1  0.88013171  0.60176393  0.84693984  1
  H+  H372  1  0.86117649  0.67346898  0.07799102  1
  H+  H373  1  0.56238018  0.40807775  0.08520612  1
  H+  H374  1  0.66891996  0.10260440  0.23720735  1
  H+  H375  1  0.37694203  0.18588550  0.41945623  1
  H+  H376  1  0.08485934  0.41462133  0.40235119  1
  H+  H377  1  0.92398844  0.57686634  0.93870091  1
  H+  H378  1  0.32491246  0.66665768  0.10164244  1
  H+  H379  1  0.47651454  0.09550143  0.50954454  1
  H+  H380  1  0.20811543  0.08651406  0.50409735  1
  H+  H381  1  0.77180570  0.40573388  0.02245028  1
  H+  H382  1  0.83112023  0.15477425  0.76360072  1
  H+  H383  1  0.16259969  0.57574971  0.23126761  1
  O2-  O384  1  0.08482013  0.17006460  0.13963143  1
  O2-  O385  1  0.12592671  0.18254600  0.46592980  1
  O2-  O386  1  0.08523113  0.17112901  0.80242871  1
  O2-  O387  1  0.08378817  0.40196251  0.15783814  1
  O2-  O388  1  0.08033271  0.40922692  0.47611899  1
  O2-  O389  1  0.06815599  0.41258125  0.80804952  1
  O2-  O390  1  0.07551508  0.67452542  0.16274337  1
  O2-  O391  1  0.05915678  0.66928684  0.45041293  1
  O2-  O392  1  0.08437286  0.67523237  0.82640505  1
  O2-  O393  1  0.07669618  0.91491928  0.13941972  1
  O2-  O394  1  0.04649857  0.91150073  0.47178999  1
  O2-  O395  1  0.09265820  0.91751299  0.79630554  1
  O2-  O396  1  0.28993926  0.08266224  0.12026921  1
  O2-  O397  1  0.33955173  0.14814086  0.49100502  1
  O2-  O398  1  0.32891731  0.16329461  0.81548302  1
  O2-  O399  1  0.34735777  0.42598223  0.16306762  1
  O2-  O400  1  0.32711443  0.42499681  0.47348938  1
  O2-  O401  1  0.30772013  0.39018529  0.82850043  1
  O2-  O402  1  0.32912949  0.66511573  0.14737359  1
  O2-  O403  1  0.33782723  0.67710042  0.47796004  1
  O2-  O404  1  0.31138612  0.63899484  0.82869742  1
  O2-  O405  1  0.32345803  0.90828521  0.14716860  1
  O2-  O406  1  0.34790283  0.91046618  0.48505260  1
  O2-  O407  1  0.33113259  0.91229227  0.81095835  1
  O2-  O408  1  0.57848989  0.17249801  0.14704671  1
  O2-  O409  1  0.56610127  0.14091345  0.48429650  1
  O2-  O410  1  0.57772251  0.18804698  0.80455032  1
  O2-  O411  1  0.58535687  0.42130998  0.16084156  1
  O2-  O412  1  0.59178710  0.42232184  0.47929521  1
  O2-  O413  1  0.56831051  0.39153078  0.83384228  1
  O2-  O414  1  0.57573892  0.67373045  0.12901266  1
  O2-  O415  1  0.57511090  0.66841398  0.46420644  1
  O2-  O416  1  0.62659647  0.68623937  0.82038420  1
  O2-  O417  1  0.57505470  0.89619728  0.13843198  1
  O2-  O418  1  0.60531056  0.91426544  0.47822579  1
  O2-  O419  1  0.57497715  0.87022223  0.81195867  1
  O2-  O420  1  0.83314965  0.17350658  0.15060808  1
  O2-  O421  1  0.83892078  0.16845344  0.47619235  1
  O2-  O422  1  0.83290253  0.15385992  0.81018992  1
  O2-  O423  1  0.83002394  0.41750496  0.16247141  1
  O2-  O424  1  0.86142005  0.46759936  0.47876088  1
  O2-  O425  1  0.82631455  0.41634005  0.80724702  1
  O2-  O426  1  0.85136840  0.66263518  0.15323658  1
  O2-  O427  1  0.81091186  0.64124393  0.47052326  1
  O2-  O428  1  0.81479441  0.65188699  0.83857419  1
  O2-  O429  1  0.83306934  0.91524145  0.14020331  1
  O2-  O430  1  0.83096130  0.95248074  0.41775875  1
  O2-  O431  1  0.82034185  0.91330963  0.80669914  1
  O2-  O432  1  0.15656750  0.07558246  0.18610164  1
  O2-  O433  1  0.14944395  0.06903421  0.51717196  1
  O2-  O434  1  0.16287086  0.07879292  0.84743467  1
  O2-  O435  1  0.16579450  0.32751204  0.19513225  1
  O2-  O436  1  0.15957521  0.32620643  0.52257102  1
  O2-  O437  1  0.13475254  0.31624479  0.84987595  1
  O2-  O438  1  0.15800204  0.57471761  0.18606757  1
  O2-  O439  1  0.16731224  0.56670397  0.52049709  1
  O2-  O440  1  0.14791441  0.56836833  0.85892807  1
  O2-  O441  1  0.15787961  0.83662133  0.19534738  1
  O2-  O442  1  0.12444519  0.82573840  0.51864179  1
  O2-  O443  1  0.16593549  0.83779398  0.85377972  1
  O2-  O444  1  0.41952430  0.07601830  0.18055192  1
  O2-  O445  1  0.41372712  0.06445788  0.52593300  1
  O2-  O446  1  0.41486554  0.08407512  0.84792143  1
  O2-  O447  1  0.44677279  0.37425338  0.20942748  1
  O2-  O448  1  0.42500550  0.35501820  0.46337114  1
  O2-  O449  1  0.39931256  0.32127907  0.87392729  1
  O2-  O450  1  0.41590963  0.59427536  0.18186708  1
  O2-  O451  1  0.41331902  0.58243478  0.50819383  1
  O2-  O452  1  0.37065671  0.55121929  0.86940300  1
  O2-  O453  1  0.40955830  0.82840911  0.18740528  1
  O2-  O454  1  0.44240551  0.83464381  0.52081212  1
  O2-  O455  1  0.42409171  0.85400338  0.86305540  1
  O2-  O456  1  0.66613520  0.10571480  0.19250621  1
  O2-  O457  1  0.67205713  0.08179070  0.52413800  1
  O2-  O458  1  0.67968406  0.03782548  0.85922624  1
  O2-  O459  1  0.65776318  0.33859139  0.17794548  1
  O2-  O460  1  0.70758660  0.37498948  0.51618294  1
  O2-  O461  1  0.66860421  0.33126601  0.85451882  1
  O2-  O462  1  0.68452473  0.59008266  0.19958512  1
  O2-  O463  1  0.65324083  0.58528711  0.51047281  1
  O2-  O464  1  0.66080413  0.55258999  0.78645380  1
  O2-  O465  1  0.67471767  0.83335442  0.19059021  1
  O2-  O466  1  0.68807749  0.82261136  0.51617735  1
  O2-  O467  1  0.65124926  0.80382752  0.90694133  1
  O2-  O468  1  0.92004076  0.08805123  0.18239798  1
  O2-  O469  1  0.93847049  0.10620640  0.52499220  1
  O2-  O470  1  0.90349060  0.07142073  0.84260363  1
  O2-  O471  1  0.91605827  0.33351817  0.19809422  1
  O2-  O472  1  0.91529216  0.32258747  0.52037904  1
  O2-  O473  1  0.89976437  0.33122995  0.84135441  1
  O2-  O474  1  0.91561818  0.57643774  0.20941389  1
  O2-  O475  1  0.89401531  0.55585960  0.50001785  1
  O2-  O476  1  0.91260512  0.57346027  0.85961348  1
  O2-  O477  1  0.91633236  0.83402064  0.17964454  1
  O2-  O478  1  0.87386462  0.86414079  0.50496933  1
  O2-  O479  1  0.89120070  0.83301993  0.85204587  1
  O2-  O480  1  0.08398711  0.03491868  0.29993994  1
  O2-  O481  1  0.16673174  0.08585541  0.64340074  1
  O2-  O482  1  0.15882670  0.08888945  0.98223249  1
  O2-  O483  1  0.16548506  0.32566798  0.31776506  1
  O2-  O484  1  0.16881618  0.35831124  0.64507031  1
  O2-  O485  1  0.14925481  0.33011155  0.96530185  1
  O2-  O486  1  0.17322527  0.58052189  0.31142094  1
  O2-  O487  1  0.16386983  0.57610681  0.64426546  1
  O2-  O488  1  0.14602334  0.52988459  0.98104516  1
  O2-  O489  1  0.16650221  0.85781806  0.31487454  1
  O2-  O490  1  0.18160400  0.86680288  0.63332968  1
  O2-  O491  1  0.16176441  0.85466698  0.97170359  1
  O2-  O492  1  0.38394111  0.07091479  0.30842784  1
  O2-  O493  1  0.41879783  0.08790032  0.64323367  1
  O2-  O494  1  0.40619322  0.07284379  0.97238707  1
  O2-  O495  1  0.43894073  0.35753636  0.32536673  1
  O2-  O496  1  0.42208680  0.33113918  0.68277422  1
  O2-  O497  1  0.39558184  0.32029242  0.99643714  1
  O2-  O498  1  0.36675908  0.56609715  0.29404149  1
  O2-  O499  1  0.45467985  0.57211484  0.67344157  1
  O2-  O500  1  0.39238329  0.56986277  0.98897167  1
  O2-  O501  1  0.42098401  0.84449913  0.31347122  1
  O2-  O502  1  0.42641042  0.83070416  0.64483528  1
  O2-  O503  1  0.44403260  0.83657588  0.99030069  1
  O2-  O504  1  0.67274069  0.09329250  0.31989434  1
  O2-  O505  1  0.66918868  0.09202287  0.64888705  1
  O2-  O506  1  0.68146412  0.07496988  0.97121830  1
  O2-  O507  1  0.67995510  0.34612384  0.33004962  1
  O2-  O508  1  0.68899826  0.35322103  0.64273078  1
  O2-  O509  1  0.65951187  0.35474014  0.99140213  1
  O2-  O510  1  0.68137049  0.58355267  0.32037059  1
  O2-  O511  1  0.54292200  0.52416002  0.60714506  1
  O2-  O512  1  0.62828256  0.58427799  1.05769891  1
  O2-  O513  1  0.66256235  0.83486793  0.31421058  1
  O2-  O514  1  0.67046931  0.85138482  0.63978243  1
  O2-  O515  1  0.76711885  0.91428051  0.99311836  1
  O2-  O516  1  0.91390901  0.09233037  0.30661547  1
  O2-  O517  1  0.92233693  0.07390058  0.64331811  1
  O2-  O518  1  0.91645490  0.07189939  0.96083230  1
  O2-  O519  1  0.91838467  0.33968071  0.32003463  1
  O2-  O520  1  0.91652121  0.31498471  0.64719368  1
  O2-  O521  1  0.92184854  0.35636465  1.00545985  1
  O2-  O522  1  0.92214097  0.58462865  0.27688150  1
  O2-  O523  1  0.91356707  0.57761217  0.62115945  1
  O2-  O524  1  0.93097751  0.57985865  0.98378012  1
  O2-  O525  1  0.91303239  0.82224167  0.29674390  1
  O2-  O526  1  0.92215083  0.84216866  0.63814954  1
  O2-  O527  1  0.91651260  0.83938680  0.97875336  1
  O2-  O528  1  0.08212531  0.16815635  0.01746628  1
  O2-  O529  1  0.07533280  0.16338465  0.35448139  1
  O2-  O530  1  0.05869401  0.15960361  0.68528795  1
  O2-  O531  1  0.10819741  0.45045167  0.01612400  1
  O2-  O532  1  0.08606833  0.41698159  0.35618656  1
  O2-  O533  1  0.07288920  0.41462358  0.68691564  1
  O2-  O534  1  0.14535465  0.69697097  0.00947556  1
  O2-  O535  1  0.08756286  0.65744462  0.33135252  1
  O2-  O536  1  0.08417339  0.66467858  0.65880773  1
  O2-  O537  1  0.07750381  0.93683634  0.01932313  1
  O2-  O538  1  0.07754744  0.91173244  0.35516656  1
  O2-  O539  1  0.08919786  0.91913469  0.68212208  1
  O2-  O540  1  0.30881730  0.14775462  0.01577078  1
  O2-  O541  1  0.38091935  0.19671463  0.37442826  1
  O2-  O542  1  0.32693235  0.16336313  0.69158093  1
  O2-  O543  1  0.32165402  0.41663746  0.03970858  1
  O2-  O544  1  0.32678178  0.41061840  0.35125006  1
  O2-  O545  1  0.32583543  0.40652566  0.70796946  1
  O2-  O546  1  0.31768968  0.66188496  0.02721920  1
  O2-  O547  1  0.32676990  0.68124963  0.35499919  1
  O2-  O548  1  0.30674304  0.68785787  0.71065947  1
  O2-  O549  1  0.30969126  0.90493186  0.02080086  1
  O2-  O550  1  0.32682890  0.91359658  0.36186774  1
  O2-  O551  1  0.29463228  0.83273736  0.70354388  1
  O2-  O552  1  0.57320165  0.17567386  0.02644733  1
  O2-  O553  1  0.59346478  0.17165459  0.36063002  1
  O2-  O554  1  0.58900512  0.18371386  0.68158670  1
  O2-  O555  1  0.56074341  0.41640936  0.04027891  1
  O2-  O556  1  0.60890348  0.43061843  0.35933796  1
  O2-  O557  1  0.60043175  0.43629163  0.68537196  1
  O2-  O558  1  0.56469715  0.68072200  0.00351804  1
  O2-  O559  1  0.54213761  0.65737835  0.33922879  1
  O2-  O560  1  0.61274459  0.71071100  0.70922015  1
  O2-  O561  1  0.61038746  0.91402420  0.02398563  1
  O2-  O562  1  0.58802968  0.92038239  0.35473989  1
  O2-  O563  1  0.58507904  0.92570433  0.69098144  1
  O2-  O564  1  0.83861168  0.19280563  0.02700482  1
  O2-  O565  1  0.83584463  0.17286862  0.35578607  1
  O2-  O566  1  0.83406831  0.15619972  0.69201550  1
  O2-  O567  1  0.83024653  0.43359941  0.03990023  1
  O2-  O568  1  0.85342560  0.44129970  0.34917895  1
  O2-  O569  1  0.86356224  0.43158853  0.69387346  1
  O2-  O570  1  0.86542017  0.68262606  0.03241922  1
  O2-  O571  1  0.85421759  0.66435108  0.34377081  1
  O2-  O572  1  0.91189579  0.69902650  0.68788584  1
  O2-  O573  1  0.78818522  0.85732475  0.02795204  1
  O2-  O574  1  0.82816664  0.92827130  0.35372840  1
  O2-  O575  1  0.83218151  0.91420952  0.67914547  1
