# generated using pymatgen
data_H2O
_symmetry_space_group_name_H-M   'P 1'
_cell_length_a   17.98708550
_cell_length_b   17.99191649
_cell_length_c   21.98670930
_cell_angle_alpha   89.96583537
_cell_angle_beta   89.98920070
_cell_angle_gamma   120.00714505
_symmetry_Int_Tables_number   1
_chemical_formula_structural   H2O
_chemical_formula_sum   'H384 O192'
_cell_volume   6161.65918778
_cell_formula_units_Z   192
loop_
 _symmetry_equiv_pos_site_id
 _symmetry_equiv_pos_as_xyz
  1  'x, y, z'
loop_
 _atom_type_symbol
 _atom_type_oxidation_number
  H+  1.0
  O2-  -2.0
loop_
 _atom_site_type_symbol
 _atom_site_label
 _atom_site_symmetry_multiplicity
 _atom_site_fract_x
 _atom_site_fract_y
 _atom_site_fract_z
 _atom_site_occupancy
  H+  H0  1  0.13369391  0.60549267  0.17257646  1
  H+  H1  1  0.84979656  0.72590470  0.00549448  1
  H+  H2  1  0.75629401  0.11752308  0.99879723  1
  H+  H3  1  0.12202794  0.39140563  0.66201167  1
  H+  H4  1  0.66732461  0.08274613  0.55773493  1
  H+  H5  1  0.40198637  0.35077589  1.02988811  1
  H+  H6  1  0.62972228  0.45940118  0.66591997  1
  H+  H7  1  0.97502389  0.11989832  0.16749643  1
  H+  H8  1  0.91894112  0.65617574  0.18241567  1
  H+  H9  1  0.89166447  0.37028461  0.83197042  1
  H+  H10  1  0.63357604  0.51601494  0.00212629  1
  H+  H11  1  0.38862885  0.88172333  0.18229751  1
  H+  H12  1  0.64884871  0.21312124  0.13270819  1
  H+  H13  1  0.87136220  0.01892079  0.66719259  1
  H+  H14  1  0.63758249  0.35208192  -0.01457223  1
  H+  H15  1  0.34813517  0.12346796  0.67789186  1
  H+  H16  1  0.13853743  0.78983618  0.34468966  1
  H+  H17  1  0.37369098  0.46400210  0.33436465  1
  H+  H18  1  0.86700519  0.45860799  0.02779430  1
  H+  H19  1  0.22796924  0.11094406  0.16442118  1
  H+  H20  1  0.64167566  1.01252607  0.17068751  1
  H+  H21  1  0.13046981  0.01490450  0.99817652  1
  H+  H22  1  0.29770432  0.65827753  0.20373632  1
  H+  H23  1  0.64035033  0.12045960  0.32429264  1
  H+  H24  1  0.10247620  0.23965450  0.82457072  1
  H+  H25  1  0.89222491  0.52950793  0.51530395  1
  H+  H26  1  0.63725977  0.53134969  0.50326903  1
  H+  H27  1  0.61999397  0.48757346  0.82640224  1
  H+  H28  1  0.11823359  0.49243569  0.81783444  1
  H+  H29  1  0.97645528  0.36451659  0.32125599  1
  H+  H30  1  0.21465810  0.35022300  -0.01634569  1
  H+  H31  1  0.60276291  0.38738421  0.16093425  1
  H+  H32  1  0.36553056  0.90027314  0.81282016  1
  H+  H33  1  0.64568028  0.73571658  0.15670768  1
  H+  H34  1  0.26679996  0.14426314  0.48857654  1
  H+  H35  1  0.02830954  0.42626566  0.03074732  1
  H+  H36  1  0.88482796  0.00751838  0.50076672  1
  H+  H37  1  0.15296195  0.79614737  0.20297562  1
  H+  H38  1  0.08248191  0.37976042  0.01319600  1
  H+  H39  1  0.86323855  0.88858327  0.67857378  1
  H+  H40  1  0.44240400  0.71925691  0.02534023  1
  H+  H41  1  0.83259284  0.91554824  0.73843145  1
  H+  H42  1  0.41121416  0.69636496  0.37772547  1
  H+  H43  1  0.61186668  0.98011965  0.33378214  1
  H+  H44  1  0.15547625  0.61261038  0.98899381  1
  H+  H45  1  0.37137298  0.64943677  0.67226256  1
  H+  H46  1  0.40809435  0.03664016  0.34815482  1
  H+  H47  1  0.38824906  0.66339902  0.19234528  1
  H+  H48  1  0.23644636  0.88415769  0.18497958  1
  H+  H49  1  0.27123138  0.64753809  0.51550499  1
  H+  H50  1  0.67630646  0.58232215  0.90277282  1
  H+  H51  1  0.67927993  0.84590132  0.59617179  1
  H+  H52  1  0.28255051  0.90219172  0.83420754  1
  H+  H53  1  0.15896998  0.52808221  -0.01185496  1
  H+  H54  1  0.64504908  0.37072675  0.34917986  1
  H+  H55  1  0.54998182  0.14153866  0.15287638  1
  H+  H56  1  0.13455296  0.35494037  0.17578729  1
  H+  H57  1  0.51772562  0.38790874  0.14712180  1
  H+  H58  1  0.38611065  0.28450074  0.49662764  1
  H+  H59  1  0.87160520  -0.02054624  0.82551971  1
  H+  H60  1  0.91265143  0.82919608  0.93846251  1
  H+  H61  1  0.64257860  0.62362261  0.85510554  1
  H+  H62  1  0.80828239  0.90512748  0.39258443  1
  H+  H63  1  0.11423900  0.22867699  0.16101836  1
  H+  H64  1  0.49064227  0.12570860  0.34180274  1
  H+  H65  1  0.77807428  0.14566959  0.82237718  1
  H+  H66  1  0.37260160  0.14022865  0.34065506  1
  H+  H67  1  0.02345752  0.61090302  0.99329079  1
  H+  H68  1  0.52380447  0.89879967  0.16369357  1
  H+  H69  1  0.72925927  0.12698986  0.64934116  1
  H+  H70  1  0.95366473  0.08357720  0.54861260  1
  H+  H71  1  0.63169117  0.26105325  -0.01912167  1
  H+  H72  1  0.71016611  0.33432323  0.15954843  1
  H+  H73  1  0.84615532  0.88000343  0.33555643  1
  H+  H74  1  0.88653895  0.77487550  0.66760999  1
  H+  H75  1  0.64622333  0.65945501  0.32802452  1
  H+  H76  1  0.78494387  0.31114768  0.15855957  1
  H+  H77  1  0.59506654  0.24302185  0.49614836  1
  H+  H78  1  0.65913387  0.13947658  0.82311430  1
  H+  H79  1  0.27188438  0.14035252  0.68480202  1
  H+  H80  1  0.72703095  0.10671255  0.49956307  1
  H+  H81  1  0.60604930  0.88435263  0.00411035  1
  H+  H82  1  0.74099257  0.87528573  0.49762633  1
  H+  H83  1  0.73135353  0.36709759  0.51726625  1
  H+  H84  1  0.84842662  0.13332162  0.33132827  1
  H+  H85  1  0.85013042  0.87206492  0.01314956  1
  H+  H86  1  0.62613281  0.86596703  0.30656223  1
  H+  H87  1  1.03301908  0.65092359  0.16278652  1
  H+  H88  1  0.03130418  0.64704387  0.50837177  1
  H+  H89  1  0.63187809  0.47893786  0.32797525  1
  H+  H90  1  0.77985874  0.64261239  0.82982413  1
  H+  H91  1  0.29004401  0.65176573  0.81549127  1
  H+  H92  1  0.36008724  0.49048070  1.02103559  1
  H+  H93  1  0.10633583  0.88892676  0.16798355  1
  H+  H94  1  0.84540617  -0.04227404  1.01034116  1
  H+  H95  1  0.23475688  0.62102294  0.33617424  1
  H+  H96  1  0.84337997  0.42298488  0.76575388  1
  H+  H97  1  0.98452671  0.36893437  0.65367511  1
  H+  H98  1  0.48334212  0.87592223  0.65797235  1
  H+  H99  1  0.14610770  1.01602568  0.84410779  1
  H+  H100  1  0.16460374  0.06681711  -0.06598162  1
  H+  H101  1  0.13025727  0.01806533  0.66831383  1
  H+  H102  1  0.75522768  0.59124588  0.31176583  1
  H+  H103  1  0.59464802  0.19072068  0.41700236  1
  H+  H104  1  0.64272054  0.03768118  0.64950118  1
  H+  H105  1  0.09503963  0.45125472  0.18260258  1
  H+  H106  1  0.78216561  0.89284360  0.83023120  1
  H+  H107  1  0.38350805  0.78358267  0.33890094  1
  H+  H108  1  0.86116102  0.14327460  0.67216623  1
  H+  H109  1  0.46020140  0.62060865  0.34037464  1
  H+  H110  1  0.12900341  0.23502633  0.67451678  1
  H+  H111  1  0.09266349  0.63772606  0.74994686  1
  H+  H112  1  0.86532346  0.59844506  0.00284796  1
  H+  H113  1  0.07333307  0.63278954  0.05523894  1
  H+  H114  1  0.37727623  0.34737005  0.15619640  1
  H+  H115  1  0.76789087  0.14241011  0.33784971  1
  H+  H116  1  0.95670950  0.09065495  0.97490398  1
  H+  H117  1  0.89105811  0.77551605  0.84406241  1
  H+  H118  1  0.23674044  0.87559475  0.48781007  1
  H+  H119  1  0.22295138  0.35256976  0.16476916  1
  H+  H120  1  -0.01862918  0.61826650  0.82160592  1
  H+  H121  1  0.11834443  0.88582020  0.83526981  1
  H+  H122  1  0.34245299  0.16876848  0.77804869  1
  H+  H123  1  0.78335399  0.39668119  0.82562087  1
  H+  H124  1  0.99193204  0.19192147  0.37967878  1
  H+  H125  1  0.71475979  0.85054194  -0.00263753  1
  H+  H126  1  0.39100619  0.78910390  0.50932434  1
  H+  H127  1  0.86335990  0.73036388  0.15885588  1
  H+  H128  1  0.65556392  0.89024536  0.83361562  1
  H+  H129  1  0.02847011  0.40184022  0.81743261  1
  H+  H130  1  0.13840452  0.38822669  0.82477840  1
  H+  H131  1  0.88577522  0.27838909  0.32729825  1
  H+  H132  1  0.12612618  0.35114839  0.50726700  1
  H+  H133  1  0.53478770  0.64206605  0.84245881  1
  H+  H134  1  0.65913909  0.26726223  0.80821585  1
  H+  H135  1  0.13565517  0.26702332  0.50707723  1
  H+  H136  1  0.15315166  0.62775968  0.83425562  1
  H+  H137  1  0.48394336  0.35532226  0.65517008  1
  H+  H138  1  0.84358070  0.20686571  0.00042935  1
  H+  H139  1  0.12844614  0.10320196  0.50893878  1
  H+  H140  1  0.10474286  0.32220004  0.92361952  1
  H+  H141  1  0.07937510  -0.06730950  0.39755531  1
  H+  H142  1  0.35019849  0.44408758  0.10515484  1
  H+  H143  1  0.52152454  0.89322954  0.00133381  1
  H+  H144  1  0.54377681  0.90386781  0.81617720  1
  H+  H145  1  0.87739638  0.50147897  0.14663391  1
  H+  H146  1  0.27110004  0.40168240  0.49789702  1
  H+  H147  1  0.89336369  0.86575291  0.84488666  1
  H+  H148  1  0.64373006  0.33735453  0.25502620  1
  H+  H149  1  0.81649417  0.37585083  1.06977449  1
  H+  H150  1  0.15659355  0.78888590  0.51082038  1
  H+  H151  1  0.62032468  0.74092963  0.49607404  1
  H+  H152  1  0.87805790  0.39748914  0.67343862  1
  H+  H153  1  0.28299157  0.13796260  0.33049441  1
  H+  H154  1  0.07488633  0.14565253  -0.09256563  1
  H+  H155  1  0.36937444  0.22285385  0.15231533  1
  H+  H156  1  0.17612791  0.85575706  0.28914187  1
  H+  H157  1  0.02757630  0.88372232  0.83577957  1
  H+  H158  1  0.62454264  0.76625278  0.98622878  1
  H+  H159  1  0.36711122  0.37384558  0.32175010  1
  H+  H160  1  0.97449085  0.86783079  0.51972109  1
  H+  H161  1  0.36742686  0.37859754  0.65604592  1
  H+  H162  1  0.64642818  0.35623396  0.67136326  1
  H+  H163  1  0.88121129  0.11607161  0.83264864  1
  H+  H164  1  0.63287142  0.63013184  0.66384838  1
  H+  H165  1  0.62885650  0.23796985  0.70406687  1
  H+  H166  1  0.37380441  0.74083777  0.66912899  1
  H+  H167  1  0.76512542  0.68562230  0.37212134  1
  H+  H168  1  0.19556932  0.57124117  0.15356460  1
  H+  H169  1  0.11503636  0.88617625  0.00756396  1
  H+  H170  1  0.48448326  0.87340775  0.50233241  1
  H+  H171  1  0.72555666  0.61894588  1.00729846  1
  H+  H172  1  0.22940088  0.35277953  0.65282888  1
  H+  H173  1  0.87798072  0.64680602  0.67934525  1
  H+  H174  1  0.61963990  0.60458308  1.01023410  1
  H+  H175  1  0.65618574  0.28786184  0.34699360  1
  H+  H176  1  0.89448697  0.53157405  0.83088149  1
  H+  H177  1  0.14051700  0.11554448  0.16651940  1
  H+  H178  1  0.83731811  0.67113622  0.73556917  1
  H+  H179  1  0.37522776  0.01620692  1.00222974  1
  H+  H180  1  0.39473399  0.26619730  0.31289615  1
  H+  H181  1  0.70270554  0.84767867  0.31381070  1
  H+  H182  1  0.64598356  0.37212930  0.52290872  1
  H+  H183  1  0.64040426  0.52086362  0.16120120  1
  H+  H184  1  0.73211156  0.87341359  0.65891212  1
  H+  H185  1  1.03360562  0.64843116  0.35353799  1
  H+  H186  1  0.34641059  0.68496663  0.75165119  1
  H+  H187  1  0.51820856  0.12382203  0.99745425  1
  H+  H188  1  0.38518946  0.79319316  0.98545426  1
  H+  H189  1  0.01799332  0.37418989  0.49136514  1
  H+  H190  1  0.79801886  0.89109601  0.10795771  1
  H+  H191  1  0.62640082  -0.00099355  0.81479470  1
  H+  H192  1  0.37250465  0.98982580  0.16258788  1
  H+  H193  1  0.35202134  0.55561908  0.06391842  1
  H+  H194  1  0.60797879  0.75575788  0.69205923  1
  H+  H195  1  0.14430807  0.79058300  0.99636648  1
  H+  H196  1  0.59084537  0.59531397  0.65157067  1
  H+  H197  1  0.13212098  0.61623458  0.52710159  1
  H+  H198  1  0.86616824  0.73703992  0.50841430  1
  H+  H199  1  -0.01308867  0.15922314  0.35631537  1
  H+  H200  1  0.39518682  0.27471444  0.83976521  1
  H+  H201  1  0.39848163  0.52944492  0.80512766  1
  H+  H202  1  0.64574608  0.37716450  0.83664759  1
  H+  H203  1  0.39650547  1.03549415  0.84003989  1
  H+  H204  1  0.09733680  0.43485731  0.71495094  1
  H+  H205  1  0.68714608  0.20556500  0.39788565  1
  H+  H206  1  0.36640686  0.38194590  0.81412133  1
  H+  H207  1  0.38889548  0.52684562  0.66038669  1
  H+  H208  1  0.53041810  0.38875143  0.00043574  1
  H+  H209  1  0.74961184  0.58952820  0.65237908  1
  H+  H210  1  0.55551926  0.46803836  0.37021808  1
  H+  H211  1  0.39392480  0.26819706  0.65691993  1
  H+  H212  1  0.55110900  0.65760928  0.17354721  1
  H+  H213  1  0.23924388  0.36946480  0.32270901  1
  H+  H214  1  0.84205837  0.42571131  0.44289774  1
  H+  H215  1  0.39527551  0.79660464  0.19038517  1
  H+  H216  1  0.87047485  0.09432901  0.99000844  1
  H+  H217  1  0.15972727  0.79031713  0.86095986  1
  H+  H218  1  0.86798953  0.13603486  0.49159866  1
  H+  H219  1  0.12061669  0.71263218  0.12745591  1
  H+  H220  1  0.40033699  0.61935842  0.80802178  1
  H+  H221  1  0.40902803  0.76482632  0.83284681  1
  H+  H222  1  0.90128268  0.94834767  0.44259667  1
  H+  H223  1  0.83001596  -0.00796356  0.30700876  1
  H+  H224  1  0.37932064  0.89434237  0.47343555  1
  H+  H225  1  0.88340975  0.27159335  0.50727112  1
  H+  H226  1  0.38850517  0.90257422  0.36914099  1
  H+  H227  1  0.16075967  0.24787737  0.34909371  1
  H+  H228  1  0.25507648  0.59824636  0.04864394  1
  H+  H229  1  0.01842663  0.88498892  0.68121093  1
  H+  H230  1  0.86892623  0.26233093  0.17447809  1
  H+  H231  1  0.89304296  0.28066140  0.66010019  1
  H+  H232  1  0.47490964  0.62762234  0.51160971  1
  H+  H233  1  0.10661498  0.72217927  0.77396424  1
  H+  H234  1  0.65128254  0.87540390  0.49993114  1
  H+  H235  1  0.78721385  0.40327292  0.34552748  1
  H+  H236  1  0.90687376  0.53814364  0.66905737  1
  H+  H237  1  0.88806170  0.87390356  0.51095025  1
  H+  H238  1  0.27787969  0.38219909  0.80600496  1
  H+  H239  1  0.37618873  0.12099187  0.50378299  1
  H+  H240  1  0.56759302  0.74627900  0.34859297  1
  H+  H241  1  0.63249447  1.01751962  -0.02002560  1
  H+  H242  1  0.76526007  0.11604824  0.15442257  1
  H+  H243  1  0.48211604  0.35813461  0.31007724  1
  H+  H244  1  0.12329216  0.65099704  0.35268372  1
  H+  H245  1  0.10763379  -0.10511193  0.34359025  1
  H+  H246  1  0.08735908  0.24711695  0.96793182  1
  H+  H247  1  0.30211968  0.34995063  -0.03049804  1
  H+  H248  1  0.89573792  0.62090390  0.34118802  1
  H+  H249  1  0.89452784  0.07114006  0.21645398  1
  H+  H250  1  0.84905026  0.48917411  0.17428354  1
  H+  H251  1  0.36183370  0.57825214  0.32681921  1
  H+  H252  1  0.16457781  0.16028479  0.34439371  1
  H+  H253  1  0.12293847  0.13412211  0.68031656  1
  H+  H254  1  0.25611116  0.88929092  1.01134733  1
  H+  H255  1  0.58487912  0.65549631  0.07857874  1
  H+  H256  1  0.38319892  0.27052978  0.98901764  1
  H+  H257  1  0.33086109  0.16416526  -0.06983754  1
  H+  H258  1  0.96808872  0.86516482  0.17396792  1
  H+  H259  1  0.01460147  0.14802938  0.82382237  1
  H+  H260  1  0.03408078  0.83287105  0.45843327  1
  H+  H261  1  0.88517295  0.32153009  0.23238832  1
  H+  H262  1  1.10595760  0.97569099  0.15975026  1
  H+  H263  1  0.21083472  0.39959473  0.87188731  1
  H+  H264  1  0.86705785  0.38977555  0.50094877  1
  H+  H265  1  0.11453157  0.47478232  0.34017943  1
  H+  H266  1  0.37923205  0.14156665  0.83628478  1
  H+  H267  1  0.13303544  0.52734773  0.62135891  1
  H+  H268  1  0.62242216  0.90224572  0.66170899  1
  H+  H269  1  0.39695814  0.71085906  1.02676264  1
  H+  H270  1  0.97032977  0.85546168  0.99873519  1
  H+  H271  1  0.41542889  0.55888708  0.17859861  1
  H+  H272  1  0.50637975  0.60133213  1.03434175  1
  H+  H273  1  0.61642731  0.62168360  0.34748603  1
  H+  H274  1  0.87344865  0.39842303  0.34218779  1
  H+  H275  1  0.40952410  0.12490869  0.18017618  1
  H+  H276  1  0.86942524  0.23387793  0.82216508  1
  H+  H277  1  0.33298578  0.93796512  0.66495804  1
  H+  H278  1  0.95130580  0.32212463  0.98244405  1
  H+  H279  1  0.12172886  0.87849093  0.49339721  1
  H+  H280  1  0.23612500  0.10511552  0.84674410  1
  H+  H281  1  0.62055483  0.97996955  0.49136708  1
  H+  H282  1  0.97363241  0.87415262  0.32846841  1
  H+  H283  1  0.41951549  0.33690718  0.55783597  1
  H+  H284  1  0.50113918  0.15545418  0.48905830  1
  H+  H285  1  0.13663575  0.01899190  0.51272292  1
  H+  H286  1  0.85748128  0.74515126  0.34513373  1
  H+  H287  1  0.57239432  0.26824146  0.21197303  1
  H+  H288  1  0.87991094  0.34800687  0.99675207  1
  H+  H289  1  0.67293857  0.85360311  0.89595299  1
  H+  H290  1  0.67631145  0.32450540  0.61446268  1
  H+  H291  1  0.61055789  0.64756979  0.49078424  1
  H+  H292  1  0.42062948  0.85076188  0.60247847  1
  H+  H293  1  0.87006840  0.64301437  0.82502814  1
  H+  H294  1  0.91547681  0.33412234  0.89038162  1
  H+  H295  1  0.33692063  0.40562081  0.71543775  1
  H+  H296  1  0.26424335  0.13203355  -0.01636725  1
  H+  H297  1  0.03651981  0.68172144  0.66671842  1
  H+  H298  1  0.18577292  0.59679011  0.89245868  1
  H+  H299  1  0.70056537  0.55710541  0.25067940  1
  H+  H300  1  0.87286237  0.85486486  0.17655839  1
  H+  H301  1  0.17457151  0.08435463  0.25929309  1
  H+  H302  1  0.72577316  0.62115123  0.50600996  1
  H+  H303  1  0.82516608  0.67007737  0.06797496  1
  H+  H304  1  0.89800887  0.53439683  0.33442705  1
  H+  H305  1  0.89136966  0.61858291  0.51684425  1
  H+  H306  1  0.68735169  0.56277661  0.59515559  1
  H+  H307  1  0.59719004  0.93448886  0.72138849  1
  H+  H308  1  0.77640543  0.01976430  0.26689785  1
  H+  H309  1  0.28897589  0.35765599  0.07734654  1
  H+  H310  1  0.58814994  0.41394888  0.06030557  1
  H+  H311  1  0.36056582  0.40759690  0.48899722  1
  H+  H312  1  0.67061974  0.33634130  0.89435556  1
  H+  H313  1  0.17964569  0.85292388  0.91887841  1
  H+  H314  1  0.66618300  0.08766845  0.26237046  1
  H+  H315  1  0.11447810  0.17385460  0.43222157  1
  H+  H316  1  0.62189651  0.72981416  0.84169802  1
  H+  H317  1  0.09202878  0.67371222  0.44988225  1
  H+  H318  1  0.52543020  0.38977134  0.49600949  1
  H+  H319  1  0.32598359  0.17352069  0.42821465  1
  H+  H320  1  0.92360244  0.59785978  1.05282779  1
  H+  H321  1  0.14260934  0.02799772  0.32089981  1
  H+  H322  1  0.44168169  0.09509042  0.23842129  1
  H+  H323  1  0.07932722  0.40904630  0.11795978  1
  H+  H324  1  0.35070207  0.89348745  0.00993824  1
  H+  H325  1  0.53181699  0.39720634  0.82493520  1
  H+  H326  1  0.82079409  0.14739839  0.08808035  1
  H+  H327  1  0.11785423  0.38788380  0.33371141  1
  H+  H328  1  0.31087167  0.63526190  0.11053179  1
  H+  H329  1  0.59280189  0.41562538  0.44212004  1
  H+  H330  1  0.08175561  0.16886547  0.10186147  1
  H+  H331  1  0.95113169  0.63099155  0.24327069  1
  H+  H332  1  0.15951379  0.07820404  0.60852123  1
  H+  H333  1  0.52626247  0.66942262  0.70851190  1
  H+  H334  1  0.91306060  0.83699759  0.26883991  1
  H+  H335  1  0.41032293  0.84671738  0.27918550  1
  H+  H336  1  0.66753400  0.09530875  0.88659259  1
  H+  H337  1  0.17336301  0.33314532  0.26716573  1
  H+  H338  1  0.09406421  0.17481626  0.74222114  1
  H+  H339  1  0.87217742  0.06508481  0.60631642  1
  H+  H340  1  0.84224452  0.68264275  0.44715258  1
  H+  H341  1  0.07717022  0.91084310  0.06678689  1
  H+  H342  1  0.57740207  0.91924677  0.10152100  1
  H+  H343  1  0.43573892  0.59619906  0.24576583  1
  H+  H344  1  0.49302303  0.79569034  0.87137048  1
  H+  H345  1  0.64961082  0.61322623  0.17386221  1
  H+  H346  1  0.33519181  0.68091921  0.42046117  1
  H+  H347  1  0.83505682  0.17870926  0.72956468  1
  H+  H348  1  0.91575904  0.33274755  0.56661284  1
  H+  H349  1  0.38402085  0.53857380  0.51116843  1
  H+  H350  1  0.41374185  0.61268699  0.92701958  1
  H+  H351  1  0.58959170  0.41480141  0.73068743  1
  H+  H352  1  0.07959278  0.91630511  0.74067960  1
  H+  H353  1  0.42550928  0.84273682  0.92527388  1
  H+  H354  1  0.78837578  0.39530606  0.67674884  1
  H+  H355  1  0.15931509  0.31787102  0.59856655  1
  H+  H356  1  0.58985875  0.91890133  0.43190388  1
  H+  H357  1  0.64838623  0.10410747  0.16448349  1
  H+  H358  1  0.83962578  0.16748146  0.43232346  1
  H+  H359  1  0.69628527  0.84932625  0.20927829  1
  H+  H360  1  0.37160109  0.60921495  0.93518781  1
  H+  H361  1  0.41602162  0.32648956  0.21717272  1
  H+  H362  1  0.78161466  0.63494315  0.15791764  1
  H+  H363  1  0.36064513  0.64847885  0.51022910  1
  H+  H364  1  0.58555131  0.15077200  0.05173339  1
  H+  H365  1  0.54804046  0.69620397  0.41331730  1
  H+  H366  1  0.34516691  0.15240723  0.10063342  1
  H+  H367  1  0.42264961  0.34408145  0.89335043  1
  H+  H368  1  0.52231537  0.89264021  0.33877868  1
  H+  H369  1  0.42229146  0.59405399  0.60719869  1
  H+  H370  1  0.86858752  0.12076977  0.15131443  1
  H+  H371  1  0.10252175  0.12146168  -0.03112072  1
  H+  H372  1  0.38303449  0.10845975  0.98891676  1
  H+  H373  1  0.09996850  0.82864211  0.69896238  1
  H+  H374  1  0.42112305  0.08326379  0.90365293  1
  H+  H375  1  0.02689278  0.13214116  0.47363779  1
  H+  H376  1  0.90119844  0.07661652  0.89203466  1
  H+  H377  1  0.17693219  0.59328583  0.27663321  1
  H+  H378  1  0.91465314  0.83818031  0.60985079  1
  H+  H379  1  0.63156231  0.10607857  0.97997190  1
  H+  H380  1  0.92839673  0.59324050  0.60839618  1
  H+  H381  1  0.07617333  0.39872704  0.43171259  1
  H+  H382  1  0.33005486  0.92568566  0.10528123  1
  H+  H383  1  0.39555382  0.07708018  0.55926903  1
  O2-  O384  1  0.08108107  0.16614082  0.14614682  1
  O2-  O385  1  0.08979455  0.15956518  0.47589366  1
  O2-  O386  1  0.07794067  0.17869926  0.81423143  1
  O2-  O387  1  0.07691418  0.39641734  0.16184929  1
  O2-  O388  1  0.07736542  0.39508641  0.47648635  1
  O2-  O389  1  0.08858707  0.43270972  0.80092583  1
  O2-  O390  1  0.08134895  0.65204688  0.13593308  1
  O2-  O391  1  0.09264479  0.67495182  0.49522000  1
  O2-  O392  1  0.09568782  0.66499374  0.78905128  1
  O2-  O393  1  0.07278461  0.91325224  0.14938790  1
  O2-  O394  1  0.07216807  0.88821949  0.47739081  1
  O2-  O395  1  0.08668882  0.91355167  0.81793997  1
  O2-  O396  1  0.34118452  0.15896748  0.14434348  1
  O2-  O397  1  0.32651439  0.17807320  0.47337645  1
  O2-  O398  1  0.34612448  0.17260529  0.82347036  1
  O2-  O399  1  0.31585571  0.38232058  0.11721605  1
  O2-  O400  1  0.33076582  0.44061718  0.48425978  1
  O2-  O401  1  0.33780667  0.40971645  0.79233751  1
  O2-  O402  1  0.35170734  0.68890647  0.18089115  1
  O2-  O403  1  0.32874992  0.67811746  0.49586097  1
  O2-  O404  1  0.34950169  0.68289885  0.79987141  1
  O2-  O405  1  0.33399155  0.92889516  0.15136132  1
  O2-  O406  1  0.34005963  0.90861459  0.44837360  1
  O2-  O407  1  0.33727852  0.93424790  0.81103196  1
  O2-  O408  1  0.60128771  0.15135851  0.12958471  1
  O2-  O409  1  0.55362517  0.20131991  0.46649487  1
  O2-  O410  1  0.66267198  0.22096339  0.78371239  1
  O2-  O411  1  0.57996374  0.41737692  0.13532438  1
  O2-  O412  1  0.58915544  0.42062238  0.48633970  1
  O2-  O413  1  0.59233755  0.42726406  0.81072288  1
  O2-  O414  1  0.60508669  0.67231927  0.15136856  1
  O2-  O415  1  0.58158496  0.68102662  0.48062082  1
  O2-  O416  1  0.59311917  0.67321688  0.86157603  1
  O2-  O417  1  0.58229012  0.92164662  0.14647396  1
  O2-  O418  1  0.59021735  0.91684107  0.47690172  1
  O2-  O419  1  0.60304868  0.93826739  0.80052591  1
  O2-  O420  1  0.82633034  0.14810058  0.13476055  1
  O2-  O421  1  0.83982489  0.16843718  0.47746530  1
  O2-  O422  1  0.83941145  0.17290041  0.80820679  1
  O2-  O423  1  0.73719594  0.31016251  0.13324755  1
  O2-  O424  1  0.83866475  0.42356269  0.48798631  1
  O2-  O425  1  0.84429213  0.42280228  0.81158310  1
  O2-  O426  1  0.84148807  0.67125936  0.14174575  1
  O2-  O427  1  0.83978359  0.67687293  0.49186998  1
  O2-  O428  1  0.83951471  0.67535403  0.81342824  1
  O2-  O429  1  0.79541328  0.88642811  0.15365157  1
  O2-  O430  1  0.85493314  0.92633372  0.47248377  1
  O2-  O431  1  0.84301737  0.91727631  0.81507314  1
  O2-  O432  1  0.16822931  0.08238436  0.18013198  1
  O2-  O433  1  0.16174461  0.07763217  0.52811726  1
  O2-  O434  1  0.17723001  0.07367401  0.86400492  1
  O2-  O435  1  0.16659088  0.32294704  0.18560990  1
  O2-  O436  1  0.15976348  0.32481421  0.52575189  1
  O2-  O437  1  0.16806016  0.35762916  0.84422269  1
  O2-  O438  1  0.16656269  0.57864242  0.18938848  1
  O2-  O439  1  0.16042554  0.58333347  0.54222093  1
  O2-  O440  1  0.18056732  0.59429176  0.84746580  1
  O2-  O441  1  0.17774046  0.85818211  0.20429802  1
  O2-  O442  1  0.18488164  0.85249728  0.51345293  1
  O2-  O443  1  0.18211766  0.85063296  0.87053560  1
  O2-  O444  1  0.44627203  0.10107390  0.19345681  1
  O2-  O445  1  0.40935740  0.09298520  0.51587526  1
  O2-  O446  1  0.42409157  0.09359181  0.85926028  1
  O2-  O447  1  0.41464958  0.32494951  0.17109774  1
  O2-  O448  1  0.42135499  0.34416653  0.51281995  1
  O2-  O449  1  0.42208396  0.33856437  0.84912584  1
  O2-  O450  1  0.44581153  0.61287310  0.20086938  1
  O2-  O451  1  0.41540923  0.59920153  0.52789411  1
  O2-  O452  1  0.43160064  0.58901698  0.81931569  1
  O2-  O453  1  0.42259785  0.85817856  0.20212752  1
  O2-  O454  1  0.42372830  0.85256838  0.51507158  1
  O2-  O455  1  0.45479145  0.81651491  0.85829911  1
  O2-  O456  1  0.67842755  0.07591402  0.18447646  1
  O2-  O457  1  0.66609624  0.07489464  0.51198521  1
  O2-  O458  1  0.67493429  0.09810400  0.84155982  1
  O2-  O459  1  0.62179422  0.32626664  0.21182265  1
  O2-  O460  1  0.67243959  0.33734392  0.53508274  1
  O2-  O461  1  0.67810220  0.34772425  0.84894385  1
  O2-  O462  1  0.67804265  0.57813099  0.18025202  1
  O2-  O463  1  0.66362579  0.59248144  0.51620850  1
  O2-  O464  1  0.67410282  0.58891965  0.85870636  1
  O2-  O465  1  0.70214510  0.84169186  0.16490632  1
  O2-  O466  1  0.68244355  0.84521204  0.51476793  1
  O2-  O467  1  0.68260981  0.85833306  0.85154472  1
  O2-  O468  1  0.91127065  0.08770206  0.17295324  1
  O2-  O469  1  0.91260582  0.07339536  0.51626351  1
  O2-  O470  1  0.91281240  0.08619713  0.84761131  1
  O2-  O471  1  0.86724624  0.31290219  0.18895256  1
  O2-  O472  1  0.91303664  0.33268752  0.52096999  1
  O2-  O473  1  0.92468990  0.34097447  0.84580032  1
  O2-  O474  1  0.96968756  0.65948963  0.20307360  1
  O2-  O475  1  0.92340472  0.58994195  0.53083654  1
  O2-  O476  1  0.92467876  0.59393621  0.84106606  1
  O2-  O477  1  0.90833635  0.83025521  0.19086939  1
  O2-  O478  1  0.91357392  0.84040720  0.53234744  1
  O2-  O479  1  0.92200249  0.83479475  0.86223578  1
  O2-  O480  1  0.18158845  0.08671567  0.30428268  1
  O2-  O481  1  0.15786800  0.07935449  0.65401087  1
  O2-  O482  1  0.16068098  0.07465598  0.98003140  1
  O2-  O483  1  0.17592988  0.34126453  0.31181430  1
  O2-  O484  1  0.16533248  0.31968953  0.64493964  1
  O2-  O485  1  0.10478843  0.30995870  0.96737987  1
  O2-  O486  1  0.17510296  0.59334928  0.32141259  1
  O2-  O487  1  0.14998520  0.58658490  0.60809833  1
  O2-  O488  1  0.19409268  0.58942424  0.97761987  1
  O2-  O489  1  0.16218605  0.85083807  0.33277982  1
  O2-  O490  1  0.11138847  0.78323945  0.71581319  1
  O2-  O491  1  0.17308265  0.85147355  0.98577906  1
  O2-  O492  1  0.43399280  0.09060528  0.32357035  1
  O2-  O493  1  0.35084154  0.04521752  0.63544995  1
  O2-  O494  1  0.41334957  0.07567348  0.98459972  1
  O2-  O495  1  0.42452383  0.32387785  0.29162022  1
  O2-  O496  1  0.42412045  0.32656372  0.63842701  1
  O2-  O497  1  0.41618399  0.33539154  0.99074791  1
  O2-  O498  1  0.41164810  0.57306677  0.31535673  1
  O2-  O499  1  0.41959795  0.58918769  0.65241017  1
  O2-  O500  1  0.39029099  0.53139380  1.05432635  1
  O2-  O501  1  0.41359935  0.84423800  0.32460055  1
  O2-  O502  1  0.42115000  0.84469043  0.64701468  1
  O2-  O503  1  0.41639967  0.85149939  0.96931422  1
  O2-  O504  1  0.66568696  0.08670607  0.30787359  1
  O2-  O505  1  0.67142371  0.09607979  0.63100820  1
  O2-  O506  1  0.66479199  0.07810631  0.96470651  1
  O2-  O507  1  0.67503479  0.34573729  0.32764415  1
  O2-  O508  1  0.68086231  0.32827835  0.65973450  1
  O2-  O509  1  0.66466302  0.32177848  0.96701525  1
  O2-  O510  1  0.71381223  0.53878355  0.29024046  1
  O2-  O511  1  0.70598164  0.53964877  0.62871482  1
  O2-  O512  1  0.65980395  0.58119354  0.99288467  1
  O2-  O513  1  0.64796560  0.82770685  0.29142806  1
  O2-  O514  1  0.67352838  0.84840595  0.64092743  1
  O2-  O515  1  0.65641210  0.82832471  0.97878727  1
  O2-  O516  1  0.83475278  0.04076966  0.28168051  1
  O2-  O517  1  0.89454496  0.07700264  0.64785847  1
  O2-  O518  1  0.89307569  0.05823349  0.97264768  1
  O2-  O519  1  0.91404500  0.33786623  0.31062776  1
  O2-  O520  1  0.92241633  0.34112717  0.64323744  1
  O2-  O521  1  0.89385343  0.30888448  0.97065518  1
  O2-  O522  1  0.92872886  0.59717562  0.32267430  1
  O2-  O523  1  0.93410516  0.59857597  0.65376917  1
  O2-  O524  1  0.90171673  0.57317291  1.01281149  1
  O2-  O525  1  0.91216752  0.84013857  0.31435354  1
  O2-  O526  1  0.91673121  0.83723932  0.65529411  1
  O2-  O527  1  0.90903896  0.82566345  0.98433265  1
  O2-  O528  1  0.06902859  0.14837481  -0.04813368  1
  O2-  O529  1  0.16242774  0.20177062  0.37289601  1
  O2-  O530  1  0.10067253  0.17405577  0.69590721  1
  O2-  O531  1  0.08335830  0.42831760  0.03545144  1
  O2-  O532  1  0.08120950  0.41231886  0.34761255  1
  O2-  O533  1  0.09504157  0.42688589  0.67033952  1
  O2-  O534  1  0.08168651  0.63891262  0.01053634  1
  O2-  O535  1  0.09337104  0.68005913  0.36964353  1
  O2-  O536  1  0.09965310  0.72538161  0.66574720  1
  O2-  O537  1  0.07754558  0.91228268  0.02165890  1
  O2-  O538  1  0.07660820  0.92858771  0.35267483  1
  O2-  O539  1  0.07996155  0.91297963  0.69509420  1
  O2-  O540  1  0.32854787  0.16718535  -0.02539900  1
  O2-  O541  1  0.34209173  0.17262859  0.34825005  1
  O2-  O542  1  0.33277170  0.16521039  0.69670293  1
  O2-  O543  1  0.27529982  0.37256268  -0.00318847  1
  O2-  O544  1  0.33760546  0.40173647  0.34089459  1
  O2-  O545  1  0.33307714  0.40524865  0.67013671  1
  O2-  O546  1  0.27513870  0.58264903  0.08616025  1
  O2-  O547  1  0.35129722  0.68480711  0.37579353  1
  O2-  O548  1  0.34251624  0.68122773  0.68649163  1
  O2-  O549  1  0.32094588  0.92027007  0.02997176  1
  O2-  O550  1  0.38818839  0.94979162  0.39351664  1
  O2-  O551  1  0.37999009  0.99823069  0.66641161  1
  O2-  O552  1  0.58138415  0.15379858  0.00670942  1
  O2-  O553  1  0.63403172  0.19447593  0.37794671  1
  O2-  O554  1  0.59644402  0.19469040  0.73708482  1
  O2-  O555  1  0.59107794  0.42053715  0.01464360  1
  O2-  O556  1  0.58006946  0.43488565  0.35319131  1
  O2-  O557  1  0.58723448  0.40344179  0.68618792  1
  O2-  O558  1  0.56964992  0.63994351  0.03422875  1
  O2-  O559  1  0.52130010  0.70416214  0.37539234  1
  O2-  O560  1  0.58106290  0.71390445  0.72529611  1
  O2-  O561  1  0.58113575  0.92041859  0.01746638  1
  O2-  O562  1  0.58521402  0.91915881  0.34690380  1
  O2-  O563  1  0.59194886  0.93265349  0.67631901  1
  O2-  O564  1  0.81657207  0.14708722  0.01702484  1
  O2-  O565  1  0.82908900  0.16986067  0.35138673  1
  O2-  O566  1  0.83787758  0.18156628  0.68428627  1
  O2-  O567  1  0.86660006  0.40648781  0.04243944  1
  O2-  O568  1  0.84805676  0.43263813  0.35924860  1
  O2-  O569  1  0.84988145  0.42931870  0.69006856  1
  O2-  O570  1  0.81411788  0.66523291  0.02248141  1
  O2-  O571  1  0.81931320  0.68685710  0.36472845  1
  O2-  O572  1  0.84086577  0.67179060  0.69000433  1
  O2-  O573  1  0.81621356  0.89871995  0.02812107  1
  O2-  O574  1  0.80611853  0.90114452  0.34738089  1
  O2-  O575  1  0.83191101  0.91826162  0.69286275  1
