# generated using pymatgen
data_H2O
_symmetry_space_group_name_H-M   'P 1'
_cell_length_a   17.99623266
_cell_length_b   18.00088998
_cell_length_c   22.01365548
_cell_angle_alpha   90.00048794
_cell_angle_beta   89.99226922
_cell_angle_gamma   120.01320928
_symmetry_Int_Tables_number   1
_chemical_formula_structural   H2O
_chemical_formula_sum   'H384 O192'
_cell_volume   6175.05096832
_cell_formula_units_Z   192
loop_
 _symmetry_equiv_pos_site_id
 _symmetry_equiv_pos_as_xyz
  1  'x, y, z'
loop_
 _atom_type_symbol
 _atom_type_oxidation_number
  H+  1.0
  O2-  -2.0
loop_
 _atom_site_type_symbol
 _atom_site_label
 _atom_site_symmetry_multiplicity
 _atom_site_fract_x
 _atom_site_fract_y
 _atom_site_fract_z
 _atom_site_occupancy
  H+  H0  1  0.89077217  0.36024319  0.83895543  1
  H+  H1  1  0.63906300  0.77242235  0.66729708  1
  H+  H2  1  0.03304643  0.63997802  0.83062702  1
  H+  H3  1  0.39929989  0.77913323  0.83296633  1
  H+  H4  1  0.96863152  0.73494249  0.37258338  1
  H+  H5  1  0.29498034  0.91716013  0.17016781  1
  H+  H6  1  0.60959703  0.40708438  0.70143415  1
  H+  H7  1  0.18061111  0.08042485  0.23091446  1
  H+  H8  1  0.62159297  0.09475004  0.66006395  1
  H+  H9  1  0.89688923  0.76892898  0.84167682  1
  H+  H10  1  0.60733818  0.08828628  0.99177353  1
  H+  H11  1  0.15280026  0.53370758  0.82888628  1
  H+  H12  1  0.61097068  -0.02879517  0.66466191  1
  H+  H13  1  0.11257309  0.47290764  0.32983035  1
  H+  H14  1  0.60826323  0.33875820  0.19296657  1
  H+  H15  1  0.77798658  0.89097054  0.00374981  1
  H+  H16  1  0.62834475  0.78071189  0.16330517  1
  H+  H17  1  0.52090569  0.88231225  0.66653092  1
  H+  H18  1  0.25147730  0.39178218  0.84274266  1
  H+  H19  1  0.38368266  0.86223420  0.65987893  1
  H+  H20  1  -0.01882523  0.36489274  0.33445468  1
  H+  H21  1  0.65877266  0.34126080  0.54029800  1
  H+  H22  1  0.61971188  0.88703874  1.00781106  1
  H+  H23  1  0.51191071  0.37959736  0.17271982  1
  H+  H24  1  0.89031076  0.27114093  0.83920878  1
  H+  H25  1  0.85836024  0.13505682  0.67400578  1
  H+  H26  1  0.14082223  0.85415945  0.61682855  1
  H+  H27  1  1.02579194  0.87663289  1.00611214  1
  H+  H28  1  0.88313362  0.60511341  0.51372679  1
  H+  H29  1  0.49655186  0.76927871  0.37637088  1
  H+  H30  1  0.88605349  0.51773172  0.51179649  1
  H+  H31  1  0.11047194  0.89095995  0.68967290  1
  H+  H32  1  0.02358691  0.13164801  0.31542351  1
  H+  H33  1  0.09020308  -0.07852871  0.77963132  1
  H+  H34  1  0.13241647  0.85017990  0.32864915  1
  H+  H35  1  0.28009057  0.88560807  0.82879802  1
  H+  H36  1  0.02861002  0.14469922  0.51260871  1
  H+  H37  1  0.16728504  0.30126951  0.84045447  1
  H+  H38  1  0.27880769  0.39599127  0.67652795  1
  H+  H39  1  0.86237698  0.72447498  0.68486379  1
  H+  H40  1  0.15498001  0.86577987  0.99627545  1
  H+  H41  1  0.40285083  0.14872208  -0.02006092  1
  H+  H42  1  0.78441445  0.39690662  0.69221528  1
  H+  H43  1  0.13684234  0.27117532  0.30246161  1
  H+  H44  1  0.47291984  0.87755949  0.32026744  1
  H+  H45  1  0.84954182  0.45848773  0.32942948  1
  H+  H46  1  0.15125457  0.02633691  0.16994074  1
  H+  H47  1  0.61831386  0.16184824  0.33677136  1
  H+  H48  1  0.71696236  0.10558682  0.65643471  1
  H+  H49  1  0.74804028  0.08772824  0.15084554  1
  H+  H50  1  0.63801382  0.30608197  0.67983953  1
  H+  H51  1  0.63047822  0.27303177  0.48837511  1
  H+  H52  1  0.79938774  0.64194746  0.00624671  1
  H+  H53  1  0.35329405  0.50673136  0.01937516  1
  H+  H54  1  0.47202102  0.86007344  0.16983274  1
  H+  H55  1  0.60533129  0.98281646  0.81673679  1
  H+  H56  1  0.12006567  0.37658310  0.01678724  1
  H+  H57  1  0.38917298  0.61799123  0.66683229  1
  H+  H58  1  0.34790281  0.10584653  0.49228206  1
  H+  H59  1  0.89508541  0.27328258  0.32590124  1
  H+  H60  1  0.14856538  0.86743507  0.84646873  1
  H+  H61  1  0.66760359  0.59249382  0.22762735  1
  H+  H62  1  0.88986153  0.11337355  0.51298843  1
  H+  H63  1  0.11847984  0.78082411  0.47009323  1
  H+  H64  1  0.46993843  0.35458655  0.84846114  1
  H+  H65  1  0.51766440  0.39897550  0.68743572  1
  H+  H66  1  0.37805238  0.14624512  0.15425956  1
  H+  H67  1  0.87421143  0.07142365  0.16381216  1
  H+  H68  1  0.90136984  0.62446687  0.99827541  1
  H+  H69  1  0.70671795  0.11199719  0.98903180  1
  H+  H70  1  0.44939658  0.35019439  -0.01441874  1
  H+  H71  1  0.86933030  0.89685619  -0.00324119  1
  H+  H72  1  0.39028761  0.63193096  0.51248695  1
  H+  H73  1  0.62619107  0.26515001  0.83350003  1
  H+  H74  1  0.86188789  0.22187194  0.49566917  1
  H+  H75  1  0.60214388  0.88601418  0.15705710  1
  H+  H76  1  0.88564975  0.98047166  0.49760508  1
  H+  H77  1  0.77590089  0.88642240  0.67755055  1
  H+  H78  1  0.38659983  0.86496087  0.17476967  1
  H+  H79  1  0.11677653  0.39651217  0.47601349  1
  H+  H80  1  0.60774252  0.39211825  0.47775853  1
  H+  H81  1  0.85261230  0.12597776  0.82294612  1
  H+  H82  1  0.60993105  0.63825375  0.15351544  1
  H+  H83  1  0.36258105  0.25025754  -0.00725002  1
  H+  H84  1  0.61039922  0.97135511  0.00113039  1
  H+  H85  1  0.13839811  0.61557558  0.66536519  1
  H+  H86  1  0.59573665  0.00012299  0.16530682  1
  H+  H87  1  1.00725619  0.43246007  0.20006008  1
  H+  H88  1  0.26530117  0.88368029  0.34108133  1
  H+  H89  1  0.11370758  0.23120925  0.67284825  1
  H+  H90  1  0.64083593  0.84636171  0.33016094  1
  H+  H91  1  0.72094508  0.11173184  0.83535453  1
  H+  H92  1  0.14112887  0.52916563  0.51498167  1
  H+  H93  1  0.62540466  0.73494115  0.50609232  1
  H+  H94  1  0.39253081  1.02408240  0.83645128  1
  H+  H95  1  0.80316212  0.88844003  0.50039709  1
  H+  H96  1  0.72106156  0.36367510  0.33110815  1
  H+  H97  1  0.27897762  0.63921495  0.82397507  1
  H+  H98  1  1.04030438  0.65122277  0.14881489  1
  H+  H99  1  0.86697830  0.75210797  0.32665185  1
  H+  H100  1  0.11614241  0.39176679  0.16633537  1
  H+  H101  1  0.03610776  0.89350868  0.16919409  1
  H+  H102  1  0.11705034  0.62949353  0.33825945  1
  H+  H103  1  0.19401115  0.86595770  0.23777393  1
  H+  H104  1  0.91830909  0.82708222  0.61420399  1
  H+  H105  1  0.35001249  0.37828709  0.34548051  1
  H+  H106  1  0.36586333  0.86284264  0.50681836  1
  H+  H107  1  0.48441794  0.10865498  0.00406465  1
  H+  H108  1  0.66504727  0.58618460  0.56385408  1
  H+  H109  1  0.22728202  0.36077850  0.15586148  1
  H+  H110  1  0.02517278  0.64040872  0.67559427  1
  H+  H111  1  0.82989505  0.90021808  0.09471447  1
  H+  H112  1  0.90079122  0.79567382  0.17110932  1
  H+  H113  1  0.38235897  0.26089818  0.83930960  1
  H+  H114  1  0.63399837  0.53401913  0.66676357  1
  H+  H115  1  0.36714275  0.72492215  0.15885494  1
  H+  H116  1  0.22153223  0.09809999  0.51767669  1
  H+  H117  1  0.36580454  0.47701958  0.16095031  1
  H+  H118  1  0.61254424  0.14311901  0.49569338  1
  H+  H119  1  0.46503654  0.10924155  0.32824376  1
  H+  H120  1  0.16897271  0.58728130  0.60583407  1
  H+  H121  1  0.85116942  0.22047658  0.00749232  1
  H+  H122  1  0.23000013  0.10825909  0.32671822  1
  H+  H123  1  0.13918131  0.10143118  0.32070537  1
  H+  H124  1  0.39038184  0.11089362  0.66566390  1
  H+  H125  1  0.86600890  0.87221461  0.82799169  1
  H+  H126  1  0.39314317  0.30978503  0.92270679  1
  H+  H127  1  0.11364375  0.12924314  0.15808961  1
  H+  H128  1  0.57508637  0.87402524  0.54478513  1
  H+  H129  1  0.61704800  0.72644565  0.31771916  1
  H+  H130  1  0.61194700  0.47470620  0.84327200  1
  H+  H131  1  0.83595522  0.82016759  0.32310604  1
  H+  H132  1  0.72517646  0.84585769  0.85077273  1
  H+  H133  1  0.90720778  0.64537220  0.34331370  1
  H+  H134  1  0.95031071  0.07770174  0.82104542  1
  H+  H135  1  0.51984898  0.63540612  0.15849868  1
  H+  H136  1  1.01791759  0.13572573  1.00070208  1
  H+  H137  1  0.56526379  0.76409685  0.41565284  1
  H+  H138  1  0.88741980  0.02252604  0.66749173  1
  H+  H139  1  0.14129164  0.11159122  0.53003941  1
  H+  H140  1  0.41507674  0.58192508  0.23315638  1
  H+  H141  1  0.94536849  0.51010806  0.26649144  1
  H+  H142  1  0.16756124  0.90279017  0.17970447  1
  H+  H143  1  0.59149234  0.24238026  0.19685010  1
  H+  H144  1  0.59611934  0.18445724  0.65964254  1
  H+  H145  1  0.88999442  0.76476055  0.51803361  1
  H+  H146  1  0.38832970  0.61309393  0.17312019  1
  H+  H147  1  0.39088238  0.86689431  0.82972392  1
  H+  H148  1  0.90467432  0.86011134  0.51453997  1
  H+  H149  1  0.37825254  0.87748227  1.01720620  1
  H+  H150  1  0.09629786  0.58223192  -0.01583421  1
  H+  H151  1  0.30284758  0.90191022  1.01301789  1
  H+  H152  1  0.12534947  0.64498403  0.15365089  1
  H+  H153  1  0.10842459  0.38311886  0.32177122  1
  H+  H154  1  0.47676327  0.37226983  0.51573487  1
  H+  H155  1  0.49776424  0.66172193  0.82234425  1
  H+  H156  1  0.77529075  0.65054235  0.15289366  1
  H+  H157  1  0.13821221  0.61679078  0.51152003  1
  H+  H158  1  0.12637010  0.39771175  0.82836613  1
  H+  H159  1  0.92047943  0.57656283  0.24776218  1
  H+  H160  1  0.66723572  0.35319618  0.92363238  1
  H+  H161  1  0.39008131  0.28057990  0.32706783  1
  H+  H162  1  0.87361135  0.97259795  0.33574531  1
  H+  H163  1  0.13635413  0.37013695  0.66329519  1
  H+  H164  1  0.52565468  0.40012691  0.32953942  1
  H+  H165  1  0.36585995  0.38891765  0.82836288  1
  H+  H166  1  0.86119338  0.63492979  0.68003498  1
  H+  H167  1  0.36548037  0.73552839  0.34114664  1
  H+  H168  1  0.35926280  0.97278390  0.67352484  1
  H+  H169  1  -0.02443056  0.11367167  0.66678966  1
  H+  H170  1  0.82202506  0.78820401  0.95397351  1
  H+  H171  1  0.49812541  0.88092113  0.82089981  1
  H+  H172  1  0.84540224  0.36966932  0.34109114  1
  H+  H173  1  0.08792586  0.41832592  0.73373128  1
  H+  H174  1  0.36535356  0.13328496  0.82655054  1
  H+  H175  1  0.27999841  0.14247018  0.68131391  1
  H+  H176  1  0.44665601  0.01263995  0.03198267  1
  H+  H177  1  0.38495438  0.77396336  0.65776616  1
  H+  H178  1  0.61479629  0.64361012  0.67710858  1
  H+  H179  1  0.37000415  0.23201899  0.67975754  1
  H+  H180  1  0.11245490  0.98010374  0.68869295  1
  H+  H181  1  0.35699712  0.89117205  0.33895741  1
  H+  H182  1  0.13102673  0.77862225  0.66266134  1
  H+  H183  1  0.77686084  0.38712963  0.83150325  1
  H+  H184  1  0.63441676  0.78012718  1.00306191  1
  H+  H185  1  0.14277239  0.11861756  0.67245599  1
  H+  H186  1  0.52539904  0.64314736  0.67670897  1
  H+  H187  1  0.28396558  0.13686194  0.16067014  1
  H+  H188  1  0.87912453  0.42671885  0.17320312  1
  H+  H189  1  0.62380101  0.03434105  0.49541644  1
  H+  H190  1  0.37963558  0.50661275  0.50798073  1
  H+  H191  1  0.89427832  0.53114660  1.00176084  1
  H+  H192  1  0.15250285  0.28035656  -0.01117458  1
  H+  H193  1  0.89186569  0.54518275  0.16044384  1
  H+  H194  1  0.63091393  0.02457125  0.31996657  1
  H+  H195  1  0.23194217  0.61397742  0.32654946  1
  H+  H196  1  0.61116582  0.13994597  0.81688498  1
  H+  H197  1  0.48286437  0.63632144  0.51404573  1
  H+  H198  1  0.67252632  0.61869940  0.97546371  1
  H+  H199  1  0.36627059  0.14243658  0.33497193  1
  H+  H200  1  0.37406382  0.02471139  0.32798166  1
  H+  H201  1  0.03334749  0.39029262  0.82748439  1
  H+  H202  1  0.22278466  0.36206069  0.30808988  1
  H+  H203  1  0.13803005  0.76460996  0.32392429  1
  H+  H204  1  0.40926248  0.02490785  0.16127281  1
  H+  H205  1  0.61451138  0.91788979  0.54601146  1
  H+  H206  1  0.77687251  0.38731291  0.01084348  1
  H+  H207  1  0.73174030  0.64470551  0.31021008  1
  H+  H208  1  0.27354153  0.63760326  0.67498020  1
  H+  H209  1  0.89453320  0.10578718  0.31474052  1
  H+  H210  1  0.02518667  0.61890239  0.33085004  1
  H+  H211  1  0.47498321  0.09873936  0.66534309  1
  H+  H212  1  0.36813721  0.48480890  0.67571224  1
  H+  H213  1  0.72590286  0.61762242  0.66337882  1
  H+  H214  1  0.56786811  0.63924544  -0.00459938  1
  H+  H215  1  0.77330069  0.38401606  0.48749799  1
  H+  H216  1  0.26878013  0.88553377  0.67431001  1
  H+  H217  1  0.11478703  0.47850257  0.67455749  1
  H+  H218  1  1.02888695  0.37216958  1.01611726  1
  H+  H219  1  0.97298276  0.09271955  0.16736186  1
  H+  H220  1  0.15313566  0.62305383  0.82837078  1
  H+  H221  1  0.59658948  0.40100817  -0.01561101  1
  H+  H222  1  0.34357400  0.42947617  0.09665896  1
  H+  H223  1  0.38584626  0.36849055  0.16819448  1
  H+  H224  1  0.44981814  0.65110340  1.01138437  1
  H+  H225  1  0.12104659  0.95777166  0.55623830  1
  H+  H226  1  0.47366153  0.11311284  0.51220287  1
  H+  H227  1  0.72217813  0.44327660  0.95252376  1
  H+  H228  1  0.35479657  0.97691628  0.49598471  1
  H+  H229  1  0.06208858  0.17796307  0.83837826  1
  H+  H230  1  0.34346811  0.66200140  0.10003592  1
  H+  H231  1  0.63645970  0.52592102  0.17369023  1
  H+  H232  1  0.27639494  0.37748387  0.38989811  1
  H+  H233  1  0.65856791  0.32256540  0.74900160  1
  H+  H234  1  0.38509845  0.61446247  0.32963695  1
  H+  H235  1  0.86669053  -0.00700752  0.83605881  1
  H+  H236  1  0.97766307  0.36196881  0.66305723  1
  H+  H237  1  0.11048790  0.95252237  0.35378205  1
  H+  H238  1  0.62531425  0.35584953  0.83695142  1
  H+  H239  1  0.28757115  0.40890217  0.00923227  1
  H+  H240  1  0.97605154  0.86254940  0.67454929  1
  H+  H241  1  0.52495595  0.63977320  0.32482645  1
  H+  H242  1  0.73706791  0.86768715  0.32114504  1
  H+  H243  1  0.12071991  0.73059159  0.83018305  1
  H+  H244  1  0.18305397  0.83780299  0.90343719  1
  H+  H245  1  0.47658368  0.85430400  0.99980047  1
  H+  H246  1  0.61823526  0.48989905  0.32927138  1
  H+  H247  1  0.40696839  0.83784686  0.56331141  1
  H+  H248  1  0.38934400  0.36871497  0.67013408  1
  H+  H249  1  0.91403403  0.82944522  0.23692695  1
  H+  H250  1  0.26609020  0.12863952  0.00899989  1
  H+  H251  1  0.42532480  0.34303619  0.61209568  1
  H+  H252  1  0.38840695  0.76435022  1.00219778  1
  H+  H253  1  0.07027167  0.15624164  -0.05673518  1
  H+  H254  1  0.89597181  0.63648038  0.16409969  1
  H+  H255  1  0.15984118  0.28888716  0.47294936  1
  H+  H256  1  0.49551897  0.91133260  0.47829740  1
  H+  H257  1  0.13132306  0.14680558  0.83075689  1
  H+  H258  1  0.59490798  0.52954706  -0.04097313  1
  H+  H259  1  0.38543350  0.27769643  0.17134092  1
  H+  H260  1  0.57569919  0.91699657  0.09418647  1
  H+  H261  1  0.63359832  0.52757870  0.50398069  1
  H+  H262  1  0.38019163  0.52339584  0.33024783  1
  H+  H263  1  0.03222761  0.88698874  0.83882859  1
  H+  H264  1  0.67146722  0.83367913  0.94148706  1
  H+  H265  1  0.89134729  0.52739512  0.66889750  1
  H+  H266  1  0.62795918  0.76838774  0.85320660  1
  H+  H267  1  0.87914227  0.27554244  0.13114282  1
  H+  H268  1  0.13393084  0.10310582  -0.00770122  1
  H+  H269  1  0.13945244  0.02523809  0.84407091  1
  H+  H270  1  0.84803581  0.13156018  -0.00384565  1
  H+  H271  1  0.11078499  0.96712767  0.00560762  1
  H+  H272  1  0.89046183  0.36422235  0.66564242  1
  H+  H273  1  0.18466225  0.34970018  0.93551107  1
  H+  H274  1  0.16105498  0.78099096  0.99431717  1
  H+  H275  1  0.85886507  0.22418512  0.67302672  1
  H+  H276  1  0.23753875  0.61875147  0.17233858  1
  H+  H277  1  0.86510434  0.88561359  0.67775717  1
  H+  H278  1  0.27156579  0.64143743  0.49618843  1
  H+  H279  1  0.88874351  0.60482312  0.84572157  1
  H+  H280  1  0.77194311  0.63250599  0.49399708  1
  H+  H281  1  0.88534347  0.35611637  0.50804540  1
  H+  H282  1  0.77462717  0.08090083  0.35720927  1
  H+  H283  1  0.77155060  0.13390763  0.49482524  1
  H+  H284  1  0.75280865  0.17603428  0.31846381  1
  H+  H285  1  0.61458738  0.97718396  0.31632832  1
  H+  H286  1  0.86584286  0.25814666  0.16275119  1
  H+  H287  1  0.67814594  0.86921274  0.51927667  1
  H+  H288  1  0.84692327  0.66510100  0.44236411  1
  H+  H289  1  0.33881238  0.67097868  0.73133568  1
  H+  H290  1  0.59161132  0.04301410  0.22835715  1
  H+  H291  1  0.57715665  0.92061803  0.75577230  1
  H+  H292  1  0.16846342  0.34290064  0.60457244  1
  H+  H293  1  0.86772464  0.47576279  0.83744782  1
  H+  H294  1  0.65514804  0.08050793  0.89152184  1
  H+  H295  1  0.83932245  0.42483532  0.10803243  1
  H+  H296  1  0.92394096  0.58254976  0.90570435  1
  H+  H297  1  0.11126319  0.50342949  -0.00738869  1
  H+  H298  1  0.91340600  0.32715430  0.56835063  1
  H+  H299  1  0.09082890  0.17725689  0.73382095  1
  H+  H300  1  0.57297933  0.42804873  0.78095292  1
  H+  H301  1  0.35663038  0.73405333  0.49457234  1
  H+  H302  1  0.32842930  0.92154264  0.43401816  1
  H+  H303  1  0.08221921  0.42007406  0.11173518  1
  H+  H304  1  0.58915566  0.22696227  0.35096372  1
  H+  H305  1  0.87678285  0.02278543  0.98919066  1
  H+  H306  1  0.42110428  0.59379646  0.60693646  1
  H+  H307  1  0.41432987  0.83584896  0.26193132  1
  H+  H308  1  0.65904293  0.08048448  0.56108483  1
  H+  H309  1  0.57827415  0.15810326  0.75267911  1
  H+  H310  1  0.20388592  0.86967332  0.47174988  1
  H+  H311  1  0.55986722  0.09504793  0.15967055  1
  H+  H312  1  0.23071960  0.11325718  0.84184034  1
  H+  H313  1  0.87404636  0.74332115  -0.00540391  1
  H+  H314  1  0.64512846  0.31954004  0.27091223  1
  H+  H315  1  0.41189438  0.34000168  0.26817922  1
  H+  H316  1  0.56464317  0.66760932  0.06483492  1
  H+  H317  1  0.33364783  0.16833813  0.39418440  1
  H+  H318  1  0.10597547  0.88578245  0.40464737  1
  H+  H319  1  0.82116568  0.65043968  0.77187490  1
  H+  H320  1  0.17468110  0.08376198  0.61790241  1
  H+  H321  1  0.80113379  0.11669833  0.08988348  1
  H+  H322  1  0.86922064  0.39418996  0.00573902  1
  H+  H323  1  0.99012183  0.43745948  0.96753359  1
  H+  H324  1  0.27017395  0.05204820  0.44936165  1
  H+  H325  1  0.10725224  0.21284439  0.15010321  1
  H+  H326  1  0.03675041  0.86815464  0.55329906  1
  H+  H327  1  0.63918670  0.86187756  0.66149861  1
  H+  H328  1  0.24290026  0.38138589  0.47892053  1
  H+  H329  1  1.02050427  0.63203753  0.49572892  1
  H+  H330  1  0.41448305  0.08076164  0.57281601  1
  H+  H331  1  0.34385562  0.42844918  0.77144792  1
  H+  H332  1  0.91761749  0.08482736  0.57447888  1
  H+  H333  1  0.56155233  0.91039139  0.43325419  1
  H+  H334  1  0.33610118  0.16712095  0.76881732  1
  H+  H335  1  0.91526098  0.58211456  0.60742528  1
  H+  H336  1  0.84686919  0.91996860  0.39878923  1
  H+  H337  1  0.60585546  0.64229248  0.49121087  1
  H+  H338  1  0.17746360  0.58976626  0.26464800  1
  H+  H339  1  0.08307498  0.13769337  0.46058347  1
  H+  H340  1  0.43807310  0.12227429  0.92106007  1
  H+  H341  1  0.66323703  0.84179162  0.22152911  1
  H+  H342  1  0.33386760  0.91432826  0.76617262  1
  H+  H343  1  0.63235788  0.37888952  0.32938045  1
  H+  H344  1  0.03973033  0.65154533  0.00441365  1
  H+  H345  1  0.10258775  0.67418376  0.06093100  1
  H+  H346  1  0.94081177  0.38673238  0.25406612  1
  H+  H347  1  1.02882133  0.38606188  0.50196083  1
  H+  H348  1  0.56326196  0.44230726  0.03445097  1
  H+  H349  1  0.91357824  0.82538594  0.90266033  1
  H+  H350  1  0.08365309  0.18028876  0.37114262  1
  H+  H351  1  0.08592987  0.91477647  0.10479847  1
  H+  H352  1  0.51255113  0.09973746  0.08644070  1
  H+  H353  1  0.07551785  0.65230121  0.43441210  1
  H+  H354  1  0.57496960  0.42911360  0.42617360  1
  H+  H355  1  0.16808839  0.32919568  0.21399574  1
  H+  H356  1  0.82869914  0.15226195  0.40510551  1
  H+  H357  1  0.37478679  0.45337744  0.44966178  1
  H+  H358  1  0.93106764  0.35294394  0.92987291  1
  H+  H359  1  0.82812772  0.16391642  0.76585553  1
  H+  H360  1  0.34897307  0.92391199  0.10658381  1
  H+  H361  1  0.91724384  0.06921318  0.25318546  1
  H+  H362  1  0.84109007  0.68439424  0.09657737  1
  H+  H363  1  0.90050850  0.07805179  0.92836855  1
  H+  H364  1  0.83815345  0.41582807  0.43355832  1
  H+  H365  1  0.56974494  0.27793965  0.60531603  1
  H+  H366  1  0.17007060  0.07762537  0.93552083  1
  H+  H367  1  0.14760785  0.53121573  0.17569652  1
  H+  H368  1  0.56930286  0.67436465  0.77551649  1
  H+  H369  1  0.70878510  0.17018790  0.25561443  1
  H+  H370  1  0.47995120  0.11454478  0.82771285  1
  H+  H371  1  0.83015502  0.90000614  0.76957602  1
  H+  H372  1  0.57365869  0.16145673  0.43558748  1
  H+  H373  1  0.33239209  0.16672555  0.06685130  1
  H+  H374  1  0.08738500  0.67273233  0.73339343  1
  H+  H375  1  0.39609153  0.38231460  0.52537367  1
  H+  H376  1  0.85529173  -0.07301249  0.16117522  1
  H+  H377  1  0.60559224  0.26731655  0.60352743  1
  H+  H378  1  0.85165885  0.42488332  0.74359819  1
  H+  H379  1  0.33756839  0.67730836  0.40292986  1
  H+  H380  1  0.69324368  0.83324335  0.57997593  1
  H+  H381  1  0.72346485  0.63540880  0.85892201  1
  H+  H382  1  0.58309739  0.39524968  0.12262065  1
  H+  H383  1  0.63569355  0.62163095  0.31760562  1
  O2-  O384  1  0.07598902  0.15020407  0.14228486  1
  O2-  O385  1  0.08987881  0.17012936  0.49761594  1
  O2-  O386  1  0.10999363  0.18525048  0.81347636  1
  O2-  O387  1  0.08891961  0.42717638  0.15684000  1
  O2-  O388  1  0.09156491  0.42488572  0.49952386  1
  O2-  O389  1  0.09216770  0.42200593  0.80997723  1
  O2-  O390  1  0.09953466  0.67575984  0.13314614  1
  O2-  O391  1  0.07999446  0.66201202  0.47908989  1
  O2-  O392  1  0.09101244  0.67174069  0.81205975  1
  O2-  O393  1  0.09455917  0.92510559  0.14900866  1
  O2-  O394  1  0.09443868  0.89880824  0.57170981  1
  O2-  O395  1  0.09372425  0.92209641  0.82548914  1
  O2-  O396  1  0.34350305  0.17262129  0.14211239  1
  O2-  O397  1  0.30127749  0.10858380  0.46832430  1
  O2-  O398  1  0.33387120  0.16434940  0.81484043  1
  O2-  O399  1  0.33943239  0.41842370  0.14240080  1
  O2-  O400  1  0.35534886  0.44585667  0.49186617  1
  O2-  O401  1  0.34328708  0.42658425  0.81657879  1
  O2-  O402  1  0.33964958  0.66362441  0.14652587  1
  O2-  O403  1  0.33180353  0.67333093  0.47959002  1
  O2-  O404  1  0.34531772  0.67483064  0.81078356  1
  O2-  O405  1  0.35543561  0.93456263  0.15186597  1
  O2-  O406  1  0.32033689  0.91775282  0.47923301  1
  O2-  O407  1  0.33998496  0.91641376  0.81168409  1
  O2-  O408  1  0.52856460  0.12556462  0.13813211  1
  O2-  O409  1  0.57883378  0.17046755  0.48064480  1
  O2-  O410  1  0.58178162  0.16994215  0.79990332  1
  O2-  O411  1  0.57695115  0.40442901  0.16544326  1
  O2-  O412  1  0.57752119  0.42497861  0.47095000  1
  O2-  O413  1  0.57566529  0.41747883  0.82608632  1
  O2-  O414  1  0.57773706  0.66641063  0.13874327  1
  O2-  O415  1  0.58192604  0.68105016  0.48606274  1
  O2-  O416  1  0.55789294  0.67432947  0.81941119  1
  O2-  O417  1  0.57083685  0.91736934  0.14006135  1
  O2-  O418  1  0.54688604  0.95003585  0.45336834  1
  O2-  O419  1  0.57267033  0.92213846  0.80149805  1
  O2-  O420  1  0.79431840  0.08647760  0.12881853  1
  O2-  O421  1  0.83244751  0.16095475  0.48023623  1
  O2-  O422  1  0.82839543  0.16286086  0.81157230  1
  O2-  O423  1  0.83812145  0.43880655  0.15128004  1
  O2-  O424  1  0.83601198  0.41333545  0.47852603  1
  O2-  O425  1  0.83818704  0.41595346  0.81985223  1
  O2-  O426  1  0.83686816  0.68241025  0.14168247  1
  O2-  O427  1  0.83537476  0.66040330  0.48645504  1
  O2-  O428  1  0.82566215  0.65013531  0.81822904  1
  O2-  O429  1  0.81569781  0.87774406  0.13643489  1
  O2-  O430  1  0.86080616  0.92139383  0.48094465  1
  O2-  O431  1  0.83016044  0.89789448  0.81508816  1
  O2-  O432  1  0.18494341  0.08700634  0.18587364  1
  O2-  O433  1  0.16916179  0.07889849  0.54312096  1
  O2-  O434  1  0.17045718  0.08743625  0.85778150  1
  O2-  O435  1  0.16576447  0.32896830  0.16864710  1
  O2-  O436  1  0.19043901  0.34634620  0.45412720  1
  O2-  O437  1  0.18896487  0.35871453  0.85812641  1
  O2-  O438  1  0.17807795  0.59255473  0.18965667  1
  O2-  O439  1  0.17215407  0.59108843  0.52799758  1
  O2-  O440  1  0.18864850  0.59613781  0.83691334  1
  O2-  O441  1  0.21557938  0.89966100  0.19979830  1
  O2-  O442  1  0.14321692  0.84182458  0.45892015  1
  O2-  O443  1  0.17888691  0.83565242  0.85778655  1
  O2-  O444  1  0.44583603  0.09381170  0.16932219  1
  O2-  O445  1  0.41330756  0.08070144  0.52686908  1
  O2-  O446  1  0.42161153  0.08632738  0.84735339  1
  O2-  O447  1  0.41501791  0.33778694  0.18726844  1
  O2-  O448  1  0.42207302  0.34760242  0.53833206  1
  O2-  O449  1  0.40779366  0.31978808  0.85930647  1
  O2-  O450  1  0.41773258  0.58126387  0.18804995  1
  O2-  O451  1  0.42209547  0.60428537  0.52987881  1
  O2-  O452  1  0.38175563  0.62532875  0.82605364  1
  O2-  O453  1  0.41327662  0.83041715  0.18885683  1
  O2-  O454  1  0.40192749  0.83655121  0.51799240  1
  O2-  O455  1  0.42874880  0.84223756  0.84185704  1
  O2-  O456  1  0.60954208  0.05929839  0.18630355  1
  O2-  O457  1  0.66406511  0.09023149  0.51593694  1
  O2-  O458  1  0.65868696  0.08259969  0.84629012  1
  O2-  O459  1  0.62953494  0.30122803  0.21087103  1
  O2-  O460  1  0.66273968  0.33767615  0.49627434  1
  O2-  O461  1  0.65964190  0.32759218  0.84645122  1
  O2-  O462  1  0.66480846  0.58796779  0.18206792  1
  O2-  O463  1  0.66678458  0.58808644  0.51856572  1
  O2-  O464  1  0.73572357  0.59416545  0.83858380  1
  O2-  O465  1  0.64043791  0.83662926  0.18002977  1
  O2-  O466  1  0.70225925  0.83460988  0.53404557  1
  O2-  O467  1  0.66978265  0.82515585  0.87161934  1
  O2-  O468  1  0.91419610  0.05780030  0.18577772  1
  O2-  O469  1  0.92430862  0.08809322  0.52901042  1
  O2-  O470  1  0.89828615  0.05781227  0.84501690  1
  O2-  O471  1  0.95922143  0.43222884  0.22275737  1
  O2-  O472  1  0.91310774  0.32364030  0.52300053  1
  O2-  O473  1  0.92328610  0.33193918  0.85304414  1
  O2-  O474  1  0.92701290  0.60570703  0.17647866  1
  O2-  O475  1  0.91565807  0.57702481  0.52870247  1
  O2-  O476  1  0.92226238  0.57808946  0.86002395  1
  O2-  O477  1  0.94196846  0.84357782  0.19684715  1
  O2-  O478  1  0.92201131  0.82294714  0.53654091  1
  O2-  O479  1  0.92592463  0.82912872  0.85535887  1
  O2-  O480  1  0.16983620  0.06966685  0.31271817  1
  O2-  O481  1  0.17391439  0.08708151  0.66349560  1
  O2-  O482  1  0.16670446  0.07401619  0.98110859  1
  O2-  O483  1  0.16442250  0.33270617  0.29014427  1
  O2-  O484  1  0.16711404  0.33871388  0.64873765  1
  O2-  O485  1  0.18245294  0.34256553  0.98085831  1
  O2-  O486  1  0.17267070  0.58446567  0.31050714  1
  O2-  O487  1  0.16806670  0.58406508  0.65143249  1
  O2-  O488  1  0.08337798  0.52628140  0.96607766  1
  O2-  O489  1  0.16798461  0.82590932  0.31164785  1
  O2-  O490  1  0.16154923  0.84191027  0.65559756  1
  O2-  O491  1  0.19140565  0.84288808  0.98087689  1
  O2-  O492  1  0.40543830  0.08531173  0.31370968  1
  O2-  O493  1  0.41337243  0.07545331  0.64828483  1
  O2-  O494  1  0.45455811  0.15165800  0.96149734  1
  O2-  O495  1  0.41702792  0.34222429  0.31341924  1
  O2-  O496  1  0.42254646  0.33982224  0.65822067  1
  O2-  O497  1  0.38906907  0.31066993  0.97122905  1
  O2-  O498  1  0.41213748  0.58188226  0.31317710  1
  O2-  O499  1  0.42064332  0.58849677  0.65217523  1
  O2-  O500  1  0.38657753  0.61874069  1.00194529  1
  O2-  O501  1  0.41361623  0.83877812  0.30831313  1
  O2-  O502  1  0.41505172  0.83435567  0.64217068  1
  O2-  O503  1  0.41438449  0.82647309  0.99041396  1
  O2-  O504  1  0.71208391  0.18912076  0.29754463  1
  O2-  O505  1  0.65806357  0.07178725  0.63946780  1
  O2-  O506  1  0.64836648  0.07562070  0.97126276  1
  O2-  O507  1  0.65677335  0.33838016  0.31922728  1
  O2-  O508  1  0.66937700  0.35169134  0.70951871  1
  O2-  O509  1  0.67773634  0.38494097  0.96303455  1
  O2-  O510  1  0.67292139  0.59605629  0.30456123  1
  O2-  O511  1  0.66656804  0.59102661  0.64649264  1
  O2-  O512  1  0.62248983  0.59117497  0.94913148  1
  O2-  O513  1  0.67898111  0.83896014  0.30193314  1
  O2-  O514  1  0.67312867  0.83333516  0.65089262  1
  O2-  O515  1  0.67328607  0.83956567  0.98796462  1
  O2-  O516  1  0.92415750  0.07563411  0.30047996  1
  O2-  O517  1  0.91508931  0.08296954  0.65176243  1
  O2-  O518  1  0.90275679  0.08424018  0.97308634  1
  O2-  O519  1  0.91629671  0.33480634  0.32451446  1
  O2-  O520  1  0.91681200  0.33139105  0.64852331  1
  O2-  O521  1  0.94149873  0.37560255  0.97237598  1
  O2-  O522  1  0.92560477  0.54728542  0.28609484  1
  O2-  O523  1  0.91676227  0.58708418  0.65279989  1
  O2-  O524  1  0.92564963  0.58853536  0.98221570  1
  O2-  O525  1  0.83246383  0.76960865  0.30229348  1
  O2-  O526  1  0.91537029  0.82933377  0.65964375  1
  O2-  O527  1  0.88249288  0.81401648  0.96531120  1
  O2-  O528  1  0.07855538  0.16087249  -0.01283574  1
  O2-  O529  1  0.08643322  0.16700760  0.32866486  1
  O2-  O530  1  0.08434258  0.17131970  0.68902020  1
  O2-  O531  1  0.08481656  0.39808578  0.03701577  1
  O2-  O532  1  0.07972650  0.41142563  0.34174532  1
  O2-  O533  1  0.08520512  0.41687306  0.68794910  1
  O2-  O534  1  0.10117131  0.67542235  0.01457927  1
  O2-  O535  1  0.08050516  0.65415480  0.35215099  1
  O2-  O536  1  0.08686504  0.67187660  0.68788894  1
  O2-  O537  1  0.08463233  0.90728255  0.02141863  1
  O2-  O538  1  0.08114313  0.89144960  0.36554579  1
  O2-  O539  1  0.07991281  0.92065085  0.70557898  1
  O2-  O540  1  0.32806973  0.16615952  0.02096495  1
  O2-  O541  1  0.33837065  0.17686292  0.34969573  1
  O2-  O542  1  0.34162203  0.17130580  0.69453685  1
  O2-  O543  1  0.34525656  0.44881710  0.02605355  1
  O2-  O544  1  0.31777677  0.40829389  0.35675496  1
  O2-  O545  1  0.33890377  0.42404867  0.69107157  1
  O2-  O546  1  0.34875401  0.66425629  0.02833415  1
  O2-  O547  1  0.34475679  0.67686597  0.35754677  1
  O2-  O548  1  0.33594503  0.67029905  0.68612607  1
  O2-  O549  1  0.35895814  0.92013189  0.03293419  1
  O2-  O550  1  0.32629730  0.91908734  0.35623438  1
  O2-  O551  1  0.32956518  0.91193047  0.68873961  1
  O2-  O552  1  0.50007094  0.07247418  0.03371111  1
  O2-  O553  1  0.57211028  0.16663235  0.35847316  1
  O2-  O554  1  0.56910842  0.13510786  0.68658666  1
  O2-  O555  1  0.55328479  0.41993295  -0.00687931  1
  O2-  O556  1  0.58722154  0.42871427  0.34358276  1
  O2-  O557  1  0.57602507  0.43643432  0.70713107  1
  O2-  O558  1  0.55474702  0.67635305  0.02086524  1
  O2-  O559  1  0.58626833  0.66875870  0.33681688  1
  O2-  O560  1  0.58586949  0.67504109  0.69217993  1
  O2-  O561  1  0.58471268  0.91424621  0.02093168  1
  O2-  O562  1  0.55339980  0.80508012  0.39425991  1
  O2-  O563  1  0.58140967  0.91122753  0.68202016  1
  O2-  O564  1  0.81464251  0.15861798  0.01288695  1
  O2-  O565  1  0.82063208  0.14059241  0.35961565  1
  O2-  O566  1  0.82616553  0.16370987  0.68809751  1
  O2-  O567  1  0.83594758  0.41868481  0.02599584  1
  O2-  O568  1  0.81491068  0.40229292  0.35091105  1
  O2-  O569  1  0.84707174  0.42375843  0.69803648  1
  O2-  O570  1  0.85787350  0.68251772  0.01851755  1
  O2-  O571  1  0.90828728  0.69052741  0.36867952  1
  O2-  O572  1  0.82924855  0.66252424  0.69736707  1
  O2-  O573  1  0.84102511  0.92850201  0.01294259  1
  O2-  O574  1  0.83778359  0.91471513  0.35408897  1
  O2-  O575  1  0.83660529  0.91800483  0.69272931  1
