# generated using pymatgen
data_H2O
_symmetry_space_group_name_H-M   'P 1'
_cell_length_a   17.97873566
_cell_length_b   17.97667193
_cell_length_c   21.99201916
_cell_angle_alpha   89.99522673
_cell_angle_beta   90.01620237
_cell_angle_gamma   119.96208495
_symmetry_Int_Tables_number   1
_chemical_formula_structural   H2O
_chemical_formula_sum   'H384 O192'
_cell_volume   6157.86207184
_cell_formula_units_Z   192
loop_
 _symmetry_equiv_pos_site_id
 _symmetry_equiv_pos_as_xyz
  1  'x, y, z'
loop_
 _atom_type_symbol
 _atom_type_oxidation_number
  H+  1.0
  O2-  -2.0
loop_
 _atom_site_type_symbol
 _atom_site_label
 _atom_site_symmetry_multiplicity
 _atom_site_fract_x
 _atom_site_fract_y
 _atom_site_fract_z
 _atom_site_occupancy
  H+  H0  1  0.60558286  0.22054203  0.67499194  1
  H+  H1  1  0.14143266  0.38400520  0.17541615  1
  H+  H2  1  0.11093642  0.22217872  0.49120233  1
  H+  H3  1  0.59619431  0.61885035  0.32748200  1
  H+  H4  1  0.86578555  0.22326945  0.15596983  1
  H+  H5  1  0.27386301  0.89772298  0.00996964  1
  H+  H6  1  0.63753218  0.39348756  0.17626343  1
  H+  H7  1  0.21092008  0.60666293  0.79289782  1
  H+  H8  1  0.86538358  0.14334265  0.00559156  1
  H+  H9  1  0.61037470  0.39276452  0.01555184  1
  H+  H10  1  0.27586931  0.61931001  0.66032715  1
  H+  H11  1  0.39090366  0.76462201  0.65372340  1
  H+  H12  1  0.61665709  0.69744805  0.15760515  1
  H+  H13  1  0.36262180  0.72462864  0.33813214  1
  H+  H14  1  0.59821816  0.49549015  0.31957023  1
  H+  H15  1  0.61954754  0.98218923  0.00576538  1
  H+  H16  1  0.62203576  0.89252944  0.67426363  1
  H+  H17  1  0.47643418  0.37867219  0.18390597  1
  H+  H18  1  0.12976766  0.36254454  0.32934451  1
  H+  H19  1  0.96792010  0.35882148  0.50844998  1
  H+  H20  1  0.47551173  0.85908589  0.32943292  1
  H+  H21  1  0.63441573  0.76634238  0.32495244  1
  H+  H22  1  0.86710086  0.34825158  0.16807222  1
  H+  H23  1  0.37885575  0.27642126  0.70966467  1
  H+  H24  1  0.12583223  0.34857070  0.50314203  1
  H+  H25  1  0.85420406  0.47599911  0.50468509  1
  H+  H26  1  0.60224362  0.22244568  1.00216879  1
  H+  H27  1  0.10906145  0.47347534  0.33609746  1
  H+  H28  1  0.24555523  0.10432248  0.83148674  1
  H+  H29  1  0.77911997  0.63629943  0.83597143  1
  H+  H30  1  0.72942471  0.35819720  0.66935101  1
  H+  H31  1  0.23290313  0.62596670  0.17125490  1
  H+  H32  1  0.58847412  0.24218148  0.31533322  1
  H+  H33  1  0.36212902  0.89546523  0.01234870  1
  H+  H34  1  0.72815981  0.83429421  0.17057824  1
  H+  H35  1  0.27873069  0.63336433  0.49132821  1
  H+  H36  1  0.02836033  0.89124837  0.67310038  1
  H+  H37  1  0.33589072  0.66557492  0.43100993  1
  H+  H38  1  0.36792127  0.64690613  0.15739669  1
  H+  H39  1  0.98752638  0.95423202  0.28673473  1
  H+  H40  1  0.64008310  1.02021526  0.33164506  1
  H+  H41  1  0.12628755  0.85231247  0.17042468  1
  H+  H42  1  0.97356701  0.86729940  0.94874335  1
  H+  H43  1  0.37331208  0.47475033  0.85538516  1
  H+  H44  1  0.89160166  0.77548740  0.17087522  1
  H+  H45  1  0.62247538  0.89458591  1.00856689  1
  H+  H46  1  0.74404261  0.61925490  0.66239266  1
  H+  H47  1  0.02111576  0.13170611  0.82827600  1
  H+  H48  1  0.86616722  0.97742766  0.67804799  1
  H+  H49  1  0.87955400  0.86923453  0.51435868  1
  H+  H50  1  0.75952897  0.38756932  0.15809102  1
  H+  H51  1  0.61391987  0.25033767  0.14768770  1
  H+  H52  1  0.12584377  0.51259268  0.79385966  1
  H+  H53  1  0.10097355  0.12741249  0.48366355  1
  H+  H54  1  0.84615027  0.62992580  0.17042592  1
  H+  H55  1  0.62693574  0.10756012  0.65978925  1
  H+  H56  1  0.90333434  0.32550700  0.22702771  1
  H+  H57  1  0.88378382  0.27043745  0.32804354  1
  H+  H58  1  0.63617051  0.02475306  0.84393598  1
  H+  H59  1  0.47624923  0.61159416  0.32041244  1
  H+  H60  1  0.56679546  0.34900618  0.33837844  1
  H+  H61  1  0.88707889  0.86368757  0.66691350  1
  H+  H62  1  0.13667929  0.48698782  0.16752101  1
  H+  H63  1  0.02145762  0.37099611  0.66603215  1
  H+  H64  1  0.74501752  0.85915502  0.99442667  1
  H+  H65  1  0.64803524  0.63274225  0.84629795  1
  H+  H66  1  0.33481532  0.47948575  0.86186062  1
  H+  H67  1  0.11717308  0.00999341  0.84063198  1
  H+  H68  1  0.14012248  0.87482773  0.66152670  1
  H+  H69  1  0.98739603  0.62790396  0.33174084  1
  H+  H70  1  0.89517208  0.36500043  0.32969625  1
  H+  H71  1  0.22040416  0.11291332  0.66797056  1
  H+  H72  1  0.61493693  -0.02580644  0.49280663  1
  H+  H73  1  0.85801434  0.22283992  0.49763712  1
  H+  H74  1  0.09607257  0.62441057  0.80367343  1
  H+  H75  1  0.59257361  0.91409618  0.77422543  1
  H+  H76  1  0.44712758  0.36948495  0.74049602  1
  H+  H77  1  0.55236056  0.41115260  0.51200241  1
  H+  H78  1  0.53042545  0.41012620  0.82119385  1
  H+  H79  1  0.38593443  0.52236604  0.49928008  1
  H+  H80  1  0.13986983  0.78631193  0.64617184  1
  H+  H81  1  0.73642791  0.86951215  0.66150019  1
  H+  H82  1  0.17086828  0.39144109  0.99193058  1
  H+  H83  1  0.82263701  0.36682346  0.99838085  1
  H+  H84  1  0.13211748  0.94152145  0.49853327  1
  H+  H85  1  0.36909538  0.62611761  0.65707758  1
  H+  H86  1  0.38811350  0.01765425  0.50230428  1
  H+  H87  1  0.11998804  0.72650616  0.33893569  1
  H+  H88  1  0.39345771  0.61440027  0.50019072  1
  H+  H89  1  0.36117363  0.23147167  0.16693577  1
  H+  H90  1  0.60981797  0.22239024  0.49937857  1
  H+  H91  1  0.88433443  0.90155620  0.00861531  1
  H+  H92  1  0.36343273  0.88234912  0.49198825  1
  H+  H93  1  0.88878163  0.61996070  0.51260653  1
  H+  H94  1  0.36549105  0.32199863  0.85651360  1
  H+  H95  1  0.48250417  0.60913518  0.15147949  1
  H+  H96  1  0.25569829  0.38452755  0.49146927  1
  H+  H97  1  0.51476882  0.13207570  0.67088291  1
  H+  H98  1  0.77768076  0.88834964  0.49675618  1
  H+  H99  1  0.87966628  0.36079583  0.51184941  1
  H+  H100  1  0.64671636  0.52885996  0.99880666  1
  H+  H101  1  0.88425149  0.11097652  0.50810286  1
  H+  H102  1  0.73963202  0.37914194  0.33431105  1
  H+  H103  1  0.76204414  0.39028977  0.30405018  1
  H+  H104  1  0.66786314  0.32924647  0.57331917  1
  H+  H105  1  0.10727169  0.46461961  0.49275640  1
  H+  H106  1  0.40832423  0.31592517  0.52304356  1
  H+  H107  1  0.11031224  0.36084667  0.65601966  1
  H+  H108  1  0.99049224  0.88129602  0.32537771  1
  H+  H109  1  0.52797248  0.88211515  0.67639134  1
  H+  H110  1  0.11652874  -0.01629180  0.67552729  1
  H+  H111  1  0.88931678  0.11372781  0.16675278  1
  H+  H112  1  0.68731038  0.08322419  0.23527924  1
  H+  H113  1  0.23292355  0.36463560  0.18496566  1
  H+  H114  1  0.64163757  0.78715107  0.66157108  1
  H+  H115  1  0.13434190  0.82776334  0.50941713  1
  H+  H116  1  0.92350017  0.58721625  0.27598260  1
  H+  H117  1  0.86903874  0.38606732  0.68187276  1
  H+  H118  1  0.97712767  0.60161459  0.85834660  1
  H+  H119  1  0.62564388  0.38783810  0.50299300  1
  H+  H120  1  0.72313638  0.11002579  0.50682192  1
  H+  H121  1  0.43484137  0.32913783  0.45367875  1
  H+  H122  1  0.36200203  0.63524314  0.33560037  1
  H+  H123  1  0.57731111  0.17715929  0.09708708  1
  H+  H124  1  0.45067601  0.34615538  0.33847773  1
  H+  H125  1  0.89806547  0.03506918  0.99915025  1
  H+  H126  1  0.71231623  0.34703070  0.84452516  1
  H+  H127  1  0.11837039  0.38025656  0.81734229  1
  H+  H128  1  0.70132934  0.35617867  0.99428854  1
  H+  H129  1  0.34851163  0.88224684  0.16696108  1
  H+  H130  1  0.10280156  0.71998674  0.15240460  1
  H+  H131  1  0.83591291  0.92025582  0.40172319  1
  H+  H132  1  0.36502379  0.35217808  0.33129184  1
  H+  H133  1  0.13254442  0.24804794  0.00822563  1
  H+  H134  1  0.64890508  0.87234026  0.85169112  1
  H+  H135  1  0.20778755  0.34913026  0.64523017  1
  H+  H136  1  0.87335153  0.64928993  0.35006179  1
  H+  H137  1  0.63687310  0.49228747  0.66373652  1
  H+  H138  1  0.38943505  0.78371102  0.17500872  1
  H+  H139  1  0.90121771  0.50321613  0.35362071  1
  H+  H140  1  0.11139788  0.22756847  0.16447585  1
  H+  H141  1  0.34583883  0.38947092  0.69434295  1
  H+  H142  1  0.36476701  0.15601794  -0.00979019  1
  H+  H143  1  0.83964450  0.42337055  0.44416540  1
  H+  H144  1  0.87955781  0.10943912  0.66205915  1
  H+  H145  1  0.38938123  0.85241932  0.66194603  1
  H+  H146  1  0.26360166  0.64079995  0.01699079  1
  H+  H147  1  0.47267402  0.11039024  0.50606809  1
  H+  H148  1  0.34064791  0.38042644  0.47949842  1
  H+  H149  1  0.35693655  0.37790266  0.17939947  1
  H+  H150  1  0.85827933  0.72855702  0.34860342  1
  H+  H151  1  0.13630547  0.77030053  0.84450003  1
  H+  H152  1  0.11881487  0.63544734  0.33727075  1
  H+  H153  1  0.88371282  1.02777188  0.32788860  1
  H+  H154  1  0.61016520  0.88001187  0.33723498  1
  H+  H155  1  0.02261247  0.13838174  0.15895227  1
  H+  H156  1  0.05707940  0.39590667  0.01948719  1
  H+  H157  1  0.58816584  0.44828366  0.10966150  1
  H+  H158  1  0.78723295  0.62143119  0.00737301  1
  H+  H159  1  0.77343069  0.13667376  0.34430067  1
  H+  H160  1  0.41982738  0.83116085  0.56365405  1
  H+  H161  1  0.12254922  0.10341072  0.83754070  1
  H+  H162  1  0.02016289  0.13672236  0.67505130  1
  H+  H163  1  0.38167716  0.02899694  1.00037060  1
  H+  H164  1  0.41434447  0.33333091  0.24207336  1
  H+  H165  1  0.59948127  0.12779106  0.82871195  1
  H+  H166  1  0.36742262  0.87632480  0.83904188  1
  H+  H167  1  0.12774996  0.49643653  0.02819323  1
  H+  H168  1  0.51224813  0.65287877  0.67764219  1
  H+  H169  1  0.52988985  0.40579847  0.02018001  1
  H+  H170  1  0.98964468  0.59736748  0.17746624  1
  H+  H171  1  0.88471478  0.38748530  0.82982831  1
  H+  H172  1  0.08112971  0.16693654  0.76736633  1
  H+  H173  1  0.12033031  0.62919569  0.65269226  1
  H+  H174  1  0.93468598  0.36656368  0.99361113  1
  H+  H175  1  0.98532153  0.36296188  0.83228030  1
  H+  H176  1  0.11250454  0.22871889  0.33796016  1
  H+  H177  1  0.86793015  -0.02142470  0.49880117  1
  H+  H178  1  0.58791482  0.66289788  0.06065108  1
  H+  H179  1  0.63774638  0.10792478  0.33226770  1
  H+  H180  1  0.09326262  0.85324668  0.34574317  1
  H+  H181  1  0.37629484  0.09475622  0.33005565  1
  H+  H182  1  0.87672095  0.47875522  0.84011731  1
  H+  H183  1  0.38971336  0.78069499  0.00186621  1
  H+  H184  1  0.46330519  0.10086720  0.83960105  1
  H+  H185  1  0.62210395  0.63800783  0.00178434  1
  H+  H186  1  -0.01373282  0.86011766  0.84506914  1
  H+  H187  1  0.13076785  0.26311447  0.84217615  1
  H+  H188  1  0.39515368  0.55893187  0.11643742  1
  H+  H189  1  0.85045823  0.68463743  0.44255875  1
  H+  H190  1  0.13015280  0.02192594  0.17311878  1
  H+  H191  1  0.51700769  0.13154308  0.00418611  1
  H+  H192  1  0.59254506  0.59722224  0.14815122  1
  H+  H193  1  0.72581740  0.11712556  0.99544573  1
  H+  H194  1  0.41748626  0.83869344  0.23558739  1
  H+  H195  1  0.38110266  0.01469006  0.66015543  1
  H+  H196  1  0.87145072  0.47747536  0.68168314  1
  H+  H197  1  0.22789349  0.61067725  0.32530260  1
  H+  H198  1  0.87160853  0.26413494  0.98929265  1
  H+  H199  1  0.50130424  0.15926882  0.18547434  1
  H+  H200  1  0.10766099  0.22625746  0.66699103  1
  H+  H201  1  0.76036301  0.14333455  0.82163781  1
  H+  H202  1  0.20594567  0.07553551  0.47736682  1
  H+  H203  1  0.16045588  0.56976411  0.70357636  1
  H+  H204  1  0.72189274  0.85720779  0.32785874  1
  H+  H205  1  0.52893566  0.66648774  0.84051868  1
  H+  H206  1  0.38426439  0.85685964  0.32886001  1
  H+  H207  1  0.36123496  0.13817462  0.67877200  1
  H+  H208  1  0.64550123  0.36656155  0.66418319  1
  H+  H209  1  0.27804897  0.13968202  0.16953009  1
  H+  H210  1  0.34423037  0.72499986  0.80446266  1
  H+  H211  1  0.38968383  0.77215754  0.50386455  1
  H+  H212  1  0.39243413  0.52229247  0.65068210  1
  H+  H213  1  0.87381277  0.87978236  0.83493911  1
  H+  H214  1  0.86250723  0.97487746  0.15542511  1
  H+  H215  1  0.60978921  0.13307298  0.49734757  1
  H+  H216  1  0.65289015  1.02180211  0.17720984  1
  H+  H217  1  0.65784930  0.53739970  0.50344135  1
  H+  H218  1  0.87762327  0.26939559  0.66245196  1
  H+  H219  1  0.63434223  0.11395315  0.99510849  1
  H+  H220  1  0.12972218  0.49281701  0.65972030  1
  H+  H221  1  0.33505125  0.19058929  0.47674601  1
  H+  H222  1  0.36334227  0.96306800  0.83435879  1
  H+  H223  1  0.22616878  0.33200741  0.84527431  1
  H+  H224  1  0.18646382  0.35040205  0.93146729  1
  H+  H225  1  0.02153374  0.88902452  0.15746301  1
  H+  H226  1  0.64254764  0.77882603  0.84930443  1
  H+  H227  1  0.53061188  0.63617480  0.48821372  1
  H+  H228  1  0.28016680  0.89510427  0.49351786  1
  H+  H229  1  0.34124755  0.21020697  0.33575556  1
  H+  H230  1  0.52730661  0.89665588  0.16393862  1
  H+  H231  1  0.27580645  0.15430228  -0.01060736  1
  H+  H232  1  0.53595975  0.88351798  0.83566200  1
  H+  H233  1  0.76770793  0.13518896  0.66697192  1
  H+  H234  1  -0.01467642  0.61240144  0.65872311  1
  H+  H235  1  0.87756215  0.64154292  0.68247069  1
  H+  H236  1  0.96947074  0.60535414  0.50757385  1
  H+  H237  1  0.41041780  0.15651170  0.19528486  1
  H+  H238  1  0.35617521  0.46698377  0.17503837  1
  H+  H239  1  0.48682581  0.29435494  0.88308268  1
  H+  H240  1  0.43104602  0.83155657  0.91309241  1
  H+  H241  1  0.48117994  0.86845131  0.00208491  1
  H+  H242  1  0.97458740  0.11470881  0.32543850  1
  H+  H243  1  0.95687164  0.51331336  0.21608669  1
  H+  H244  1  0.43983606  0.76426929  0.87313438  1
  H+  H245  1  0.12926298  0.12075569  0.32323987  1
  H+  H246  1  0.13447865  0.59758927  0.50515708  1
  H+  H247  1  0.64235562  0.86350441  0.50370645  1
  H+  H248  1  0.89049290  0.77495188  0.66765263  1
  H+  H249  1  0.85481385  0.46529511  0.15335484  1
  H+  H250  1  0.33377090  0.66485384  0.74737456  1
  H+  H251  1  0.22182818  0.85520322  0.32214534  1
  H+  H252  1  0.64788306  0.62129475  0.50216662  1
  H+  H253  1  0.88242978  0.77365394  0.51377117  1
  H+  H254  1  0.63135332  0.54114752  0.83235758  1
  H+  H255  1  0.09175544  -0.01511517  0.99935993  1
  H+  H256  1  0.27538685  0.87830276  0.67878646  1
  H+  H257  1  0.54801583  0.40420931  0.65515608  1
  H+  H258  1  0.11135355  0.70073780  0.49052128  1
  H+  H259  1  0.22895924  0.85471312  0.84269280  1
  H+  H260  1  0.61864638  0.72604924  0.48790990  1
  H+  H261  1  0.88166129  0.69958355  0.00707898  1
  H+  H262  1  0.78612785  0.88216432  0.83486004  1
  H+  H263  1  0.78514485  0.65093870  0.49922516  1
  H+  H264  1  0.84921750  0.42491262  0.76966155  1
  H+  H265  1  0.35050686  0.11035091  0.48436106  1
  H+  H266  1  0.89952951  0.77276271  0.85733807  1
  H+  H267  1  0.36992274  0.09285818  0.84246032  1
  H+  H268  1  0.38845586  0.64268847  0.84111370  1
  H+  H269  1  0.13086092  0.11308139  0.17227534  1
  H+  H270  1  0.86256650  0.62765176  0.84434860  1
  H+  H271  1  0.11688035  0.88352121  0.82518543  1
  H+  H272  1  0.51516892  0.11806606  0.34712856  1
  H+  H273  1  0.61924524  0.54023947  0.25383634  1
  H+  H274  1  0.15956904  0.60155332  1.07608102  1
  H+  H275  1  0.62292545  0.26168589  0.83991894  1
  H+  H276  1  0.40289468  0.39616886  -0.00546313  1
  H+  H277  1  0.10269470  0.60778590  1.02076190  1
  H+  H278  1  0.32121842  0.19653795  0.82937753  1
  H+  H279  1  0.87052440  0.90310981  0.33926699  1
  H+  H280  1  0.13096116  0.11123985  0.66679379  1
  H+  H281  1  0.89864433  0.01832523  0.84570155  1
  H+  H282  1  0.13626498  0.87824252  0.99179475  1
  H+  H283  1  0.35686192  0.96473286  0.33458683  1
  H+  H284  1  0.22140685  0.36567225  0.32801118  1
  H+  H285  1  0.31052053  0.45007195  -0.01402752  1
  H+  H286  1  1.01954479  0.38235837  0.33430700  1
  H+  H287  1  0.72422231  0.35889041  0.51212237  1
  H+  H288  1  0.12434763  0.68512701  0.70699889  1
  H+  H289  1  0.63129925  0.02076869  0.66244680  1
  H+  H290  1  0.92154124  0.33400776  0.89276445  1
  H+  H291  1  0.08419318  0.91197820  0.76556223  1
  H+  H292  1  0.06154154  0.65407431  0.09386224  1
  H+  H293  1  0.86712625  0.88818523  0.15341269  1
  H+  H294  1  0.38836685  0.29787494  0.99505391  1
  H+  H295  1  0.92345842  0.84524779  0.22620144  1
  H+  H296  1  0.08166540  0.39374143  0.75337668  1
  H+  H297  1  0.33551240  0.67781107  0.10133594  1
  H+  H298  1  0.52330807  0.73355452  0.71164788  1
  H+  H299  1  0.33445477  0.89998544  0.73818028  1
  H+  H300  1  0.41668330  0.58359886  0.26138553  1
  H+  H301  1  0.33078962  0.31140512  0.79081578  1
  H+  H302  1  0.91671084  0.58106018  0.60582076  1
  H+  H303  1  0.58387647  0.91048533  0.39812696  1
  H+  H304  1  0.91158208  0.07943403  0.60420360  1
  H+  H305  1  0.64769413  0.76455187  0.99482713  1
  H+  H306  1  0.90813658  0.33200356  0.60485091  1
  H+  H307  1  0.58039606  0.65683900  0.38991736  1
  H+  H308  1  0.67121147  0.80489289  0.23061534  1
  H+  H309  1  0.15551913  0.08482578  0.25635388  1
  H+  H310  1  0.18028831  0.87290691  0.57052804  1
  H+  H311  1  0.52696539  0.88447378  0.49303918  1
  H+  H312  1  0.08221781  0.16656518  0.39687153  1
  H+  H313  1  0.83871048  0.91796491  0.06545071  1
  H+  H314  1  0.57954432  0.16057567  0.40296606  1
  H+  H315  1  0.35720825  0.47715589  0.33376671  1
  H+  H316  1  0.78082752  0.13002223  0.15901582  1
  H+  H317  1  0.21898651  0.11046765  0.32146987  1
  H+  H318  1  0.82271231  0.16593658  0.72824764  1
  H+  H319  1  0.03810266  0.66247606  0.77809014  1
  H+  H320  1  0.64254818  0.33389102  0.22732156  1
  H+  H321  1  0.46777118  0.60016071  0.99443129  1
  H+  H322  1  0.83232796  0.16598283  0.43695095  1
  H+  H323  1  0.16974476  0.84602931  0.93715187  1
  H+  H324  1  0.16792203  0.57246694  0.56442598  1
  H+  H325  1  0.40995328  0.07796803  0.93696777  1
  H+  H326  1  0.29822756  0.43663812  0.71895671  1
  H+  H327  1  0.16919327  0.58464843  0.26539090  1
  H+  H328  1  0.84525554  0.66000244  0.10308222  1
  H+  H329  1  0.68826223  0.59553506  0.60097802  1
  H+  H330  1  0.31002013  0.13923484  0.38937814  1
  H+  H331  1  0.07523929  0.90278542  0.39977713  1
  H+  H332  1  0.95736806  0.47579178  0.39152267  1
  H+  H333  1  0.09527769  0.18597494  0.06648759  1
  H+  H334  1  0.42817762  0.09245436  0.27401653  1
  H+  H335  1  0.56930318  0.15553282  0.76809764  1
  H+  H336  1  0.15027265  0.63087607  0.91413006  1
  H+  H337  1  0.85220810  0.22815452  0.81801394  1
  H+  H338  1  0.07985437  0.92225462  0.09880766  1
  H+  H339  1  0.66253493  0.08601673  0.90214374  1
  H+  H340  1  0.90844606  0.83352483  0.57981112  1
  H+  H341  1  0.41909529  0.31185204  0.60322262  1
  H+  H342  1  0.64203253  0.32767987  0.93487061  1
  H+  H343  1  0.16128174  0.33361148  0.24182147  1
  H+  H344  1  0.34680400  0.62982018  0.00787381  1
  H+  H345  1  0.11360351  0.42552170  0.10753906  1
  H+  H346  1  0.52750589  0.23965224  0.26341952  1
  H+  H347  1  0.67632766  0.58445034  0.93682395  1
  H+  H348  1  0.42827173  0.58206756  0.59025594  1
  H+  H349  1  0.98464791  0.12688130  0.99782788  1
  H+  H350  1  0.66120198  0.07809818  0.56528703  1
  H+  H351  1  0.21412424  0.84972721  0.17117401  1
  H+  H352  1  0.15434077  0.32051968  0.56701951  1
  H+  H353  1  0.92386877  0.59097696  1.01560311  1
  H+  H354  1  0.86411129  0.14025207  0.34109482  1
  H+  H355  1  0.08214365  0.65215959  0.42785556  1
  H+  H356  1  0.67831176  0.83227673  0.92835188  1
  H+  H357  1  0.97399976  0.11273655  0.50639305  1
  H+  H358  1  0.44748852  0.36020538  0.59970627  1
  H+  H359  1  0.11917398  0.58342622  0.91505172  1
  H+  H360  1  0.58650599  0.92170042  0.10603737  1
  H+  H361  1  0.92652161  0.08281602  0.90217406  1
  H+  H362  1  0.84649255  0.66840819  0.74272200  1
  H+  H363  1  0.15771627  0.82194418  0.26388953  1
  H+  H364  1  0.93005664  0.56323384  0.92086706  1
  H+  H365  1  0.07289880  0.40854401  0.43222357  1
  H+  H366  1  0.91564361  0.08311878  0.22770691  1
  H+  H367  1  0.32165087  0.14859041  0.74133764  1
  H+  H368  1  0.41587428  0.62039804  0.90537724  1
  H+  H369  1  0.83961735  0.91543418  0.73717861  1
  H+  H370  1  0.57911944  0.44226107  0.75583471  1
  H+  H371  1  0.32739831  0.90743240  0.39473855  1
  H+  H372  1  0.67356259  0.83546352  0.56316593  1
  H+  H373  1  0.46439847  0.35479084  0.92170368  1
  H+  H374  1  0.57471218  0.39720029  0.40329428  1
  H+  H375  1  0.13793997  0.61749613  0.16862717  1
  H+  H376  1  0.32083941  0.42259278  0.39585247  1
  H+  H377  1  0.15009270  0.08023306  0.93300138  1
  H+  H378  1  0.31936358  0.91217026  0.10799850  1
  H+  H379  1  0.40587477  0.07236391  0.59982015  1
  H+  H380  1  0.13197691  0.12128825  -0.00737570  1
  H+  H381  1  0.57918582  0.68588124  0.77801725  1
  H+  H382  1  0.80581299  0.40172214  0.06034187  1
  H+  H383  1  0.83534165  0.17098629  0.06594926  1
  O2-  O384  1  0.08477698  0.16972126  0.14570600  1
  O2-  O385  1  0.07559115  0.16312935  0.47208957  1
  O2-  O386  1  0.08294634  0.16443920  0.81288593  1
  O2-  O387  1  0.11307834  0.42590481  0.15350592  1
  O2-  O388  1  0.07012842  0.40514533  0.47754196  1
  O2-  O389  1  0.08343616  0.40365291  0.79906557  1
  O2-  O390  1  0.07581725  0.65798605  0.13903724  1
  O2-  O391  1  0.07626913  0.64321333  0.47395173  1
  O2-  O392  1  0.06737945  0.65885807  0.81426245  1
  O2-  O393  1  0.08330652  0.92199826  0.14372990  1
  O2-  O394  1  0.09969692  0.96173683  0.47330582  1
  O2-  O395  1  0.08195019  0.90944422  0.81115376  1
  O2-  O396  1  0.33870586  0.17007365  0.15735621  1
  O2-  O397  1  0.31255774  0.13019192  0.46447573  1
  O2-  O398  1  0.30774549  0.13776557  0.81812786  1
  O2-  O399  1  0.32055915  0.40455691  0.16830065  1
  O2-  O400  1  0.31615703  0.41818749  0.47327524  1
  O2-  O401  1  0.31102774  0.29832877  0.83365471  1
  O2-  O402  1  0.33490288  0.67615359  0.14682385  1
  O2-  O403  1  0.33896578  0.66631227  0.47666244  1
  O2-  O404  1  0.32141205  0.66501150  0.79225660  1
  O2-  O405  1  0.30962572  0.90300361  0.15252058  1
  O2-  O406  1  0.33726933  0.91567085  0.47465434  1
  O2-  O407  1  0.33576560  0.90145310  0.81985506  1
  O2-  O408  1  0.58078486  0.18766253  0.14159083  1
  O2-  O409  1  0.57818932  0.16278745  0.48304064  1
  O2-  O410  1  0.56681618  0.15587314  0.81345831  1
  O2-  O411  1  0.57774559  0.44401816  0.15493525  1
  O2-  O412  1  0.60029207  0.42298216  0.48535616  1
  O2-  O413  1  0.54929283  0.45457671  0.78878630  1
  O2-  O414  1  0.57677461  0.64226033  0.13461071  1
  O2-  O415  1  0.59096834  0.66557320  0.47293030  1
  O2-  O416  1  0.58699476  0.68517516  0.82287916  1
  O2-  O417  1  0.58781200  0.92131339  0.15075580  1
  O2-  O418  1  0.58750298  0.91326434  0.47821327  1
  O2-  O419  1  0.59612789  0.91570298  0.81971345  1
  O2-  O420  1  0.84086992  0.16323242  0.13939156  1
  O2-  O421  1  0.82949796  0.16237151  0.48253803  1
  O2-  O422  1  0.81632927  0.17116389  0.80003197  1
  O2-  O423  1  0.81679185  0.40641321  0.13847499  1
  O2-  O424  1  0.82618160  0.41600926  0.48846865  1
  O2-  O425  1  0.85073390  0.42066392  0.81715668  1
  O2-  O426  1  0.84614318  0.67545449  0.14655019  1
  O2-  O427  1  0.84843448  0.68409143  0.48901287  1
  O2-  O428  1  0.84129386  0.66281791  0.82470523  1
  O2-  O429  1  0.83434671  0.91578755  0.13773994  1
  O2-  O430  1  0.83999123  0.91686605  0.48441829  1
  O2-  O431  1  0.84378832  0.90851584  0.81642393  1
  O2-  O432  1  0.15771573  0.08138917  0.19156538  1
  O2-  O433  1  0.14371154  0.05401616  0.48639829  1
  O2-  O434  1  0.14790195  0.06995909  0.85677353  1
  O2-  O435  1  0.16617165  0.33670050  0.19542087  1
  O2-  O436  1  0.16002153  0.32256516  0.51762453  1
  O2-  O437  1  0.16918663  0.32523012  0.85459072  1
  O2-  O438  1  0.17097339  0.58983970  0.18412678  1
  O2-  O439  1  0.16931854  0.57201239  0.51985040  1
  O2-  O440  1  0.14870626  0.57428099  0.78148365  1
  O2-  O441  1  0.15085594  0.81702694  0.18533636  1
  O2-  O442  1  0.18116826  0.88169573  0.52478184  1
  O2-  O443  1  0.16796221  0.83176543  0.85529790  1
  O2-  O444  1  0.45894848  0.15570582  0.21773959  1
  O2-  O445  1  0.41079466  0.07722466  0.51878479  1
  O2-  O446  1  0.40357315  0.06545081  0.85615812  1
  O2-  O447  1  0.41594836  0.33882526  0.19691527  1
  O2-  O448  1  0.38568594  0.30664703  0.48133854  1
  O2-  O449  1  0.47306879  0.34008334  0.87893188  1
  O2-  O450  1  0.41656820  0.58244571  0.15687922  1
  O2-  O451  1  0.42309590  0.58264174  0.51395713  1
  O2-  O452  1  0.43683584  0.65984596  0.87004770  1
  O2-  O453  1  0.41674457  0.84347301  0.19039706  1
  O2-  O454  1  0.41870951  0.83303401  0.51827958  1
  O2-  O455  1  0.43664642  0.81764209  0.86901110  1
  O2-  O456  1  0.69259595  0.08226959  0.19070832  1
  O2-  O457  1  0.66141755  0.07876612  0.51971099  1
  O2-  O458  1  0.65873331  0.08533890  0.85656688  1
  O2-  O459  1  0.66332034  0.35714514  0.18578309  1
  O2-  O460  1  0.66362387  0.32947561  0.52781782  1
  O2-  O461  1  0.65193639  0.32178812  0.85583411  1
  O2-  O462  1  0.62234693  0.53302887  0.17713072  1
  O2-  O463  1  0.68356009  0.59702761  0.51883800  1
  O2-  O464  1  0.67161090  0.59446375  0.85509319  1
  O2-  O465  1  0.67816185  0.78556818  0.18997848  1
  O2-  O466  1  0.67358267  0.83328893  0.51775703  1
  O2-  O467  1  0.67627417  0.83882022  0.86821843  1
  O2-  O468  1  0.91941656  0.08234467  0.18254472  1
  O2-  O469  1  0.91433622  0.08024155  0.52307531  1
  O2-  O470  1  0.92881808  0.07959071  0.85734701  1
  O2-  O471  1  0.90279873  0.32372274  0.18210648  1
  O2-  O472  1  0.90854275  0.32885231  0.52593929  1
  O2-  O473  1  0.92485071  0.34110851  0.84739112  1
  O2-  O474  1  0.93919969  0.55400804  0.20291351  1
  O2-  O475  1  0.91240715  0.58276065  0.52700179  1
  O2-  O476  1  0.91895386  0.56482246  0.87630223  1
  O2-  O477  1  0.92066023  0.83846986  0.18130638  1
  O2-  O478  1  0.90717087  0.83484484  0.53255292  1
  O2-  O479  1  0.93122707  0.83439169  0.86898909  1
  O2-  O480  1  0.15652093  0.08670004  0.30503119  1
  O2-  O481  1  0.16007725  0.07845816  0.65451100  1
  O2-  O482  1  0.15245887  0.08174648  0.97867587  1
  O2-  O483  1  0.15994390  0.33176988  0.31363597  1
  O2-  O484  1  0.14794312  0.31800808  0.63143720  1
  O2-  O485  1  0.20250424  0.36379608  0.97547323  1
  O2-  O486  1  0.16661499  0.58077758  0.31060488  1
  O2-  O487  1  0.16236222  0.56003664  0.65877394  1
  O2-  O488  1  0.15251792  0.58971018  1.03249020  1
  O2-  O489  1  0.15991862  0.82194347  0.30961453  1
  O2-  O490  1  0.17416366  0.84926045  0.64229222  1
  O2-  O491  1  0.17454922  0.85574154  0.98154715  1
  O2-  O492  1  0.41113282  0.06896899  0.31716408  1
  O2-  O493  1  0.40771129  0.07470310  0.64529542  1
  O2-  O494  1  0.41294163  0.08780352  0.98162432  1
  O2-  O495  1  0.39182999  0.31700226  0.31982454  1
  O2-  O496  1  0.38976620  0.33486606  0.72211187  1
  O2-  O497  1  0.43077881  0.36128374  0.99002006  1
  O2-  O498  1  0.41406451  0.58171804  0.30578717  1
  O2-  O499  1  0.42672777  0.58307359  0.63606073  1
  O2-  O500  1  0.40629298  0.57320342  0.98147801  1
  O2-  O501  1  0.41472069  0.82629666  0.31438375  1
  O2-  O502  1  0.42310030  0.82716937  0.64408849  1
  O2-  O503  1  0.42097570  0.84036247  0.98593558  1
  O2-  O504  1  0.67310957  0.08198879  0.31963906  1
  O2-  O505  1  0.65839815  0.07891433  0.64368093  1
  O2-  O506  1  0.66559621  0.08395172  0.97999736  1
  O2-  O507  1  0.57633457  0.28115477  0.29008585  1
  O2-  O508  1  0.67082528  0.33002968  0.65181191  1
  O2-  O509  1  0.63910875  0.32729940  0.98020906  1
  O2-  O510  1  0.62061434  0.55106828  0.29891579  1
  O2-  O511  1  0.68486572  0.58728275  0.64569140  1
  O2-  O512  1  0.68038329  0.58897851  0.98194621  1
  O2-  O513  1  0.66272986  0.82739014  0.31109005  1
  O2-  O514  1  0.67761338  0.84448188  0.64289771  1
  O2-  O515  1  0.68227665  0.82768506  0.97898598  1
  O2-  O516  1  0.91462786  0.08675937  0.30988141  1
  O2-  O517  1  0.90980328  0.07772653  0.64950764  1
  O2-  O518  1  0.92393900  0.09465228  0.98363269  1
  O2-  O519  1  0.91689669  0.32998713  0.31023850  1
  O2-  O520  1  0.90940963  0.33207029  0.65035119  1
  O2-  O521  1  0.89211798  0.32179460  0.96745844  1
  O2-  O522  1  0.92479403  0.59648158  0.32072391  1
  O2-  O523  1  0.92251742  0.58149750  0.65117008  1
  O2-  O524  1  0.96140561  0.56981356  0.99969488  1
  O2-  O525  1  0.95093049  0.89484700  0.29950920  1
  O2-  O526  1  0.91661932  0.83351718  0.64879098  1
  O2-  O527  1  0.97270061  0.87849791  0.99320201  1
  O2-  O528  1  0.09511023  0.18764408  0.02109336  1
  O2-  O529  1  0.08425070  0.16682119  0.35077934  1
  O2-  O530  1  0.08091254  0.16830239  0.68884502  1
  O2-  O531  1  0.11567090  0.43353294  0.03310205  1
  O2-  O532  1  0.07906150  0.41363011  0.35242093  1
  O2-  O533  1  0.08283939  0.39774665  0.67796995  1
  O2-  O534  1  0.04767185  0.63929211  0.01855703  1
  O2-  O535  1  0.08959090  0.66547034  0.35553645  1
  O2-  O536  1  0.10022134  0.66959711  0.66610788  1
  O2-  O537  1  0.06303732  0.92167205  0.01395160  1
  O2-  O538  1  0.04828723  0.86095546  0.36652424  1
  O2-  O539  1  0.08841744  0.91976295  0.68822443  1
  O2-  O540  1  0.33835844  0.19295120  -0.01266297  1
  O2-  O541  1  0.30901135  0.14668097  0.34410057  1
  O2-  O542  1  0.33305166  0.16782012  0.69778540  1
  O2-  O543  1  0.37235794  0.48262593  -0.00034088  1
  O2-  O544  1  0.32293208  0.41758748  0.35046703  1
  O2-  O545  1  0.32083842  0.42613991  0.68168847  1
  O2-  O546  1  0.32722547  0.66900501  0.02292750  1
  O2-  O547  1  0.33051458  0.66303870  0.35276954  1
  O2-  O548  1  0.33722342  0.65544387  0.67273515  1
  O2-  O549  1  0.33349079  0.92661780  0.02761040  1
  O2-  O550  1  0.32473323  0.90361178  0.34948468  1
  O2-  O551  1  0.33561312  0.90238158  0.69287207  1
  O2-  O552  1  0.57888044  0.16211524  0.01703636  1
  O2-  O553  1  0.57726202  0.15446368  0.35781450  1
  O2-  O554  1  0.57413293  0.15933964  0.68815493  1
  O2-  O555  1  0.59140270  0.43257028  0.03284463  1
  O2-  O556  1  0.55120206  0.38759943  0.36164943  1
  O2-  O557  1  0.60203260  0.42870445  0.67762373  1
  O2-  O558  1  0.59100345  0.66910287  0.01464539  1
  O2-  O559  1  0.57490236  0.65740497  0.34500169  1
  O2-  O560  1  0.55372764  0.70221823  0.70383584  1
  O2-  O561  1  0.58818917  0.92075053  0.02034848  1
  O2-  O562  1  0.58080946  0.91120358  0.35284537  1
  O2-  O563  1  0.58686005  0.91466290  0.69424213  1
  O2-  O564  1  0.83365343  0.17271381  0.01963553  1
  O2-  O565  1  0.83509745  0.17049853  0.35854738  1
  O2-  O566  1  0.82798006  0.16571939  0.68213190  1
  O2-  O567  1  0.79826365  0.40056376  0.01530374  1
  O2-  O568  1  0.89912799  0.45311006  0.37616291  1
  O2-  O569  1  0.84246641  0.41922639  0.70091434  1
  O2-  O570  1  0.84639692  0.64208475  0.02374861  1
  O2-  O571  1  0.84315063  0.67605081  0.37071908  1
  O2-  O572  1  0.84846225  0.67281985  0.69746742  1
  O2-  O573  1  0.84067811  0.91785753  0.01885819  1
  O2-  O574  1  0.83197604  0.92261695  0.35672199  1
  O2-  O575  1  0.83733864  0.91558384  0.69173808  1
