# generated using pymatgen
data_H2O
_symmetry_space_group_name_H-M   'P 1'
_cell_length_a   17.98217553
_cell_length_b   17.98195756
_cell_length_c   21.97928681
_cell_angle_alpha   90.00221240
_cell_angle_beta   89.96741548
_cell_angle_gamma   119.97350046
_symmetry_Int_Tables_number   1
_chemical_formula_structural   H2O
_chemical_formula_sum   'H384 O192'
_cell_volume   6156.57603589
_cell_formula_units_Z   192
loop_
 _symmetry_equiv_pos_site_id
 _symmetry_equiv_pos_as_xyz
  1  'x, y, z'
loop_
 _atom_type_symbol
 _atom_type_oxidation_number
  H+  1.0
  O2-  -2.0
loop_
 _atom_site_type_symbol
 _atom_site_label
 _atom_site_symmetry_multiplicity
 _atom_site_fract_x
 _atom_site_fract_y
 _atom_site_fract_z
 _atom_site_occupancy
  H+  H0  1  0.35246191  0.22955272  0.67479548  1
  H+  H1  1  0.84516312  0.60221549  0.67835599  1
  H+  H2  1  0.11904818  0.39155329  0.16927116  1
  H+  H3  1  0.63167375  0.85502003  0.98931624  1
  H+  H4  1  0.26481764  0.15172083  0.00769583  1
  H+  H5  1  0.66739445  0.27257409  0.83217292  1
  H+  H6  1  0.76809994  0.88292930  0.82492730  1
  H+  H7  1  0.83735378  0.84512692  1.00645999  1
  H+  H8  1  0.12342900  0.10803246  0.65846950  1
  H+  H9  1  0.50011367  0.61465238  0.45520056  1
  H+  H10  1  0.72674692  0.72872695  0.45377412  1
  H+  H11  1  -0.03302971  0.10834300  0.16960723  1
  H+  H12  1  0.86694331  0.22480151  0.84100277  1
  H+  H13  1  0.78430931  0.38865149  0.69870062  1
  H+  H14  1  0.21830720  0.11912380  0.66028479  1
  H+  H15  1  0.38555929  0.52314965  0.17384530  1
  H+  H16  1  0.73797673  0.34217978  0.22672892  1
  H+  H17  1  0.29199552  0.64426916  0.33480266  1
  H+  H18  1  0.11465422  0.63977422  0.66471794  1
  H+  H19  1  0.21964912  0.86015431  0.65884022  1
  H+  H20  1  0.35009367  0.97721864  0.67042356  1
  H+  H21  1  0.76337645  0.54087816  0.71589360  1
  H+  H22  1  0.14482602  0.68728911  0.82162162  1
  H+  H23  1  0.11878209  0.90047583  0.15636803  1
  H+  H24  1  0.41681353  0.84871642  0.91106418  1
  H+  H25  1  0.96361904  0.10888838  0.65930322  1
  H+  H26  1  0.21413981  0.27188643  0.61445918  1
  H+  H27  1  0.13206526  1.02127463  0.32370254  1
  H+  H28  1  0.38108253  0.52313603  0.99264511  1
  H+  H29  1  0.22325752  0.11118308  0.32365526  1
  H+  H30  1  0.28337430  0.20381405  0.37219649  1
  H+  H31  1  0.36532525  0.21266330  0.48862469  1
  H+  H32  1  0.56662832  0.73828943  0.35726267  1
  H+  H33  1  1.02375694  0.16029945  1.00105479  1
  H+  H34  1  0.50981587  0.89029378  0.67443822  1
  H+  H35  1  0.51720734  0.64301790  0.82670572  1
  H+  H36  1  0.76973078  0.36286407  1.01297517  1
  H+  H37  1  0.60559832  1.00182502  0.66802126  1
  H+  H38  1  0.36367667  -0.01296137  0.33508389  1
  H+  H39  1  0.06564104  0.15566511  0.73235742  1
  H+  H40  1  0.84288470  0.11956205  0.16504402  1
  H+  H41  1  0.09631221  0.22402924  0.82013037  1
  H+  H42  1  0.22410157  0.12081311  0.16888063  1
  H+  H43  1  0.59065161  0.19902363  0.50399249  1
  H+  H44  1  0.05688149  0.66247899  0.16737362  1
  H+  H45  1  0.96569880  0.36693214  0.49625242  1
  H+  H46  1  0.89187370  0.13702976  0.99118456  1
  H+  H47  1  0.27407336  0.64519027  0.48440859  1
  H+  H48  1  0.16505440  0.31846164  0.59336366  1
  H+  H49  1  0.64091931  0.24933888  0.99059387  1
  H+  H50  1  0.76462526  0.88889611  0.66876961  1
  H+  H51  1  1.00531348  0.61346478  0.48909765  1
  H+  H52  1  0.76586868  0.38529227  0.47588112  1
  H+  H53  1  0.25834336  0.89138055  0.82259760  1
  H+  H54  1  0.78607622  0.91849833  0.49543759  1
  H+  H55  1  0.89828678  0.59950419  0.32849236  1
  H+  H56  1  0.38214428  0.74128602  0.17038303  1
  H+  H57  1  0.16497533  0.58305065  0.55564475  1
  H+  H58  1  0.34741082  0.89124903  0.83072953  1
  H+  H59  1  0.81324792  0.18414278  0.34630072  1
  H+  H60  1  0.88582616  0.87068689  0.65702675  1
  H+  H61  1  0.89722528  0.50930616  0.32247034  1
  H+  H62  1  0.84705452  0.62495663  0.15619280  1
  H+  H63  1  0.12407467  0.88048625  0.83334640  1
  H+  H64  1  0.51185586  0.58584385  0.47315727  1
  H+  H65  1  0.87254549  0.12391846  0.51347417  1
  H+  H66  1  0.30261582  0.83022813  0.12214091  1
  H+  H67  1  0.22706733  0.61800175  0.65411612  1
  H+  H68  1  0.66684920  0.90807923  0.31924844  1
  H+  H69  1  0.61653383  0.90067923  0.48319398  1
  H+  H70  1  0.60764804  0.96212588  0.84306781  1
  H+  H71  1  0.11995931  0.12637124  0.99258273  1
  H+  H72  1  0.12818284  0.27757022  0.17305834  1
  H+  H73  1  0.21501843  0.26136347  0.46399330  1
  H+  H74  1  0.41178199  0.78973420  0.33005918  1
  H+  H75  1  0.98774700  0.61098918  0.84482511  1
  H+  H76  1  0.88653239  0.36112948  0.65968871  1
  H+  H77  1  0.50126069  0.35951280  0.33879007  1
  H+  H78  1  0.85296126  0.13731090  0.68599644  1
  H+  H79  1  0.36336128  0.11187786  0.65895847  1
  H+  H80  1  1.02722508  0.39931416  0.17592238  1
  H+  H81  1  0.11059033  0.14790021  0.15571930  1
  H+  H82  1  0.75709054  0.12190685  0.17500246  1
  H+  H83  1  0.71051971  0.60234643  0.65861173  1
  H+  H84  1  0.40866092  0.87305134  0.17982331  1
  H+  H85  1  0.47445937  0.60618931  -0.00456089  1
  H+  H86  1  0.27537329  0.38744547  0.66934211  1
  H+  H87  1  0.56992160  0.29236401  0.34498065  1
  H+  H88  1  0.86601112  0.38121337  0.01908412  1
  H+  H89  1  0.85440493  0.68593825  0.40676805  1
  H+  H90  1  0.17131887  0.84788217  0.23491707  1
  H+  H91  1  0.38242394  0.87137302  0.65656385  1
  H+  H92  1  0.46565212  0.38087264  0.16541160  1
  H+  H93  1  0.97516132  0.87219786  0.65791676  1
  H+  H94  1  0.03003261  0.62930313  0.33247985  1
  H+  H95  1  0.41049238  0.32339540  0.56623826  1
  H+  H96  1  0.08789472  0.40499406  0.73639329  1
  H+  H97  1  0.86356026  0.50416560  1.00362642  1
  H+  H98  1  0.89037446  0.47971853  0.83484690  1
  H+  H99  1  0.78635220  0.64870004  0.83994617  1
  H+  H100  1  0.34883543  0.96640669  0.48957469  1
  H+  H101  1  0.59745324  0.17554261  0.39429868  1
  H+  H102  1  0.88367030  1.01450558  0.16852998  1
  H+  H103  1  0.13147618  0.56235221  0.83410989  1
  H+  H104  1  0.13497030  0.36874666  0.33000784  1
  H+  H105  1  0.34799416  0.34321169  0.48527504  1
  H+  H106  1  0.24062519  0.62135898  0.17959226  1
  H+  H107  1  0.49966803  0.87644125  0.17283169  1
  H+  H108  1  0.63026390  0.33173668  -0.01574743  1
  H+  H109  1  0.26459912  0.39623603  0.16224950  1
  H+  H110  1  0.64812239  0.53307368  1.00160370  1
  H+  H111  1  0.70756261  0.57197097  0.31756881  1
  H+  H112  1  0.39237098  0.86408836  0.99767524  1
  H+  H113  1  0.12756043  0.48959773  0.17012220  1
  H+  H114  1  0.97200472  0.35886141  0.65751154  1
  H+  H115  1  0.47650900  0.64560355  0.52792221  1
  H+  H116  1  0.11424080  0.72359489  0.33837527  1
  H+  H117  1  0.04184253  0.45778575  0.73115604  1
  H+  H118  1  0.37336500  0.97719536  -0.00370438  1
  H+  H119  1  1.00056450  0.34636500  0.84786643  1
  H+  H120  1  0.35929433  0.73518227  0.67008986  1
  H+  H121  1  0.39908862  0.66174559  0.52454923  1
  H+  H122  1  0.74620869  0.89291937  0.32475166  1
  H+  H123  1  0.22945005  0.58959586  0.83563341  1
  H+  H124  1  0.60916697  0.63920825  0.17045874  1
  H+  H125  1  0.86229001  0.87605488  0.16399325  1
  H+  H126  1  0.62803645  0.77690509  0.65453478  1
  H+  H127  1  0.72983964  0.85877834  0.17014551  1
  H+  H128  1  0.01660657  0.89573047  0.82080952  1
  H+  H129  1  0.79379288  0.38389689  0.31742143  1
  H+  H130  1  0.21955575  0.35796428  0.32428058  1
  H+  H131  1  1.01063587  0.13158187  0.82373283  1
  H+  H132  1  0.89287027  0.77123515  0.83439777  1
  H+  H133  1  0.35031133  0.67416907  0.39406456  1
  H+  H134  1  0.52845990  0.12345459  0.15169895  1
  H+  H135  1  0.59751579  0.38148096  0.81723018  1
  H+  H136  1  0.85021833  0.22603637  0.49301274  1
  H+  H137  1  0.57325800  0.18930570  0.71248574  1
  H+  H138  1  0.47100302  0.87190115  0.49998980  1
  H+  H139  1  0.62762568  0.86526522  0.65591178  1
  H+  H140  1  0.64047665  0.61388740  0.50163755  1
  H+  H141  1  0.87137158  0.01687162  1.02322531  1
  H+  H142  1  0.15759703  0.83233465  0.60031293  1
  H+  H143  1  0.37932192  0.86725240  0.50014913  1
  H+  H144  1  0.37980115  0.28040002  0.99495088  1
  H+  H145  1  0.37561803  0.09923289  0.49859492  1
  H+  H146  1  0.85339597  0.38237229  0.48414538  1
  H+  H147  1  0.62473899  0.10292368  0.51758872  1
  H+  H148  1  0.34835703  0.73090094  0.82803097  1
  H+  H149  1  0.36128775  0.14496122  0.15762064  1
  H+  H150  1  0.59694103  0.22249375  0.64484864  1
  H+  H151  1  0.46873512  0.92717221  0.86883936  1
  H+  H152  1  0.94026758  0.29714721  0.34041614  1
  H+  H153  1  0.77931618  0.65174445  0.00648082  1
  H+  H154  1  0.47135532  0.36647595  -0.00673310  1
  H+  H155  1  0.39292852  0.61772374  0.32273514  1
  H+  H156  1  0.33679649  0.49056002  0.53048588  1
  H+  H157  1  0.10742461  1.01484950  0.00166810  1
  H+  H158  1  0.05324406  0.41819226  0.32884877  1
  H+  H159  1  0.35842339  0.37296339  0.32931942  1
  H+  H160  1  0.23175213  0.11081255  0.50463319  1
  H+  H161  1  0.81583287  0.15287380  0.07290893  1
  H+  H162  1  0.85776331  0.22645532  0.68299065  1
  H+  H163  1  0.59085990  0.71776370  0.34423940  1
  H+  H164  1  0.12232024  0.23301490  0.33725090  1
  H+  H165  1  0.60713598  0.10906542  0.16408386  1
  H+  H166  1  0.32290048  0.50172071  0.50123040  1
  H+  H167  1  0.60075292  0.38202078  0.66103980  1
  H+  H168  1  0.92365152  0.36865379  0.84399236  1
  H+  H169  1  0.80576181  0.38650676  0.83169438  1
  H+  H170  1  0.88012460  0.22748955  0.03136170  1
  H+  H171  1  0.74259452  0.82731298  0.01119996  1
  H+  H172  1  0.35927944  0.73826033  0.48625383  1
  H+  H173  1  0.13587447  0.86266619  0.32886411  1
  H+  H174  1  0.51047232  0.38384477  0.81774733  1
  H+  H175  1  0.64926815  0.42337838  0.04551091  1
  H+  H176  1  0.57375865  0.54973662  0.33324149  1
  H+  H177  1  0.91768865  0.84562069  0.56838800  1
  H+  H178  1  0.36071717  0.23370941  0.15931594  1
  H+  H179  1  0.26663774  0.13597775  0.83034015  1
  H+  H180  1  0.60361454  0.71866850  1.00989797  1
  H+  H181  1  0.22555893  0.86471027  0.98777313  1
  H+  H182  1  0.76920832  0.65538325  0.49045454  1
  H+  H183  1  0.87294174  0.90052145  0.34709737  1
  H+  H184  1  0.87227425  0.02042192  0.65772715  1
  H+  H185  1  0.46751982  0.61719831  0.67441701  1
  H+  H186  1  0.62423977  0.36056428  0.48027786  1
  H+  H187  1  0.63751724  0.61686362  1.00589815  1
  H+  H188  1  0.51141138  0.48361569  0.11099816  1
  H+  H189  1  0.12540504  0.13774509  0.33636194  1
  H+  H190  1  0.88837571  0.76732357  0.17415244  1
  H+  H191  1  0.36879952  0.12006429  0.32524606  1
  H+  H192  1  0.15162724  0.79157553  0.17535400  1
  H+  H193  1  0.84939603  0.75482905  0.49124906  1
  H+  H194  1  0.92062585  0.75388663  0.98821378  1
  H+  H195  1  0.83211778  0.43610199  0.16836929  1
  H+  H196  1  1.03395344  0.89282728  1.00310269  1
  H+  H197  1  0.38415917  1.02676256  0.82830186  1
  H+  H198  1  0.87902790  0.02164560  0.83778952  1
  H+  H199  1  0.63098757  0.00887376  0.18891338  1
  H+  H200  1  0.88509416  0.03699833  0.50887190  1
  H+  H201  1  0.50301989  0.10957075  0.50346871  1
  H+  H202  1  0.62725328  0.89076335  0.15122680  1
  H+  H203  1  0.60438390  0.64083346  0.67081932  1
  H+  H204  1  0.82453695  0.16873245  0.78118820  1
  H+  H205  1  0.93396689  0.55606849  0.16244701  1
  H+  H206  1  0.61806979  0.96348952  -0.02551097  1
  H+  H207  1  0.13878175  0.52901638  0.65609862  1
  H+  H208  1  0.94891474  0.71447327  0.38991857  1
  H+  H209  1  0.52835031  0.90828670  0.33812554  1
  H+  H210  1  0.57291642  0.40848786  0.72449119  1
  H+  H211  1  0.87202965  0.99069254  0.34222669  1
  H+  H212  1  0.89717384  0.36536519  0.18225179  1
  H+  H213  1  0.12880310  0.57227171  -0.00904491  1
  H+  H214  1  0.94926210  0.35245228  0.93980021  1
  H+  H215  1  0.83633266  0.97137937  0.02867944  1
  H+  H216  1  0.39221948  0.62823246  0.83959724  1
  H+  H217  1  0.46650521  0.36031484  0.65739703  1
  H+  H218  1  0.20953894  0.37767252  0.50721444  1
  H+  H219  1  0.41580214  0.84364929  0.59714746  1
  H+  H220  1  0.02541640  0.89030460  0.33901945  1
  H+  H221  1  0.88341986  0.51651823  0.49758827  1
  H+  H222  1  0.52185949  0.87515598  0.82113769  1
  H+  H223  1  0.89469795  0.52024194  0.66010791  1
  H+  H224  1  0.10016980  0.21064637  0.67050406  1
  H+  H225  1  0.37817410  0.27302888  0.84098338  1
  H+  H226  1  0.21206922  0.85696912  0.50729052  1
  H+  H227  1  0.27506157  0.88063396  0.16498419  1
  H+  H228  1  0.13526671  0.72297281  -0.00168053  1
  H+  H229  1  0.71984956  0.11206477  0.51781048  1
  H+  H230  1  0.12949476  0.86679184  0.50971157  1
  H+  H231  1  0.85778957  0.09571868  0.32618681  1
  H+  H232  1  0.09607489  0.39553194  0.48457084  1
  H+  H233  1  0.47834170  0.10949210  0.82897477  1
  H+  H234  1  0.62420196  0.13020669  0.85413566  1
  H+  H235  1  0.61258430  0.98633415  0.49146067  1
  H+  H236  1  0.15645766  0.61444156  0.32947301  1
  H+  H237  1  0.60757864  0.47418083  0.48871897  1
  H+  H238  1  0.66921351  0.80888121  0.49507906  1
  H+  H239  1  0.39199956  0.06895441  0.56343258  1
  H+  H240  1  0.97702343  0.85872844  0.17367575  1
  H+  H241  1  0.11529218  0.98138732  0.66941095  1
  H+  H242  1  0.35850019  0.48206018  0.67636683  1
  H+  H243  1  0.13137299  0.28774672  0.50047849  1
  H+  H244  1  0.45258939  0.11311934  0.65368867  1
  H+  H245  1  0.38130271  0.36728827  0.65948822  1
  H+  H246  1  0.41046930  0.33688363  0.89816504  1
  H+  H247  1  0.63056882  0.77127341  0.83290854  1
  H+  H248  1  0.37722630  0.64602521  0.00961070  1
  H+  H249  1  0.21351224  0.35893768  0.82646735  1
  H+  H250  1  0.85228705  0.62580463  1.00803215  1
  H+  H251  1  0.48377911  0.61499181  0.17790699  1
  H+  H252  1  0.46261414  0.57836861  0.32304570  1
  H+  H253  1  0.60884915  0.10295365  0.65821843  1
  H+  H254  1  0.11020146  -0.01740511  0.49228745  1
  H+  H255  1  0.15483179  0.16233351  0.48790578  1
  H+  H256  1  0.60958097  0.72996281  0.16934942  1
  H+  H257  1  0.12236444  0.36844476  -0.01520425  1
  H+  H258  1  0.73194757  1.11584922  0.87559353  1
  H+  H259  1  0.22578571  0.86456893  0.32564291  1
  H+  H260  1  0.37488843  0.26110836  0.32128114  1
  H+  H261  1  0.15196707  0.53205781  0.93718390  1
  H+  H262  1  0.37548051  0.64964123  0.16853997  1
  H+  H263  1  0.12717198  0.02998746  0.84098027  1
  H+  H264  1  0.35189434  0.38972707  1.00785929  1
  H+  H265  1  0.64298916  0.29372408  0.44425384  1
  H+  H266  1  0.39786306  0.77601068  -0.00263814  1
  H+  H267  1  0.14208267  0.43942725  0.83171090  1
  H+  H268  1  0.33755406  0.36891506  0.82804752  1
  H+  H269  1  0.63637383  0.86261804  0.83486089  1
  H+  H270  1  0.10776298  0.62218154  0.48790866  1
  H+  H271  1  0.62022813  0.51984341  0.65393544  1
  H+  H272  1  0.89838123  0.61124358  0.84519996  1
  H+  H273  1  0.89427496  0.88549988  0.51032678  1
  H+  H274  1  0.59980478  0.43107535  0.33396797  1
  H+  H275  1  0.12937157  0.11949452  0.84063026  1
  H+  H276  1  0.85855850  0.88591130  0.82467127  1
  H+  H277  1  0.47375240  0.35493379  0.50768783  1
  H+  H278  1  0.38822529  0.03373150  0.17298715  1
  H+  H279  1  0.11228264  -0.01383423  0.15927502  1
  H+  H280  1  0.89965580  0.78257829  0.33107383  1
  H+  H281  1  0.49123148  0.09872309  0.98430162  1
  H+  H282  1  0.61053288  0.64823608  0.82825944  1
  H+  H283  1  0.35908057  0.64570899  0.67867234  1
  H+  H284  1  0.02016042  0.89470728  0.49371572  1
  H+  H285  1  0.11810615  0.24283736  0.00262641  1
  H+  H286  1  0.13119673  0.52431694  0.49451991  1
  H+  H287  1  0.11241696  0.78732585  0.83371323  1
  H+  H288  1  0.84891182  0.94484389  0.43689126  1
  H+  H289  1  0.63829322  0.04829392  0.25667763  1
  H+  H290  1  0.18301860  0.58735670  0.24051005  1
  H+  H291  1  0.32832139  0.15728516  0.42621568  1
  H+  H292  1  0.32841617  0.67964414  0.76514954  1
  H+  H293  1  0.35579920  0.68180436  0.07012070  1
  H+  H294  1  0.82423797  0.91777995  0.72863485  1
  H+  H295  1  0.56726499  0.40884016  0.43031973  1
  H+  H296  1  0.42940552  0.07856033  0.92693310  1
  H+  H297  1  0.67008801  0.85235680  0.55911578  1
  H+  H298  1  0.09043352  0.65221684  0.76036062  1
  H+  H299  1  0.82784530  0.66619052  0.09858432  1
  H+  H300  1  0.67510071  0.84816698  0.22975274  1
  H+  H301  1  0.81186936  0.37402241  0.11330919  1
  H+  H302  1  0.90289461  0.56400682  0.94468592  1
  H+  H303  1  0.93501550  0.82490593  0.89365712  1
  H+  H304  1  0.65813979  0.57974975  0.56379788  1
  H+  H305  1  0.68468767  0.62099485  0.91488428  1
  H+  H306  1  0.72517862  0.71149939  0.88463265  1
  H+  H307  1  0.85916995  0.42227618  0.74659509  1
  H+  H308  1  0.82031032  0.88256995  0.10239587  1
  H+  H309  1  0.59196573  0.94439351  0.40316981  1
  H+  H310  1  0.46467931  0.14184489  0.32314866  1
  H+  H311  1  0.32221828  0.42464387  0.10136895  1
  H+  H312  1  0.57510588  0.43794893  0.07428137  1
  H+  H313  1  0.35710550  0.13718035  0.82494999  1
  H+  H314  1  0.60712081  0.52367646  0.16325329  1
  H+  H315  1  0.87700454  0.33442273  0.33033453  1
  H+  H316  1  0.80805238  0.15107195  0.44066089  1
  H+  H317  1  0.91773099  0.83536354  0.26923486  1
  H+  H318  1  1.01497601  0.78191141  0.96457221  1
  H+  H319  1  0.92497608  0.11031182  0.93020404  1
  H+  H320  1  0.83422995  0.40711578  0.38685236  1
  H+  H321  1  0.70990186  0.60498763  0.17222655  1
  H+  H322  1  0.08090885  0.93022478  0.76264565  1
  H+  H323  1  0.53372310  0.56263137  0.39515972  1
  H+  H324  1  0.71011682  0.34058484  0.60891996  1
  H+  H325  1  0.68894204  0.32694810  0.89161057  1
  H+  H326  1  0.58110309  0.67360211  0.73191794  1
  H+  H327  1  0.08390650  0.91982469  0.39922908  1
  H+  H328  1  0.37213481  0.90255456  0.33426126  1
  H+  H329  1  0.59635647  0.13976736  0.06044319  1
  H+  H330  1  0.92815786  0.33038726  0.23928801  1
  H+  H331  1  0.08131338  0.42897121  0.41970102  1
  H+  H332  1  0.42040747  0.59500496  0.89783824  1
  H+  H333  1  0.97703546  0.61302538  0.65690330  1
  H+  H334  1  0.72531495  0.09251754  0.35563025  1
  H+  H335  1  0.32403876  0.91240268  0.42804611  1
  H+  H336  1  0.32674068  0.17931657  0.06474693  1
  H+  H337  1  0.31528849  0.40148457  0.76596349  1
  H+  H338  1  0.41379735  0.60693748  0.61628478  1
  H+  H339  1  0.57451628  0.92240790  0.73550388  1
  H+  H340  1  0.33819473  0.92414310  0.05837400  1
  H+  H341  1  0.07410518  0.65108673  0.42450232  1
  H+  H342  1  0.63310271  0.12581018  -0.00323979  1
  H+  H343  1  0.08100036  0.18075914  0.09793432  1
  H+  H344  1  0.41216983  0.32634941  0.26148034  1
  H+  H345  1  0.62060474  0.13355178  0.78425833  1
  H+  H346  1  0.41343917  0.09315793  0.23101300  1
  H+  H347  1  0.12486891  0.18752903  0.40465807  1
  H+  H348  1  0.37096538  0.36053479  0.17591739  1
  H+  H349  1  0.16251492  0.08810905  0.22739874  1
  H+  H350  1  0.65591153  0.82003704  0.92975616  1
  H+  H351  1  0.64901247  0.07134494  0.60231030  1
  H+  H352  1  0.15638321  0.52278861  0.33200889  1
  H+  H353  1  0.90298728  0.56050969  0.22994846  1
  H+  H354  1  0.15696024  0.34562216  0.92595743  1
  H+  H355  1  0.91131795  0.33615279  0.55876500  1
  H+  H356  1  0.11328435  0.89067422  0.67308164  1
  H+  H357  1  0.66597089  0.30244147  0.27844396  1
  H+  H358  1  0.90394884  0.08990914  0.57831029  1
  H+  H359  1  0.16613876  0.83908899  0.92988336  1
  H+  H360  1  0.14836844  0.08788886  0.93270797  1
  H+  H361  1  0.31830058  0.37337780  0.42391840  1
  H+  H362  1  0.13788434  0.64977377  0.17118987  1
  H+  H363  1  0.63989701  0.31281074  0.56014353  1
  H+  H364  1  0.65185172  0.55195305  0.25594315  1
  H+  H365  1  0.41613140  0.57997523  0.24869116  1
  H+  H366  1  0.11179357  0.72753760  0.67101452  1
  H+  H367  1  0.87788841  0.11090884  0.83891017  1
  H+  H368  1  0.65194201  0.72829079  0.41478616  1
  H+  H369  1  0.16943663  0.09108170  0.56350844  1
  H+  H370  1  0.35411479  0.45959814  0.33656724  1
  H+  H371  1  0.32515222  0.91709409  0.72973049  1
  H+  H372  1  0.11916486  0.67346904  0.05987262  1
  H+  H373  1  0.89860567  0.07749395  0.26698290  1
  H+  H374  1  0.44365889  0.85021524  0.27079577  1
  H+  H375  1  0.08019866  0.93923507  0.06980198  1
  H+  H376  1  0.60272052  0.93119002  0.09419214  1
  H+  H377  1  0.82789200  0.64832126  0.77586141  1
  H+  H378  1  0.15706061  0.33295585  0.23588429  1
  H+  H379  1  0.53169846  0.88965993  0.00096625  1
  H+  H380  1  0.57723024  0.66667227  0.07337317  1
  H+  H381  1  0.32159076  0.16882096  0.73463284  1
  H+  H382  1  0.26511210  0.39499687  0.00417717  1
  H+  H383  1  0.91825937  0.57409999  0.55872066  1
  O2-  O384  1  0.07972125  0.17868963  0.14352540  1
  O2-  O385  1  0.15307055  0.21089879  0.46524953  1
  O2-  O386  1  0.07168290  0.16269858  0.80767591  1
  O2-  O387  1  0.09121427  0.42737389  0.15653381  1
  O2-  O388  1  0.06956014  0.42734306  0.46664493  1
  O2-  O389  1  0.10926319  0.37903825  0.81445523  1
  O2-  O390  1  0.11604394  0.68725776  0.15382509  1
  O2-  O391  1  0.06945830  0.64508972  0.47091487  1
  O2-  O392  1  0.09085258  0.64122423  0.80552433  1
  O2-  O393  1  0.08332875  0.92578144  0.14266152  1
  O2-  O394  1  0.07983778  0.92255756  0.47673314  1
  O2-  O395  1  0.07857890  0.93110796  0.80865944  1
  O2-  O396  1  0.32827070  0.17300992  0.14426500  1
  O2-  O397  1  0.33166986  0.15294523  0.47270913  1
  O2-  O398  1  0.32528822  0.16682787  0.81205384  1
  O2-  O399  1  0.32515027  0.42805291  0.14713225  1
  O2-  O400  1  0.30071530  0.34908426  0.46563342  1
  O2-  O401  1  0.29991424  0.38913633  0.80970628  1
  O2-  O402  1  0.34610771  0.68095557  0.15550652  1
  O2-  O403  1  0.33540103  0.67768205  0.47169622  1
  O2-  O404  1  0.32635745  0.67365884  0.81075225  1
  O2-  O405  1  0.32683480  0.88550792  0.14302348  1
  O2-  O406  1  0.32085510  0.90638000  0.47315851  1
  O2-  O407  1  0.31905493  0.91856839  0.80826882  1
  O2-  O408  1  0.58150010  0.13049928  0.13350225  1
  O2-  O409  1  0.56616830  0.13859908  0.49259644  1
  O2-  O410  1  0.60165318  0.15192898  0.81987355  1
  O2-  O411  1  0.54164823  0.45639305  0.12866596  1
  O2-  O412  1  0.57383223  0.41270613  0.47589857  1
  O2-  O413  1  0.56821463  0.40876521  0.79786612  1
  O2-  O414  1  0.57596948  0.66775098  0.15600293  1
  O2-  O415  1  0.66955808  0.72593436  0.45655214  1
  O2-  O416  1  0.57821731  0.67227145  0.80796934  1
  O2-  O417  1  0.59639854  0.92198794  0.13881467  1
  O2-  O418  1  0.58484481  0.93024822  0.46850185  1
  O2-  O419  1  0.58117236  0.91335806  0.80736406  1
  O2-  O420  1  0.81078970  0.14789676  0.15115709  1
  O2-  O421  1  0.81824673  0.16228163  0.48630430  1
  O2-  O422  1  0.82587332  0.16551223  0.82686498  1
  O2-  O423  1  0.81503565  0.37598112  0.15881303  1
  O2-  O424  1  0.82811620  0.41578869  0.46557375  1
  O2-  O425  1  0.86735361  0.42001987  0.81792946  1
  O2-  O426  1  0.82367708  0.66229712  0.14426158  1
  O2-  O427  1  0.80699565  0.70553487  0.46464186  1
  O2-  O428  1  0.84178016  0.66306007  0.81954912  1
  O2-  O429  1  0.83103493  0.90328999  0.14549638  1
  O2-  O430  1  0.84815704  0.94865502  0.48320169  1
  O2-  O431  1  0.82835541  0.91497391  0.80850172  1
  O2-  O432  1  0.16218189  0.08975663  0.18199719  1
  O2-  O433  1  0.17109528  0.09077447  0.51785122  1
  O2-  O434  1  0.15838021  0.08932724  0.85874422  1
  O2-  O435  1  0.15956570  0.33800239  0.19014092  1
  O2-  O436  1  0.14931659  0.34382521  0.52057068  1
  O2-  O437  1  0.14816148  0.33216953  0.84358587  1
  O2-  O438  1  0.17974742  0.58870409  0.19432422  1
  O2-  O439  1  0.16418042  0.58567113  0.51025375  1
  O2-  O440  1  0.17085544  0.54196682  0.84626194  1
  O2-  O441  1  0.17664244  0.85232310  0.18933552  1
  O2-  O442  1  0.15555912  0.83426858  0.52728372  1
  O2-  O443  1  0.15183075  0.84576336  0.84712356  1
  O2-  O444  1  0.41697905  0.09369352  0.18561746  1
  O2-  O445  1  0.40111353  0.06650316  0.51882513  1
  O2-  O446  1  0.41855425  0.08755833  0.84238305  1
  O2-  O447  1  0.40895322  0.33722799  0.18634175  1
  O2-  O448  1  0.41310431  0.31700046  0.52111638  1
  O2-  O449  1  0.40788367  0.33489695  0.85267498  1
  O2-  O450  1  0.42042519  0.58260521  0.19345176  1
  O2-  O451  1  0.44330399  0.66350937  0.55281257  1
  O2-  O452  1  0.42605443  0.60170829  0.85280697  1
  O2-  O453  1  0.44294425  0.84750595  0.19519877  1
  O2-  O454  1  0.41254928  0.84021059  0.51747142  1
  O2-  O455  1  0.42098246  0.86799002  0.86644264  1
  O2-  O456  1  0.64996154  0.06275281  0.21213947  1
  O2-  O457  1  0.65923864  0.07590432  0.53312321  1
  O2-  O458  1  0.67732643  0.10006676  0.89778444  1
  O2-  O459  1  0.71979080  0.35367539  0.26621965  1
  O2-  O460  1  0.65337000  0.32467418  0.48423370  1
  O2-  O461  1  0.69644889  0.33268892  0.84671445  1
  O2-  O462  1  0.65148716  0.57896772  0.19008606  1
  O2-  O463  1  0.66212980  0.57743497  0.51815063  1
  O2-  O464  1  0.70021926  0.65094952  0.87395229  1
  O2-  O465  1  0.66893303  0.83433711  0.18499485  1
  O2-  O466  1  0.67922042  0.86356304  0.51439148  1
  O2-  O467  1  0.66505562  0.83106241  0.85044088  1
  O2-  O468  1  0.90819831  0.07296619  0.18623889  1
  O2-  O469  1  0.90705106  0.09655691  0.52973039  1
  O2-  O470  1  0.91235199  0.08295247  0.85038595  1
  O2-  O471  1  0.94814198  0.36681131  0.20246051  1
  O2-  O472  1  0.90608425  0.33338526  0.51347115  1
  O2-  O473  1  0.94280889  0.33090693  0.86335663  1
  O2-  O474  1  0.88628802  0.55279245  0.18569412  1
  O2-  O475  1  0.92134662  0.57600408  0.51352622  1
  O2-  O476  1  0.92801777  0.58033922  0.86009185  1
  O2-  O477  1  0.91822586  0.82680007  0.19137204  1
  O2-  O478  1  0.91649027  0.84667202  0.52161568  1
  O2-  O479  1  0.91898287  0.83077290  0.85146676  1
  O2-  O480  1  0.16072802  0.08171769  0.30778210  1
  O2-  O481  1  0.16029019  0.08626364  0.64076491  1
  O2-  O482  1  0.14544774  0.08833061  0.97894790  1
  O2-  O483  1  0.15742619  0.32937145  0.31292280  1
  O2-  O484  1  0.18342168  0.29959068  0.63063232  1
  O2-  O485  1  0.16137935  0.34813916  0.97110684  1
  O2-  O486  1  0.18921296  0.58717569  0.31488472  1
  O2-  O487  1  0.16759051  0.58602728  0.63640109  1
  O2-  O488  1  0.13533047  0.52255630  0.98001338  1
  O2-  O489  1  0.16470946  0.83143652  0.31206059  1
  O2-  O490  1  0.15793056  0.82979649  0.64676879  1
  O2-  O491  1  0.16481899  0.83039889  0.97422042  1
  O2-  O492  1  0.40585064  0.09732482  0.31129094  1
  O2-  O493  1  0.39140749  0.07983154  0.64197542  1
  O2-  O494  1  0.43047587  0.07024517  0.97120186  1
  O2-  O495  1  0.41017258  0.32396945  0.30732904  1
  O2-  O496  1  0.40533032  0.33092683  0.64381350  1
  O2-  O497  1  0.41222990  0.34185437  0.97853439  1
  O2-  O498  1  0.40988616  0.57632688  0.30329002  1
  O2-  O499  1  0.40643588  0.58843411  0.66024793  1
  O2-  O500  1  0.41623710  0.58322048  0.97742769  1
  O2-  O501  1  0.44082986  0.85109224  0.31673303  1
  O2-  O502  1  0.41537765  0.84266648  0.64274661  1
  O2-  O503  1  0.42541147  0.83750452  0.98077120  1
  O2-  O504  1  0.62640397  0.03616259  0.33435277  1
  O2-  O505  1  0.63782862  0.06903756  0.64858456  1
  O2-  O506  1  0.63006380  0.00495148  0.89879496  1
  O2-  O507  1  0.57367740  0.23934926  0.33305454  1
  O2-  O508  1  0.64807337  0.31548706  0.60534228  1
  O2-  O509  1  0.66908995  0.31022855  0.97421910  1
  O2-  O510  1  0.64993484  0.53587091  0.30151657  1
  O2-  O511  1  0.65295595  0.58104106  0.64027762  1
  O2-  O512  1  0.67327580  0.59403942  0.98744664  1
  O2-  O513  1  0.69015479  0.87269705  0.30399058  1
  O2-  O514  1  0.65850183  0.83748588  0.63879603  1
  O2-  O515  1  0.65284787  0.81553156  0.97508855  1
  O2-  O516  1  0.89990411  0.07933273  0.31222981  1
  O2-  O517  1  0.90323596  0.08206880  0.64285526  1
  O2-  O518  1  0.93680440  0.12544888  0.97368750  1
  O2-  O519  1  0.89071256  0.28873273  0.31686005  1
  O2-  O520  1  0.91360034  0.33077633  0.63989927  1
  O2-  O521  1  0.95156453  0.36878393  0.98395738  1
  O2-  O522  1  0.92484210  0.57048898  0.30663011  1
  O2-  O523  1  0.91625535  0.57821755  0.64227333  1
  O2-  O524  1  0.88214050  0.56176901  0.98646281  1
  O2-  O525  1  0.92092361  0.84103478  0.31469015  1
  O2-  O526  1  0.91681032  0.84286017  0.63982966  1
  O2-  O527  1  0.97311724  0.80160851  0.96664664  1
  O2-  O528  1  0.08541070  0.18284115  0.01823408  1
  O2-  O529  1  0.10464976  0.17537853  0.35816463  1
  O2-  O530  1  0.06306996  0.15156545  0.68636111  1
  O2-  O531  1  -0.01208299  0.32809778  0.01458985  1
  O2-  O532  1  0.10476317  0.43263243  0.35218372  1
  O2-  O533  1  0.06702998  0.43123833  0.70604056  1
  O2-  O534  1  0.11516341  0.66512950  0.01581953  1
  O2-  O535  1  0.08730996  0.66277015  0.35293310  1
  O2-  O536  1  0.08293108  0.66548186  0.68488278  1
  O2-  O537  1  0.07683618  0.94699665  0.02442669  1
  O2-  O538  1  0.08640354  0.91823530  0.35353554  1
  O2-  O539  1  0.08472105  0.92295971  0.68803540  1
  O2-  O540  1  0.32538186  0.18470728  0.01973013  1
  O2-  O541  1  0.31135019  0.17323234  0.35635891  1
  O2-  O542  1  0.32013878  0.16839879  0.68888678  1
  O2-  O543  1  0.32276999  0.42065601  0.02380160  1
  O2-  O544  1  0.32409290  0.39844395  0.34733039  1
  O2-  O545  1  0.33306145  0.41987242  0.68793545  1
  O2-  O546  1  0.35704133  0.68482019  0.02538672  1
  O2-  O547  1  0.35426548  0.67514302  0.34841289  1
  O2-  O548  1  0.32640732  0.67646755  0.68811350  1
  O2-  O549  1  0.33689430  0.91670540  0.01404732  1
  O2-  O550  1  0.33511553  0.92561286  0.34774220  1
  O2-  O551  1  0.32677599  0.91655419  0.68425899  1
  O2-  O552  1  0.59986531  0.14975303  0.01468232  1
  O2-  O553  1  0.62956799  0.23590455  0.38084755  1
  O2-  O554  1  0.56764390  0.16913812  0.67057112  1
  O2-  O555  1  0.60112747  0.42996133  0.03228627  1
  O2-  O556  1  0.56015349  0.37859934  0.35723886  1
  O2-  O557  1  0.57363391  0.41310295  0.67810211  1
  O2-  O558  1  0.57723333  0.65982598  0.02849293  1
  O2-  O559  1  0.52269605  0.54959648  0.35193823  1
  O2-  O560  1  0.57787754  0.67421242  0.68618043  1
  O2-  O561  1  0.59506656  0.92153514  0.00908847  1
  O2-  O562  1  0.59294485  0.94579575  0.35416113  1
  O2-  O563  1  0.57198690  0.92393561  0.68893411  1
  O2-  O564  1  0.83079123  0.16860580  0.02910692  1
  O2-  O565  1  0.78842636  0.12869539  0.36839736  1
  O2-  O566  1  0.82891183  0.17077330  0.70443975  1
  O2-  O567  1  0.82455540  0.39725505  0.03548944  1
  O2-  O568  1  0.84827708  0.40755482  0.34285571  1
  O2-  O569  1  0.84681122  0.41922697  0.70067447  1
  O2-  O570  1  0.83948366  0.67283219  0.02072141  1
  O2-  O571  1  0.89166522  0.68714646  0.37194699  1
  O2-  O572  1  0.79657965  0.60045983  0.70236704  1
  O2-  O573  1  0.78948173  0.82571076  0.03459023  1
  O2-  O574  1  0.84500588  0.93188242  0.36361384  1
  O2-  O575  1  0.82529890  0.92130138  0.68317026  1
