# generated using pymatgen
data_H2O
_symmetry_space_group_name_H-M   'P 1'
_cell_length_a   17.99071666
_cell_length_b   17.98175498
_cell_length_c   21.99189848
_cell_angle_alpha   89.97957748
_cell_angle_beta   90.02733178
_cell_angle_gamma   119.98555078
_symmetry_Int_Tables_number   1
_chemical_formula_structural   H2O
_chemical_formula_sum   'H384 O192'
_cell_volume   6162.21795158
_cell_formula_units_Z   192
loop_
 _symmetry_equiv_pos_site_id
 _symmetry_equiv_pos_as_xyz
  1  'x, y, z'
loop_
 _atom_type_symbol
 _atom_type_oxidation_number
  H+  1.0
  O2-  -2.0
loop_
 _atom_site_type_symbol
 _atom_site_label
 _atom_site_symmetry_multiplicity
 _atom_site_fract_x
 _atom_site_fract_y
 _atom_site_fract_z
 _atom_site_occupancy
  H+  H0  1  0.36369015  0.71951093  0.49146495  1
  H+  H1  1  0.17642839  0.09012855  0.27268329  1
  H+  H2  1  0.63689333  0.36593246  0.17069512  1
  H+  H3  1  0.61050594  0.12507385  0.82787255  1
  H+  H4  1  0.48581957  0.36271944  0.49655926  1
  H+  H5  1  0.38509191  0.26219096  0.48884060  1
  H+  H6  1  -0.08635968  0.58352289  0.89760842  1
  H+  H7  1  0.86483301  -0.02685576  0.82515200  1
  H+  H8  1  0.13440330  0.87750412  0.17571980  1
  H+  H9  1  0.60354093  0.61898792  0.81543359  1
  H+  H10  1  0.96894363  0.11058411  0.32450479  1
  H+  H11  1  0.71421175  0.60229162  0.82969358  1
  H+  H12  1  0.23280826  0.34902642  0.85151161  1
  H+  H13  1  0.62761991  1.01199184  0.85753698  1
  H+  H14  1  0.11074540  0.63775501  0.34151792  1
  H+  H15  1  0.63021961  0.51115558  0.82288234  1
  H+  H16  1  0.89231213  0.27080917  0.65917443  1
  H+  H17  1  0.88948013  0.35315604  0.32653304  1
  H+  H18  1  0.63746187  0.02746776  0.17662086  1
  H+  H19  1  0.67064934  0.84319281  0.24001695  1
  H+  H20  1  0.15518174  0.34715708  0.69511559  1
  H+  H21  1  0.86829661  0.55653794  0.58716016  1
  H+  H22  1  0.84451392  -0.03502042  0.99834014  1
  H+  H23  1  0.40355940  0.62000350  0.16412996  1
  H+  H24  1  0.38397676  0.86209475  0.65492518  1
  H+  H25  1  0.36234358  0.12288847  -0.01599199  1
  H+  H26  1  0.54079902  0.39357998  0.00561291  1
  H+  H27  1  0.87903018  0.62279115  0.99906677  1
  H+  H28  1  0.37417325  0.48640380  0.49355962  1
  H+  H29  1  0.01604897  -0.01107385  0.89849421  1
  H+  H30  1  0.15951311  0.83566780  0.26762669  1
  H+  H31  1  0.61348526  0.13394748  0.48532138  1
  H+  H32  1  0.85980047  0.46356652  0.16237425  1
  H+  H33  1  0.96805116  0.09883704  0.98965888  1
  H+  H34  1  0.49390014  0.62276230  0.16726769  1
  H+  H35  1  0.14487190  0.13369688  0.67968152  1
  H+  H36  1  0.43464531  0.31017391  0.66242419  1
  H+  H37  1  0.92526452  0.11910630  0.66114817  1
  H+  H38  1  0.85553925  0.47376195  0.49166015  1
  H+  H39  1  0.71003303  0.12283643  0.65260001  1
  H+  H40  1  0.61379138  0.60606487  0.66259259  1
  H+  H41  1  0.65098673  0.12275773  1.00398921  1
  H+  H42  1  0.36970160  0.73143953  0.00792841  1
  H+  H43  1  0.13119351  0.77515171  0.32691791  1
  H+  H44  1  0.10002283  0.96263299  0.01625745  1
  H+  H45  1  0.10131537  0.20745461  0.02166114  1
  H+  H46  1  0.28286186  0.90306623  0.67383387  1
  H+  H47  1  0.40646029  0.28198359  -0.00161386  1
  H+  H48  1  0.41939421  0.09045929  0.89576276  1
  H+  H49  1  0.39653496  0.85856882  0.84354659  1
  H+  H50  1  0.39216948  0.37201003  0.15678123  1
  H+  H51  1  0.86556374  0.22014740  0.15751920  1
  H+  H52  1  0.30187224  0.20194888  -0.01786356  1
  H+  H53  1  0.13240241  0.52688792  0.50642333  1
  H+  H54  1  0.36288907  0.71898283  0.83130093  1
  H+  H55  1  1.00607031  0.87978517  1.01797162  1
  H+  H56  1  0.88263486  0.11218972  0.32147994  1
  H+  H57  1  0.64834776  0.54047050  1.00435976  1
  H+  H58  1  0.00323361  0.10155962  0.65884952  1
  H+  H59  1  0.23624383  0.61921344  0.99681176  1
  H+  H60  1  0.77338704  0.88428525  0.49072215  1
  H+  H61  1  0.41481044  0.82141586  0.55850286  1
  H+  H62  1  0.52577387  0.89307067  0.16755446  1
  H+  H63  1  0.27389125  0.89671410  0.00009845  1
  H+  H64  1  0.40026003  0.36781651  0.99678405  1
  H+  H65  1  0.82778046  0.62032518  0.67201240  1
  H+  H66  1  0.61416141  0.71200778  0.82268102  1
  H+  H67  1  0.39487656  0.36645919  0.49457304  1
  H+  H68  1  0.14160543  0.85403299  0.83683662  1
  H+  H69  1  0.72609590  0.85853185  0.65710775  1
  H+  H70  1  0.63408990  0.01710517  0.49593862  1
  H+  H71  1  0.73515588  0.34899690  -0.00473606  1
  H+  H72  1  0.62097906  0.47561074  0.34179030  1
  H+  H73  1  0.41151684  0.09285228  0.26307724  1
  H+  H74  1  0.63832571  0.35448861  0.83376211  1
  H+  H75  1  0.90457062  0.82119032  0.60296322  1
  H+  H76  1  0.40676074  0.28445408  0.84039151  1
  H+  H77  1  0.61032506  0.88374864  0.01809779  1
  H+  H78  1  0.08089177  0.41874275  0.43679023  1
  H+  H79  1  0.96203543  0.60326310  0.17677542  1
  H+  H80  1  0.97746814  0.60644014  0.33094910  1
  H+  H81  1  0.27198315  0.64029145  0.34182540  1
  H+  H82  1  0.28724675  0.88865699  0.82444874  1
  H+  H83  1  0.77272891  0.28944145  0.37860395  1
  H+  H84  1  0.85335270  0.62099346  0.34884173  1
  H+  H85  1  0.63419117  0.35958598  0.51401042  1
  H+  H86  1  0.61547681  0.22383548  0.49259597  1
  H+  H87  1  0.57014002  0.16286498  0.07460643  1
  H+  H88  1  0.28010036  0.37855583  1.00760411  1
  H+  H89  1  0.08683793  0.94776758  0.84140452  1
  H+  H90  1  0.22173818  0.14133672  0.84691211  1
  H+  H91  1  0.14290272  0.61207662  0.99823600  1
  H+  H92  1  0.38661233  0.40305808  0.68278129  1
  H+  H93  1  0.89140056  0.51535234  0.33252869  1
  H+  H94  1  0.10927575  0.46914673  0.81827394  1
  H+  H95  1  0.02880376  0.37950710  0.16821963  1
  H+  H96  1  0.29152666  0.40113317  0.46490338  1
  H+  H97  1  0.61311617  0.87996735  0.49082041  1
  H+  H98  1  0.36123279  0.89947763  0.32868212  1
  H+  H99  1  0.39883609  0.16440073  0.66446439  1
  H+  H100  1  0.85748070  0.20484929  0.00600759  1
  H+  H101  1  0.39006708  0.52560711  0.99314369  1
  H+  H102  1  0.27204413  0.89918731  0.33211276  1
  H+  H103  1  0.53378036  0.86893993  0.86391538  1
  H+  H104  1  0.63826272  0.12567537  0.32459405  1
  H+  H105  1  0.74061645  0.84730896  0.84140504  1
  H+  H106  1  0.35441488  -0.00913273  0.99979779  1
  H+  H107  1  0.88678027  0.45744896  0.01905365  1
  H+  H108  1  0.38258317  0.48831057  0.15748678  1
  H+  H109  1  0.38544073  0.27260207  0.14548167  1
  H+  H110  1  0.62422054  0.60151877  0.51157371  1
  H+  H111  1  0.11329343  0.89245617  0.34157949  1
  H+  H112  1  0.38016238  0.77064967  0.65840624  1
  H+  H113  1  0.51915514  0.87933976  0.64090361  1
  H+  H114  1  0.51624178  0.62116313  0.34286340  1
  H+  H115  1  0.62551436  0.73925436  0.16173191  1
  H+  H116  1  0.56992681  0.39694835  0.75963004  1
  H+  H117  1  0.86134381  0.22282929  0.49423790  1
  H+  H118  1  0.39372884  0.12075910  0.50360228  1
  H+  H119  1  0.36673123  0.47816660  0.83210538  1
  H+  H120  1  0.61973671  0.11431966  0.65432734  1
  H+  H121  1  0.37928138  0.60607185  0.50496353  1
  H+  H122  1  0.37886344  0.02479620  0.31986416  1
  H+  H123  1  0.36158453  0.63528052  0.67191469  1
  H+  H124  1  0.39205105  1.03059583  0.65805067  1
  H+  H125  1  0.71377009  0.34653263  0.32606445  1
  H+  H126  1  0.28969540  0.63610423  0.16050076  1
  H+  H127  1  0.14347229  0.35220982  1.00089066  1
  H+  H128  1  0.66123660  0.57552982  0.26403211  1
  H+  H129  1  0.07606417  0.95990115  0.68709834  1
  H+  H130  1  0.62050748  0.26686529  0.32141869  1
  H+  H131  1  0.10454269  0.40888398  0.63747904  1
  H+  H132  1  0.85516000  0.97433644  0.33402802  1
  H+  H133  1  0.58628318  0.92022242  0.10965681  1
  H+  H134  1  -0.03239534  0.84392846  0.84467186  1
  H+  H135  1  0.47992889  0.86873105  1.00364484  1
  H+  H136  1  0.97081840  0.32587918  0.97774447  1
  H+  H137  1  0.39167512  0.87090902  0.99884291  1
  H+  H138  1  0.10198150  -0.07460898  0.43736705  1
  H+  H139  1  0.52067409  0.63375093  0.49661354  1
  H+  H140  1  0.72458865  0.34877334  0.66423121  1
  H+  H141  1  0.62339043  0.87258154  0.85414477  1
  H+  H142  1  0.04396046  0.13202943  0.07121995  1
  H+  H143  1  0.85696944  0.38451562  0.49891767  1
  H+  H144  1  0.27141052  0.63276642  0.49191670  1
  H+  H145  1  0.10066588  0.64830116  0.17643431  1
  H+  H146  1  0.16066776  1.02044999  0.17794200  1
  H+  H147  1  0.38802492  0.78035572  0.16574078  1
  H+  H148  1  0.13826780  0.87049184  0.66716722  1
  H+  H149  1  0.82511037  0.65649050  0.10739343  1
  H+  H150  1  0.87083296  0.76181323  0.66421499  1
  H+  H151  1  0.03481782  0.42378380  0.03282366  1
  H+  H152  1  0.98211388  0.12723972  0.16417679  1
  H+  H153  1  0.86089471  0.87839344  0.67291683  1
  H+  H154  1  0.77127195  0.14528002  0.33800050  1
  H+  H155  1  0.96973672  0.10796740  0.83640696  1
  H+  H156  1  0.01010639  0.61757692  0.01710255  1
  H+  H157  1  0.38798898  0.12524346  0.15597021  1
  H+  H158  1  0.28378115  0.15306935  0.48827446  1
  H+  H159  1  0.13876021  0.53911322  0.65526272  1
  H+  H160  1  0.23184894  0.12345363  0.33264415  1
  H+  H161  1  0.38354700  0.86782504  0.16578460  1
  H+  H162  1  0.86558254  0.73415912  1.01521925  1
  H+  H163  1  0.62631017  0.25632126  0.66320253  1
  H+  H164  1  0.01510655  0.39269381  0.66051537  1
  H+  H165  1  0.12640302  0.72117375  0.83908004  1
  H+  H166  1  0.24758977  0.05339701  0.21358430  1
  H+  H167  1  0.11248175  0.14020522  0.34205037  1
  H+  H168  1  0.89037636  0.52598168  0.83730416  1
  H+  H169  1  0.11836304  0.98384161  0.34422170  1
  H+  H170  1  0.38363995  0.78541792  0.32658698  1
  H+  H171  1  0.08480416  0.10795298  0.84025768  1
  H+  H172  1  0.61246631  0.74378430  0.00366962  1
  H+  H173  1  0.27550129  0.88033778  0.50324606  1
  H+  H174  1  0.14069532  0.51199409  0.17424927  1
  H+  H175  1  0.14356059  0.86502012  0.50780715  1
  H+  H176  1  0.97761548  0.87757207  0.32641514  1
  H+  H177  1  0.52868209  0.38143808  0.82538187  1
  H+  H178  1  0.52257792  0.87713424  0.48662736  1
  H+  H179  1  0.14572581  0.25814108  0.85151927  1
  H+  H180  1  0.61849859  0.21926532  0.82535971  1
  H+  H181  1  0.42470557  0.08952231  0.59658817  1
  H+  H182  1  0.23519786  0.61942629  0.65722660  1
  H+  H183  1  0.21067686  0.09585018  0.99984355  1
  H+  H184  1  0.81754316  0.12252483  0.66772377  1
  H+  H185  1  0.78741133  0.91080564  0.16033927  1
  H+  H186  1  0.93555741  0.03409546  0.13816560  1
  H+  H187  1  0.61097833  0.97430595  0.01718875  1
  H+  H188  1  0.11967161  0.09493631  1.00905885  1
  H+  H189  1  0.12897695  0.27352045  0.33537087  1
  H+  H190  1  0.86395028  0.97138621  0.49237178  1
  H+  H191  1  0.14956706  0.36599999  0.17969963  1
  H+  H192  1  0.38048673  1.03246827  0.16441577  1
  H+  H193  1  0.12933602  0.48726650  0.01455416  1
  H+  H194  1  0.89184846  0.11172056  0.50735206  1
  H+  H195  1  0.33356830  0.66597160  0.39959537  1
  H+  H196  1  0.13528132  0.52381544  0.32759883  1
  H+  H197  1  0.87532877  0.60760386  0.50155724  1
  H+  H198  1  0.40732412  0.36498081  0.32353168  1
  H+  H199  1  0.39061723  0.49792423  0.33245791  1
  H+  H200  1  0.57338083  0.64315503  0.43701332  1
  H+  H201  1  0.87981304  0.09949103  0.99153188  1
  H+  H202  1  0.38950151  0.61130705  0.84080403  1
  H+  H203  1  0.82460096  0.91880362  0.09342725  1
  H+  H204  1  0.87096885  0.97160447  0.67122779  1
  H+  H205  1  0.87242896  0.23080455  0.81237749  1
  H+  H206  1  0.20675926  0.11238653  0.81913439  1
  H+  H207  1  0.48054458  0.11748603  0.50275523  1
  H+  H208  1  0.97679064  0.36494275  0.82647617  1
  H+  H209  1  0.89231149  0.34200347  0.99193043  1
  H+  H210  1  0.53555337  0.09176916  0.02316213  1
  H+  H211  1  0.89275153  0.35765260  0.17421522  1
  H+  H212  1  0.16251784  0.59636526  0.13981843  1
  H+  H213  1  0.85360925  0.71954458  0.82947333  1
  H+  H214  1  0.14154537  0.60476312  0.84258655  1
  H+  H215  1  0.57794798  0.46807237  0.66968821  1
  H+  H216  1  0.36900685  0.64067831  1.00428941  1
  H+  H217  1  0.96707565  0.60979089  0.50478270  1
  H+  H218  1  0.63659289  0.11601288  0.17283824  1
  H+  H219  1  0.10136196  0.38759790  0.50049154  1
  H+  H220  1  0.38600292  0.85307468  0.50128192  1
  H+  H221  1  0.87589805  0.35216878  0.66207723  1
  H+  H222  1  0.38734540  0.62802250  0.32038997  1
  H+  H223  1  0.63316792  0.61198138  0.16974691  1
  H+  H224  1  0.60753492  0.47763767  0.15942180  1
  H+  H225  1  0.87234372  0.76299626  0.51523456  1
  H+  H226  1  0.02708161  0.66486906  0.63985369  1
  H+  H227  1  0.36332714  0.13773661  0.33931057  1
  H+  H228  1  0.63747197  0.85852193  0.64373440  1
  H+  H229  1  0.15130309  0.12679186  0.50755260  1
  H+  H230  1  0.48778712  0.35508383  0.33155113  1
  H+  H231  1  0.02636772  0.90720985  0.17096741  1
  H+  H232  1  0.27808982  0.14825182  0.65744837  1
  H+  H233  1  0.05570720  0.77038976  -0.05322300  1
  H+  H234  1  0.02687082  0.39008324  0.34321308  1
  H+  H235  1  0.38431774  0.52377678  0.66037915  1
  H+  H236  1  0.50305053  0.53727369  0.36838011  1
  H+  H237  1  0.73015350  0.10635121  1.00116889  1
  H+  H238  1  0.27468503  0.62860815  0.82782872  1
  H+  H239  1  0.51649953  0.13669749  0.67342714  1
  H+  H240  1  0.41419242  0.82710075  0.90709561  1
  H+  H241  1  0.40895136  0.83702064  0.26469358  1
  H+  H242  1  0.52967119  0.64837565  0.00735773  1
  H+  H243  1  0.13083483  0.78650213  0.17365911  1
  H+  H244  1  0.84463049  0.52652854  -0.01775571  1
  H+  H245  1  0.20735133  0.05091193  0.65139842  1
  H+  H246  1  0.77344452  0.51237562  0.61016353  1
  H+  H247  1  0.51148564  0.13675536  0.33448455  1
  H+  H248  1  0.60635192  0.72403758  0.66926655  1
  H+  H249  1  0.11537713  0.38997152  0.34562081  1
  H+  H250  1  0.80927715  0.37854255  0.41124609  1
  H+  H251  1  0.64705982  0.62914334  0.00383662  1
  H+  H252  1  0.62609999  0.59213177  0.32714975  1
  H+  H253  1  0.77487320  0.38747179  0.82423174  1
  H+  H254  1  0.21172049  0.37217229  0.53649510  1
  H+  H255  1  0.51844975  0.14137528  0.16159772  1
  H+  H256  1  0.89339430  0.26830929  0.32617568  1
  H+  H257  1  0.37163292  0.23188464  0.33991232  1
  H+  H258  1  0.74767993  0.88099863  0.99993554  1
  H+  H259  1  0.37498882  0.97796578  0.82661345  1
  H+  H260  1  0.77438109  0.13208704  0.49119859  1
  H+  H261  1  0.39775475  0.15059742  0.82036667  1
  H+  H262  1  0.62900040  0.39235498  1.00687416  1
  H+  H263  1  0.26853979  0.89540655  0.15861429  1
  H+  H264  1  0.72509795  0.36164499  0.51345906  1
  H+  H265  1  0.16288746  0.79646832  0.67392498  1
  H+  H266  1  0.83453999  0.45636611  0.66744399  1
  H+  H267  1  0.64096198  0.87270194  0.18220523  1
  H+  H268  1  0.36441096  0.96846726  0.50209619  1
  H+  H269  1  0.45414990  0.12806159  0.99255940  1
  H+  H270  1  0.86735862  0.86062979  -0.00288452  1
  H+  H271  1  0.88689396  0.87371545  0.32195486  1
  H+  H272  1  0.86037754  0.63443842  0.82557041  1
  H+  H273  1  0.70078321  0.60260726  0.66843887  1
  H+  H274  1  0.77586006  0.64504284  1.01476720  1
  H+  H275  1  0.11120472  0.22735027  0.50319495  1
  H+  H276  1  0.48764919  0.11380795  0.83961820  1
  H+  H277  1  0.76476910  0.61995067  0.34440858  1
  H+  H278  1  0.64144785  0.26822571  0.99274200  1
  H+  H279  1  0.15890130  0.67073675  0.68126369  1
  H+  H280  1  0.99480766  0.67529378  0.62661954  1
  H+  H281  1  0.61942298  0.38586783  0.34277859  1
  H+  H282  1  0.00033042  0.86530692  0.67867836  1
  H+  H283  1  0.84376925  0.61508597  0.16524387  1
  H+  H284  1  0.60577986  -0.03008590  0.64178570  1
  H+  H285  1  0.77335851  0.13601206  0.15874995  1
  H+  H286  1  0.02689933  0.13572147  0.49771234  1
  H+  H287  1  0.10570351  0.72560830  0.49638065  1
  H+  H288  1  0.90686406  0.89315130  0.17225664  1
  H+  H289  1  0.17134025  0.31480026  0.94504441  1
  H+  H290  1  0.07889167  0.41465192  0.75739434  1
  H+  H291  1  0.41978807  0.58516163  0.93426486  1
  H+  H292  1  0.81822895  0.65170618  0.43905345  1
  H+  H293  1  0.43146279  0.34056212  0.90198351  1
  H+  H294  1  0.81515701  0.65722628  0.73570233  1
  H+  H295  1  0.08764414  0.14813672  0.77448025  1
  H+  H296  1  0.17416556  0.83306378  0.89689497  1
  H+  H297  1  0.65858219  0.07844925  0.55415078  1
  H+  H298  1  0.66369205  0.33328114  0.23020136  1
  H+  H299  1  0.77018880  0.37549632  0.16031690  1
  H+  H300  1  0.09118971  0.70871104  0.01328186  1
  H+  H301  1  0.29176618  0.39940643  0.16164255  1
  H+  H302  1  0.92698990  0.08130752  0.56458958  1
  H+  H303  1  0.64824789  0.57028374  0.57309436  1
  H+  H304  1  0.65121992  0.95851222  0.75306135  1
  H+  H305  1  0.48562411  0.36763295  0.15521875  1
  H+  H306  1  0.60966288  0.47006609  0.49965159  1
  H+  H307  1  0.34212051  0.17696885  0.42484407  1
  H+  H308  1  0.76119077  0.62439943  0.50035741  1
  H+  H309  1  0.86211235  0.17140686  0.73188075  1
  H+  H310  1  0.32591816  0.92551473  0.09777757  1
  H+  H311  1  0.37292170  0.39253665  0.83029270  1
  H+  H312  1  0.34540341  0.42395243  0.74076403  1
  H+  H313  1  0.34191870  0.66882429  0.09777269  1
  H+  H314  1  0.90587643  0.56557208  0.23634389  1
  H+  H315  1  0.82997336  0.91513925  0.39268627  1
  H+  H316  1  0.28466451  0.14813954  0.14584083  1
  H+  H317  1  0.59153650  0.41513839  0.43718395  1
  H+  H318  1  0.16598916  0.58427430  0.26859504  1
  H+  H319  1  0.87674922  0.85393678  0.51366277  1
  H+  H320  1  0.60960688  0.23014245  0.16081242  1
  H+  H321  1  0.32554480  0.17787701  0.07650010  1
  H+  H322  1  0.15389182  0.32497642  0.59115955  1
  H+  H323  1  0.63499779  0.85817529  0.94626087  1
  H+  H324  1  0.57226239  0.66339010  0.72960457  1
  H+  H325  1  0.42324763  0.60170560  0.26036187  1
  H+  H326  1  0.67298023  0.09682457  0.26805181  1
  H+  H327  1  0.31470120  0.15810551  0.81003115  1
  H+  H328  1  0.34390075  0.41835228  0.06372168  1
  H+  H329  1  0.82321616  0.40920940  0.73299195  1
  H+  H330  1  0.37953450  0.19944636  0.72540420  1
  H+  H331  1  0.37560973  0.44201733  0.39325024  1
  H+  H332  1  0.92403596  0.32858040  0.23322941  1
  H+  H333  1  0.15085322  0.22358764  0.19288927  1
  H+  H334  1  0.67123591  0.33024534  0.89493180  1
  H+  H335  1  0.90445134  0.83046758  0.94121620  1
  H+  H336  1  0.10978184  0.04056455  0.92509486  1
  H+  H337  1  0.24570922  0.35993764  0.67597063  1
  H+  H338  1  0.59642330  0.68559036  0.09861045  1
  H+  H339  1  0.47834918  0.61011782  0.83881909  1
  H+  H340  1  0.19725431  0.10728818  0.56336155  1
  H+  H341  1  0.47016660  0.61483669  0.65696631  1
  H+  H342  1  0.12953230  0.68835483  0.74580554  1
  H+  H343  1  0.65761012  0.08406946  0.90587657  1
  H+  H344  1  0.14128770  -0.01269703  0.49420596  1
  H+  H345  1  0.07350015  0.66334164  0.10987786  1
  H+  H346  1  0.66350846  0.32197078  0.59850749  1
  H+  H347  1  0.86841111  0.13876871  0.81804197  1
  H+  H348  1  0.17007342  0.59264021  0.56275720  1
  H+  H349  1  0.93288323  0.86330568  0.23538807  1
  H+  H350  1  0.57279461  0.16757693  0.39405060  1
  H+  H351  1  0.03356257  0.63510105  0.83598403  1
  H+  H352  1  0.07065997  0.90058663  0.77581186  1
  H+  H353  1  0.71714016  0.60174987  0.17095301  1
  H+  H354  1  0.59007533  0.41990400  0.09840288  1
  H+  H355  1  0.96964115  0.36561217  0.50561850  1
  H+  H356  1  0.09354762  0.41204982  0.11093309  1
  H+  H357  1  0.86492580  0.38939302  0.82020408  1
  H+  H358  1  0.40925736  0.57672344  0.56577220  1
  H+  H359  1  0.91368302  0.32727412  0.88472384  1
  H+  H360  1  0.16995841  0.56929633  0.89846101  1
  H+  H361  1  0.57910162  0.16312272  0.73460992  1
  H+  H362  1  0.88511305  0.85651047  0.84016561  1
  H+  H363  1  0.84077095  0.39623530  0.07483508  1
  H+  H364  1  0.07911327  0.66705177  0.40083064  1
  H+  H365  1  0.13381174  0.21525749  0.68562204  1
  H+  H366  1  0.10629868  0.63734105  0.49386018  1
  H+  H367  1  0.83153860  0.15311581  0.07033582  1
  H+  H368  1  0.90810810  0.07751228  0.89469534  1
  H+  H369  1  0.16563041  0.83166989  0.56909925  1
  H+  H370  1  0.16814708  0.33619039  0.27897844  1
  H+  H371  1  0.08216539  0.16674300  0.40208474  1
  H+  H372  1  0.58966589  0.89632637  0.39934791  1
  H+  H373  1  0.09640096  0.84187208  0.99656228  1
  H+  H374  1  0.91014440  0.33174516  0.56510741  1
  H+  H375  1  0.83852588  0.91316041  0.76536663  1
  H+  H376  1  0.83337036  0.16742771  0.39720931  1
  H+  H377  1  0.63742970  0.76930627  0.50007814  1
  H+  H378  1  0.68374320  0.81000393  0.90174171  1
  H+  H379  1  0.60477745  0.94627661  0.75495671  1
  H+  H380  1  0.34694829  0.92671319  0.73046312  1
  H+  H381  1  0.08497453  0.92388947  0.10947315  1
  H+  H382  1  0.33446412  0.66471100  0.73332087  1
  H+  H383  1  0.66783213  0.82586962  0.56045131  1
  O2-  O384  1  0.15309288  0.26274776  0.16099123  1
  O2-  O385  1  0.08934002  0.16977603  0.48549005  1
  O2-  O386  1  0.07609246  0.15139376  0.81840448  1
  O2-  O387  1  0.09186004  0.41071173  0.15620022  1
  O2-  O388  1  0.07475662  0.41891026  0.48255628  1
  O2-  O389  1  0.07310836  0.41016009  0.80177996  1
  O2-  O390  1  0.07001641  0.67228560  0.15456288  1
  O2-  O391  1  0.07331508  0.66520049  0.47965171  1
  O2-  O392  1  0.09522766  0.66031272  0.82511257  1
  O2-  O393  1  0.09139488  0.93166290  0.15421688  1
  O2-  O394  1  0.11141895  0.92662932  0.48220994  1
  O2-  O395  1  0.07409870  0.89314924  0.82057707  1
  O2-  O396  1  0.33919812  0.18446315  0.12288330  1
  O2-  O397  1  0.34523941  0.18312151  0.47221249  1
  O2-  O398  1  0.37662754  0.18897106  0.80198679  1
  O2-  O399  1  0.34995688  0.42643177  0.14285594  1
  O2-  O400  1  0.35230720  0.42634312  0.47387679  1
  O2-  O401  1  0.33847992  0.41819084  0.81500200  1
  O2-  O402  1  0.34775344  0.67142408  0.14336277  1
  O2-  O403  1  0.33215050  0.65729255  0.47790844  1
  O2-  O404  1  0.33527106  0.66045453  0.81256284  1
  O2-  O405  1  0.32904505  0.92624438  0.14284525  1
  O2-  O406  1  0.33728674  0.90707323  0.49244657  1
  O2-  O407  1  0.34791853  0.91821810  0.81042473  1
  O2-  O408  1  0.57877690  0.16928104  0.14567441  1
  O2-  O409  1  0.58335540  0.16617438  0.47372771  1
  O2-  O410  1  0.58447061  0.15956463  0.80928838  1
  O2-  O411  1  0.58036151  0.41582412  0.14371340  1
  O2-  O412  1  0.58423638  0.40959358  0.48301870  1
  O2-  O413  1  0.58428771  0.40053699  0.80352898  1
  O2-  O414  1  0.59537989  0.68005192  0.14425610  1
  O2-  O415  1  0.58049195  0.65856593  0.48138440  1
  O2-  O416  1  0.57538356  0.65454652  0.80437928  1
  O2-  O417  1  0.58751345  0.92275996  0.15540432  1
  O2-  O418  1  0.58353149  0.90918377  0.47172977  1
  O2-  O419  1  0.59605785  0.90296567  0.87275913  1
  O2-  O420  1  0.83210398  0.16138419  0.14088998  1
  O2-  O421  1  0.83636246  0.16270929  0.47953099  1
  O2-  O422  1  0.84798123  0.17236226  0.79417567  1
  O2-  O423  1  0.83156049  0.40281130  0.14656323  1
  O2-  O424  1  0.82230048  0.41011585  0.48260239  1
  O2-  O425  1  0.83442353  0.42092247  0.80691099  1
  O2-  O426  1  0.81309968  0.64473625  0.15144585  1
  O2-  O427  1  0.82136842  0.65454882  0.48550279  1
  O2-  O428  1  0.82653367  0.66088774  0.81102837  1
  O2-  O429  1  0.84138475  0.93431875  0.13691953  1
  O2-  O430  1  0.83456821  0.91128324  0.47766713  1
  O2-  O431  1  0.84108362  0.91226981  0.81098985  1
  O2-  O432  1  0.21139480  0.07463620  0.19688941  1
  O2-  O433  1  0.19100100  0.10479491  0.51854135  1
  O2-  O434  1  0.07574980  0.02105435  0.88533164  1
  O2-  O435  1  0.18896516  0.34471467  0.19436544  1
  O2-  O436  1  0.15144246  0.33406641  0.54640420  1
  O2-  O437  1  0.17773063  0.31370939  0.87295556  1
  O2-  O438  1  0.17059471  0.57687518  0.17942942  1
  O2-  O439  1  0.16623321  0.58890876  0.51716775  1
  O2-  O440  1  0.17073162  0.57113047  0.85353633  1
  O2-  O441  1  0.16625358  0.84616112  0.18824339  1
  O2-  O442  1  0.16476636  0.82582898  0.52422927  1
  O2-  O443  1  0.17917889  0.83164466  0.85236690  1
  O2-  O444  1  0.41183744  0.09385597  0.17840691  1
  O2-  O445  1  0.42200837  0.09064541  0.52137502  1
  O2-  O446  1  0.42483291  0.08671285  0.85073666  1
  O2-  O447  1  0.41988582  0.33465886  0.16466802  1
  O2-  O448  1  0.42131327  0.33099217  0.50704607  1
  O2-  O449  1  0.43072653  0.34379179  0.85673223  1
  O2-  O450  1  0.43188934  0.58860838  0.18060323  1
  O2-  O451  1  0.41046471  0.57565121  0.51997113  1
  O2-  O452  1  0.41914566  0.58094870  0.85727052  1
  O2-  O453  1  0.41575604  0.84019437  0.18127961  1
  O2-  O454  1  0.41706084  0.82094973  0.51318900  1
  O2-  O455  1  0.41737073  0.82188072  0.86209088  1
  O2-  O456  1  0.67004897  0.08985610  0.18824428  1
  O2-  O457  1  0.66377410  0.07880027  0.50922080  1
  O2-  O458  1  0.64729844  0.07419619  0.86162900  1
  O2-  O459  1  0.66596481  0.33383455  0.18447188  1
  O2-  O460  1  0.66470337  0.32946149  0.53025940  1
  O2-  O461  1  0.67173538  0.32758353  0.84988056  1
  O2-  O462  1  0.65452316  0.57381014  0.18522608  1
  O2-  O463  1  0.65141253  0.56833900  0.52765073  1
  O2-  O464  1  0.65158480  0.57070476  0.83698244  1
  O2-  O465  1  0.67402395  0.84417884  0.19550306  1
  O2-  O466  1  0.66641785  0.82971254  0.51510138  1
  O2-  O467  1  0.68082814  0.81001748  0.85685970  1
  O2-  O468  1  0.99153802  0.08916245  0.13794453  1
  O2-  O469  1  0.92445877  0.08247260  0.51935731  1
  O2-  O470  1  0.90798620  0.07718703  0.84895633  1
  O2-  O471  1  0.92709959  0.33100599  0.18756204  1
  O2-  O472  1  0.90844395  0.33275459  0.51970935  1
  O2-  O473  1  0.91409452  0.33442069  0.84017470  1
  O2-  O474  1  0.90281610  0.56293554  0.19091182  1
  O2-  O475  1  0.90478041  0.57488279  0.51609892  1
  O2-  O476  1  0.92128188  0.58642478  0.85287873  1
  O2-  O477  1  0.94158837  0.86940745  0.18898643  1
  O2-  O478  1  0.89956091  0.82034173  0.53474996  1
  O2-  O479  1  0.90797591  0.82165823  0.86017164  1
  O2-  O480  1  0.17120535  0.09341454  0.31731658  1
  O2-  O481  1  0.21638426  0.10829299  0.64383234  1
  O2-  O482  1  0.14618387  0.06158291  0.99174287  1
  O2-  O483  1  0.15918932  0.33548905  0.32310940  1
  O2-  O484  1  0.18133968  0.32508371  0.66674592  1
  O2-  O485  1  0.17027649  0.31770396  0.99146233  1
  O2-  O486  1  0.16355214  0.58501186  0.31313800  1
  O2-  O487  1  0.17622966  0.59786179  0.63937729  1
  O2-  O488  1  0.17425434  0.58319352  0.98384471  1
  O2-  O489  1  0.15974810  0.83576188  0.31294334  1
  O2-  O490  1  0.17795639  0.85187238  0.65187979  1
  O2-  O491  1  0.10703313  0.79922243  0.97218318  1
  O2-  O492  1  0.41148778  0.09024393  0.30798695  1
  O2-  O493  1  0.42493234  0.09173760  0.64253682  1
  O2-  O494  1  0.39794423  0.09349672  0.97266410  1
  O2-  O495  1  0.42843135  0.32465738  0.31488892  1
  O2-  O496  1  0.46063559  0.37370827  0.65603266  1
  O2-  O497  1  0.43506911  0.34118643  0.98208462  1
  O2-  O498  1  0.41937122  0.59917636  0.30543121  1
  O2-  O499  1  0.40907891  0.58189170  0.64168493  1
  O2-  O500  1  0.41731668  0.58647950  0.97989630  1
  O2-  O501  1  0.40720295  0.84344547  0.30917345  1
  O2-  O502  1  0.40884216  0.82790788  0.63812853  1
  O2-  O503  1  0.41952341  0.83788116  0.98647724  1
  O2-  O504  1  0.67666631  0.10342886  0.31303784  1
  O2-  O505  1  0.65327367  0.08970731  0.63465115  1
  O2-  O506  1  0.66869798  0.08339750  0.98746272  1
  O2-  O507  1  0.65728161  0.32841042  0.30685688  1
  O2-  O508  1  0.66310868  0.31853181  0.64597218  1
  O2-  O509  1  0.67679578  0.32795600  0.97871938  1
  O2-  O510  1  0.66436492  0.57243220  0.30933530  1
  O2-  O511  1  0.64160957  0.57127199  0.65070654  1
  O2-  O512  1  0.68173414  0.60167437  0.99344428  1
  O2-  O513  1  0.61182642  0.83340695  0.33672051  1
  O2-  O514  1  0.66759911  0.82413904  0.63946691  1
  O2-  O515  1  0.65370668  0.84013370  0.98253041  1
  O2-  O516  1  0.91096035  0.08077823  0.30638810  1
  O2-  O517  1  0.94371118  0.07967613  0.64360502  1
  O2-  O518  1  0.90950178  0.07157211  0.97112012  1
  O2-  O519  1  0.92527745  0.33020287  0.31052543  1
  O2-  O520  1  0.91222413  0.33045084  0.64382279  1
  O2-  O521  1  0.91105567  0.30692094  0.96796597  1
  O2-  O522  1  0.91683078  0.57224475  0.31443451  1
  O2-  O523  1  0.83200380  0.53687013  0.62546898  1
  O2-  O524  1  0.89859347  0.58105970  0.98184335  1
  O2-  O525  1  0.92259742  0.85033334  0.30420117  1
  O2-  O526  1  0.90762729  0.82236717  0.65042423  1
  O2-  O527  1  0.90595378  0.83615541  0.98626012  1
  O2-  O528  1  0.06567107  0.14449223  0.02816744  1
  O2-  O529  1  0.08049496  0.16868649  0.35712464  1
  O2-  O530  1  0.10533561  0.15289438  0.69540458  1
  O2-  O531  1  0.09081205  0.42758966  0.03194238  1
  O2-  O532  1  0.08628939  0.42301670  0.36019306  1
  O2-  O533  1  0.07865177  0.42526935  0.66988307  1
  O2-  O534  1  0.07026234  0.65049636  0.03146959  1
  O2-  O535  1  0.07754411  0.66558356  0.35513925  1
  O2-  O536  1  0.15890679  0.71564498  0.70748510  1
  O2-  O537  1  0.06720558  0.90103479  0.03038980  1
  O2-  O538  1  0.08658510  0.92422030  0.36004898  1
  O2-  O539  1  0.06064277  0.90126597  0.69732920  1
  O2-  O540  1  0.31209196  0.16417358  0.00822798  1
  O2-  O541  1  0.33616704  0.17059519  0.35696678  1
  O2-  O542  1  0.37699010  0.20268778  0.67993059  1
  O2-  O543  1  0.34249633  0.41335214  0.01850608  1
  O2-  O544  1  0.39859132  0.45177958  0.35152650  1
  O2-  O545  1  0.34484667  0.42168887  0.69451867  1
  O2-  O546  1  0.33777266  0.66976821  0.02108280  1
  O2-  O547  1  0.33316455  0.67087797  0.35429851  1
  O2-  O548  1  0.33252730  0.66644460  0.68785640  1
  O2-  O549  1  0.33179052  0.93094649  0.01624853  1
  O2-  O550  1  0.33426463  0.93487922  0.34021049  1
  O2-  O551  1  0.34522044  0.93073560  0.68519716  1
  O2-  O552  1  0.56374835  0.15399641  0.02827331  1
  O2-  O553  1  0.57300075  0.17014809  0.34883339  1
  O2-  O554  1  0.57845851  0.16768772  0.68853454  1
  O2-  O555  1  0.59999037  0.42266674  0.02308017  1
  O2-  O556  1  0.59281819  0.41746369  0.36205331  1
  O2-  O557  1  0.54655682  0.40554366  0.68225454  1
  O2-  O558  1  0.58979845  0.68317556  0.02144499  1
  O2-  O559  1  0.54849863  0.59927061  0.36676465  1
  O2-  O560  1  0.56988616  0.66318171  0.68365186  1
  O2-  O561  1  0.57851559  0.91510721  0.03386956  1
  O2-  O562  1  0.59432692  0.89377312  0.35220938  1
  O2-  O563  1  0.58265382  0.90795593  0.63702168  1
  O2-  O564  1  0.82851632  0.14647261  0.02371927  1
  O2-  O565  1  0.83367117  0.17415182  0.35240399  1
  O2-  O566  1  0.87035444  0.17127206  0.68284994  1
  O2-  O567  1  0.84837946  0.39692456  0.02861401  1
  O2-  O568  1  0.79880325  0.35070352  0.36969643  1
  O2-  O569  1  0.81674604  0.39962696  0.68715514  1
  O2-  O570  1  0.83937903  0.67252865  0.02757749  1
  O2-  O571  1  0.81878481  0.64277087  0.36811274  1
  O2-  O572  1  0.80688952  0.65675675  0.69032161  1
  O2-  O573  1  0.81101035  0.90574926  0.01488262  1
  O2-  O574  1  0.82643613  0.91341892  0.34787320  1
  O2-  O575  1  0.83415591  0.91276206  0.68770659  1
