# generated using pymatgen
data_H2O
_symmetry_space_group_name_H-M   'P 1'
_cell_length_a   17.99175616
_cell_length_b   17.99023328
_cell_length_c   22.01342778
_cell_angle_alpha   89.95627398
_cell_angle_beta   89.99490447
_cell_angle_gamma   120.00963173
_symmetry_Int_Tables_number   1
_chemical_formula_structural   H2O
_chemical_formula_sum   'H384 O192'
_cell_volume   6170.01623519
_cell_formula_units_Z   192
loop_
 _symmetry_equiv_pos_site_id
 _symmetry_equiv_pos_as_xyz
  1  'x, y, z'
loop_
 _atom_type_symbol
 _atom_type_oxidation_number
  H+  1.0
  O2-  -2.0
loop_
 _atom_site_type_symbol
 _atom_site_label
 _atom_site_symmetry_multiplicity
 _atom_site_fract_x
 _atom_site_fract_y
 _atom_site_fract_z
 _atom_site_occupancy
  H+  H0  1  0.78616676  0.14884007  0.82832039  1
  H+  H1  1  0.27594099  0.58015513  0.42889511  1
  H+  H2  1  0.38371507  0.12215269  0.16747052  1
  H+  H3  1  0.39041016  0.53329982  0.49970460  1
  H+  H4  1  0.48936771  0.61533281  0.31624192  1
  H+  H5  1  0.01404210  0.38396339  0.01750509  1
  H+  H6  1  0.65294649  0.36696309  0.33035230  1
  H+  H7  1  0.62379675  0.64071127  0.33779675  1
  H+  H8  1  0.30317483  0.37785853  0.10696500  1
  H+  H9  1  0.58783895  0.17659237  0.10100346  1
  H+  H10  1  0.10142141  0.23876216  0.36573760  1
  H+  H11  1  0.10806474  0.63347413  0.16204115  1
  H+  H12  1  0.87677889  0.97765717  0.49396781  1
  H+  H13  1  0.82186226  0.92911248  0.78113689  1
  H+  H14  1  0.10461185  -0.03837826  0.48185114  1
  H+  H15  1  0.36681430  0.85368803  0.50475481  1
  H+  H16  1  0.86635105  -0.00837220  0.17612106  1
  H+  H17  1  0.61031066  0.88247549  0.16943876  1
  H+  H18  1  0.14694756  0.02280314  0.18766957  1
  H+  H19  1  0.64532291  0.87501071  0.81756697  1
  H+  H20  1  0.85337034  0.86250004  0.64509871  1
  H+  H21  1  0.00762783  0.30067764  0.13976415  1
  H+  H22  1  -0.01887916  0.36115568  0.66900804  1
  H+  H23  1  0.63727124  0.78327449  0.65158650  1
  H+  H24  1  0.87524435  0.64276162  0.34513809  1
  H+  H25  1  0.74610392  0.12460806  0.42484850  1
  H+  H26  1  0.57195127  0.94068154  0.49480763  1
  H+  H27  1  0.76708073  0.63777599  0.49230583  1
  H+  H28  1  0.06093585  0.65281214  0.10723378  1
  H+  H29  1  0.12950157  -0.00648233  1.01155813  1
  H+  H30  1  0.64556792  0.28540500  0.85392990  1
  H+  H31  1  0.86902789  1.03000386  0.66075634  1
  H+  H32  1  0.90454769  0.38735155  0.33970010  1
  H+  H33  1  0.63859383  0.61644720  0.49951260  1
  H+  H34  1  0.82822695  0.57560199  0.69566461  1
  H+  H35  1  0.51933562  0.89822895  0.65895229  1
  H+  H36  1  0.85563379  0.84950246  0.67721309  1
  H+  H37  1  0.40515367  1.02936714  0.85149926  1
  H+  H38  1  0.63648322  0.24784695  0.66705125  1
  H+  H39  1  0.24721555  0.63695937  0.31409573  1
  H+  H40  1  0.03595865  0.91318198  0.01243486  1
  H+  H41  1  0.88517234  0.87428516  0.84941377  1
  H+  H42  1  0.13284311  0.01384062  0.84170474  1
  H+  H43  1  0.35713123  0.69196912  0.37424790  1
  H+  H44  1  0.62299293  0.09411939  0.16608959  1
  H+  H45  1  0.60957312  0.42989069  0.13381528  1
  H+  H46  1  0.44113812  0.15758091  1.00038963  1
  H+  H47  1  0.28177916  0.64790707  0.81060941  1
  H+  H48  1  0.39322111  0.86816478  0.84540403  1
  H+  H49  1  0.88181278  0.02954343  0.34082296  1
  H+  H50  1  0.74131396  0.36429364  0.33363376  1
  H+  H51  1  0.88852712  0.24718163  0.16995273  1
  H+  H52  1  0.97532835  0.11217568  0.66340745  1
  H+  H53  1  0.64653241  0.34895932  0.18765289  1
  H+  H54  1  0.11085241  0.87366620  0.67724011  1
  H+  H55  1  0.38185467  0.86870054  0.65739837  1
  H+  H56  1  0.60523216  0.87159492  0.33879313  1
  H+  H57  1  0.89072905  0.28933106  0.85107573  1
  H+  H58  1  0.53554045  0.13932714  0.85398380  1
  H+  H59  1  0.37961296  0.40506536  0.64698570  1
  H+  H60  1  0.25481951  0.34819481  1.01291542  1
  H+  H61  1  0.39977969  0.63201509  0.16775041  1
  H+  H62  1  0.12568125  0.34019883  0.17996215  1
  H+  H63  1  0.01523174  0.87286111  0.49074016  1
  H+  H64  1  0.38512142  0.63111372  0.64719371  1
  H+  H65  1  0.77465455  0.91178763  0.01605668  1
  H+  H66  1  0.61817643  0.22144565  0.16525930  1
  H+  H67  1  0.59425546  0.45953734  0.81276835  1
  H+  H68  1  0.45167751  0.83657109  0.50682338  1
  H+  H69  1  0.66034092  0.13610106  0.65134279  1
  H+  H70  1  0.86756822  0.46575502  0.68193831  1
  H+  H71  1  0.61606630  0.38664778  -0.00642618  1
  H+  H72  1  0.59801743  0.72321044  0.81390454  1
  H+  H73  1  0.66877555  0.83991279  0.56139358  1
  H+  H74  1  0.40108051  0.32915810  0.89163091  1
  H+  H75  1  0.97694327  0.85979195  0.32595955  1
  H+  H76  1  0.97645211  0.81316308  0.65358631  1
  H+  H77  1  0.47889262  0.12440643  0.31813767  1
  H+  H78  1  0.36802470  0.64428323  0.81365804  1
  H+  H79  1  0.60605133  0.37887937  0.82674073  1
  H+  H80  1  0.60449250  0.72217525  1.00944770  1
  H+  H81  1  0.11388938  0.46998888  0.82475973  1
  H+  H82  1  0.37017393  0.22768848  1.01047076  1
  H+  H83  1  0.12535939  0.40641197  0.49743910  1
  H+  H84  1  0.88022589  0.37753774  0.00435739  1
  H+  H85  1  1.02140113  0.88596964  0.83562082  1
  H+  H86  1  0.22801747  0.86648486  0.32512968  1
  H+  H87  1  0.21032297  0.35206133  0.82920403  1
  H+  H88  1  0.34644120  0.17592149  0.59408068  1
  H+  H89  1  0.65772279  0.55518907  0.17926152  1
  H+  H90  1  0.33174077  0.47956386  0.80152095  1
  H+  H91  1  0.61344266  0.38158555  0.48772754  1
  H+  H92  1  0.36164559  0.21688428  0.84726144  1
  H+  H93  1  0.26592146  0.87561995  0.49202302  1
  H+  H94  1  0.39987429  0.11608997  0.85757974  1
  H+  H95  1  0.76707963  0.89095954  0.84025020  1
  H+  H96  1  0.67918774  0.58669777  0.76726395  1
  H+  H97  1  0.67094496  1.00509192  0.80055501  1
  H+  H98  1  0.14427199  0.10876037  0.18917860  1
  H+  H99  1  0.10133440  0.46989624  1.02818200  1
  H+  H100  1  0.25323305  0.62643361  0.02032028  1
  H+  H101  1  0.41757911  0.12420242  0.64457225  1
  H+  H102  1  0.62019906  0.51237614  1.01877496  1
  H+  H103  1  -0.08819168  0.34592134  -0.05287885  1
  H+  H104  1  0.55051793  0.38128835  0.04613878  1
  H+  H105  1  0.50011512  0.11634136  0.65640267  1
  H+  H106  1  0.12581528  0.85260916  0.00172529  1
  H+  H107  1  0.61020397  -0.01338783  0.65180659  1
  H+  H108  1  0.12382997  0.27287523  0.51380688  1
  H+  H109  1  0.35938224  0.98531664  0.33550645  1
  H+  H110  1  0.98404935  0.37347944  0.18896897  1
  H+  H111  1  0.85621686  0.24112199  0.01688007  1
  H+  H112  1  1.01987631  0.12987336  0.82847004  1
  H+  H113  1  0.22543129  0.61977252  0.50657249  1
  H+  H114  1  0.27677708  0.39798758  0.34229174  1
  H+  H115  1  0.26762431  0.13858190  0.50065536  1
  H+  H116  1  0.65424810  0.11581263  0.83986422  1
  H+  H117  1  0.90689525  0.13214927  0.18794436  1
  H+  H118  1  0.12167784  0.34177174  0.84549067  1
  H+  H119  1  0.18268501  0.15333085  0.98122086  1
  H+  H120  1  0.10445504  0.60263845  1.02065879  1
  H+  H121  1  0.58583063  0.49342844  0.10467102  1
  H+  H122  1  0.06591452  0.15525456  0.73805011  1
  H+  H123  1  0.60822417  1.00006491  0.32097642  1
  H+  H124  1  0.13718721  0.86260193  0.17341268  1
  H+  H125  1  0.43151381  0.07236055  0.56286673  1
  H+  H126  1  0.78882205  0.39085443  0.17679455  1
  H+  H127  1  0.38125165  0.77754181  0.65515650  1
  H+  H128  1  0.89914797  0.38604237  0.19385877  1
  H+  H129  1  0.10714710  0.38400975  0.67768361  1
  H+  H130  1  0.46922871  0.60834151  0.82268018  1
  H+  H131  1  0.12227269  0.62482599  0.50058009  1
  H+  H132  1  0.73972557  0.61944212  0.33331672  1
  H+  H133  1  0.39514735  0.37565821  0.49553513  1
  H+  H134  1  0.64970914  0.38110080  0.65530369  1
  H+  H135  1  0.69441981  0.59648734  0.83809299  1
  H+  H136  1  0.89501916  0.81418651  1.00811188  1
  H+  H137  1  0.37544839  0.35062868  0.99533731  1
  H+  H138  1  0.15503141  0.62988855  0.32549870  1
  H+  H139  1  0.12110333  0.26292589  0.66662559  1
  H+  H140  1  0.26238481  0.86949213  0.16063521  1
  H+  H141  1  0.76823348  0.40875359  1.00647883  1
  H+  H142  1  0.14645836  0.77730696  0.65373605  1
  H+  H143  1  0.90349193  0.23874887  0.51680596  1
  H+  H144  1  0.01858143  0.39140738  0.83263713  1
  H+  H145  1  0.42233708  0.30530715  0.63874285  1
  H+  H146  1  0.15149733  0.81829130  0.94339218  1
  H+  H147  1  0.38382752  0.76995554  0.17551513  1
  H+  H148  1  0.12918028  0.25442034  0.18994711  1
  H+  H149  1  0.67986754  0.52833842  0.68766636  1
  H+  H150  1  0.12781046  0.49977640  0.50054068  1
  H+  H151  1  0.99604713  0.38031327  0.50999988  1
  H+  H152  1  0.13103891  0.76970940  0.17189556  1
  H+  H153  1  0.07200674  0.66432764  0.60394976  1
  H+  H154  1  0.10488082  0.87370648  0.33494639  1
  H+  H155  1  0.67230273  0.84104347  0.27179302  1
  H+  H156  1  0.97030233  0.64399712  0.53029133  1
  H+  H157  1  0.97633980  0.59176469  1.01723208  1
  H+  H158  1  0.87030506  0.16122651  0.01452056  1
  H+  H159  1  0.36823462  0.48673375  0.33623001  1
  H+  H160  1  0.46064866  0.81876539  0.32927052  1
  H+  H161  1  0.42757217  0.58564477  0.21617787  1
  H+  H162  1  0.84542965  0.66081897  0.77253307  1
  H+  H163  1  0.63201193  0.66107339  0.16672641  1
  H+  H164  1  0.12538461  0.73168197  0.34098847  1
  H+  H165  1  0.14390697  0.77577184  0.84547911  1
  H+  H166  1  0.08820667  0.12306654  0.67528687  1
  H+  H167  1  0.88685330  0.37640588  0.85367248  1
  H+  H168  1  0.75525991  0.91158895  0.67770520  1
  H+  H169  1  0.01816564  0.12551297  0.18320543  1
  H+  H170  1  0.77795895  0.89108959  0.34311697  1
  H+  H171  1  0.58644550  0.67969531  0.07452402  1
  H+  H172  1  0.35939604  0.62703046  0.46784128  1
  H+  H173  1  0.13797323  0.86065042  0.84902509  1
  H+  H174  1  0.74080551  0.11588535  0.33565153  1
  H+  H175  1  0.03004149  0.64012856  0.82564047  1
  H+  H176  1  0.33818704  0.61676815  1.02655471  1
  H+  H177  1  0.31753119  0.41998608  0.60644455  1
  H+  H178  1  0.24486495  0.85132186  1.01584896  1
  H+  H179  1  0.72822400  0.11646149  0.99176066  1
  H+  H180  1  0.10470291  0.15345082  0.36394590  1
  H+  H181  1  0.75251266  0.60805934  1.03429390  1
  H+  H182  1  0.86479394  0.37356259  0.49233425  1
  H+  H183  1  0.53960383  0.65709663  0.16247304  1
  H+  H184  1  0.23403180  0.14144474  0.34413795  1
  H+  H185  1  0.91547569  0.63435623  0.83981196  1
  H+  H186  1  0.53011338  0.11676416  0.48610846  1
  H+  H187  1  0.87590304  0.62148256  0.51755779  1
  H+  H188  1  0.92687235  0.10131586  0.90694909  1
  H+  H189  1  0.17359823  0.84068066  0.59895073  1
  H+  H190  1  0.96215982  0.59939996  0.66374074  1
  H+  H191  1  0.33083423  0.17150306  0.66695969  1
  H+  H192  1  0.39108748  0.54506547  0.64301089  1
  H+  H193  1  0.45966320  0.36177890  0.17126126  1
  H+  H194  1  0.33249207  0.44650366  1.02879370  1
  H+  H195  1  0.61686190  0.73246860  0.48726530  1
  H+  H196  1  0.39973914  0.56179739  1.09045155  1
  H+  H197  1  0.48143200  0.12412536  0.16733518  1
  H+  H198  1  0.52644332  0.64563665  0.48515398  1
  H+  H199  1  0.38016683  0.26457001  0.17309895  1
  H+  H200  1  0.87700404  0.24677071  0.67841104  1
  H+  H201  1  0.78081777  0.37767439  0.68761033  1
  H+  H202  1  0.64282940  0.77462754  0.32766574  1
  H+  H203  1  0.88907008  0.86391370  0.32786226  1
  H+  H204  1  0.89414804  0.87913720  0.17715471  1
  H+  H205  1  0.46613237  0.35663311  0.98121319  1
  H+  H206  1  0.86419617  0.88365495  0.49625334  1
  H+  H207  1  0.35836191  0.22799232  0.50496777  1
  H+  H208  1  0.63338162  0.86429918  0.97860833  1
  H+  H209  1  0.83188258  0.12776616  0.35344059  1
  H+  H210  1  0.62871174  0.25733375  0.49490706  1
  H+  H211  1  0.27219649  0.12831112  0.16511124  1
  H+  H212  1  0.13933936  0.52417559  0.17589397  1
  H+  H213  1  0.06676809  0.14875231  0.12001227  1
  H+  H214  1  0.05617659  0.69040563  1.01031535  1
  H+  H215  1  0.13494229  0.50026960  0.34433873  1
  H+  H216  1  0.50713698  0.87352355  -0.02035447  1
  H+  H217  1  0.37425662  0.23898103  0.36028831  1
  H+  H218  1  0.27295704  0.38953564  0.49410079  1
  H+  H219  1  0.88406968  1.03212945  0.85350514  1
  H+  H220  1  0.13300660  0.76478549  0.50614541  1
  H+  H221  1  0.54016533  0.39759299  0.34472524  1
  H+  H222  1  0.60462846  -0.02326088  0.16655064  1
  H+  H223  1  0.04016645  0.15329414  0.45552205  1
  H+  H224  1  0.39090769  0.12763840  0.32024575  1
  H+  H225  1  0.29234614  0.13421975  0.00725187  1
  H+  H226  1  0.87905574  0.74176517  0.64457075  1
  H+  H227  1  0.45809804  0.34789195  0.83289252  1
  H+  H228  1  0.93646748  0.74271832  0.77224380  1
  H+  H229  1  0.61287739  0.17129507  0.89886851  1
  H+  H230  1  0.43000160  0.34982579  0.41045568  1
  H+  H231  1  0.39397263  0.10283383  0.50985118  1
  H+  H232  1  0.27415590  0.63986694  0.16519382  1
  H+  H233  1  0.13093666  0.85283606  0.50362687  1
  H+  H234  1  0.88063925  0.76827358  0.49769173  1
  H+  H235  1  0.97863086  0.61891989  0.18540859  1
  H+  H236  1  0.81858602  0.15071116  0.49942391  1
  H+  H237  1  0.58763257  0.24047772  -0.00354112  1
  H+  H238  1  0.35453698  0.87019655  0.16146621  1
  H+  H239  1  0.61074658  0.19130564  0.72662190  1
  H+  H240  1  0.08206131  0.94415782  0.67655695  1
  H+  H241  1  0.33168641  0.42665718  0.43425244  1
  H+  H242  1  0.24746532  0.35478506  0.17398358  1
  H+  H243  1  0.21144499  0.35013836  0.66632599  1
  H+  H244  1  0.87463105  0.48230185  0.34759647  1
  H+  H245  1  0.83684523  0.66565594  -0.00456473  1
  H+  H246  1  0.96353354  0.12334149  0.34819902  1
  H+  H247  1  0.27167105  0.64365225  0.66488133  1
  H+  H248  1  0.62603978  0.13055119  0.47259442  1
  H+  H249  1  0.73227840  0.88262869  0.17946593  1
  H+  H250  1  0.75010334  0.64087258  0.17754607  1
  H+  H251  1  0.64059389  0.52915481  0.50133238  1
  H+  H252  1  0.88943211  0.35852993  0.66918271  1
  H+  H253  1  0.62370139  0.60360562  1.03088782  1
  H+  H254  1  0.33930218  0.85577964  1.01030462  1
  H+  H255  1  0.13923764  0.52602425  0.65574840  1
  H+  H256  1  0.87063508  0.48594418  0.18059910  1
  H+  H257  1  0.11464419  0.09830993  0.48670467  1
  H+  H258  1  0.03045578  0.89610126  0.16554551  1
  H+  H259  1  0.06872343  0.38325118  0.10096503  1
  H+  H260  1  0.55279677  0.91187783  -0.08054151  1
  H+  H261  1  0.18088764  0.08034426  0.65197197  1
  H+  H262  1  0.77176084  0.36606347  0.48835968  1
  H+  H263  1  0.90097307  0.53890909  0.84345122  1
  H+  H264  1  0.54741186  0.40761612  0.66466812  1
  H+  H265  1  0.18859201  0.59795673  0.87749801  1
  H+  H266  1  0.02690246  0.09217262  0.00674804  1
  H+  H267  1  0.77666756  0.40010136  0.84029238  1
  H+  H268  1  0.84371159  0.55109882  0.01071429  1
  H+  H269  1  0.61175985  0.09213346  0.31859187  1
  H+  H270  1  0.35852197  0.96328350  0.49440087  1
  H+  H271  1  0.78250238  0.14912990  0.67886810  1
  H+  H272  1  0.86614174  0.91844470  0.01545544  1
  H+  H273  1  0.27757427  0.12345768  0.85142168  1
  H+  H274  1  0.33679874  0.67756436  0.72267807  1
  H+  H275  1  -0.01110938  0.61747045  0.33593882  1
  H+  H276  1  0.37274745  -0.01820435  0.67459775  1
  H+  H277  1  0.87063362  0.73030992  0.34029287  1
  H+  H278  1  0.11320675  0.23421516  0.98894500  1
  H+  H279  1  0.48679694  0.37303021  0.49183956  1
  H+  H280  1  0.52517632  0.65791779  0.65392184  1
  H+  H281  1  0.61833347  0.22436505  0.33507001  1
  H+  H282  1  0.40805735  0.62624921  0.30838690  1
  H+  H283  1  0.64091578  1.02834678  -0.02126224  1
  H+  H284  1  0.27979529  0.89590599  0.67381034  1
  H+  H285  1  0.10955389  0.21714199  0.82391272  1
  H+  H286  1  0.11547851  0.63211673  0.64953928  1
  H+  H287  1  0.59927407  0.63465534  0.80476095  1
  H+  H288  1  0.68830052  0.08369493  0.89359082  1
  H+  H289  1  0.31322002  0.88375417  0.08560061  1
  H+  H290  1  0.93979889  0.36030150  0.27506238  1
  H+  H291  1  0.89244457  0.78944147  0.84770025  1
  H+  H292  1  0.15534586  0.08325276  0.42823461  1
  H+  H293  1  0.83734677  0.94104044  0.11271973  1
  H+  H294  1  0.45346665  0.59402654  1.03139487  1
  H+  H295  1  0.72757627  0.54032587  0.91363532  1
  H+  H296  1  0.59536714  0.86601534  0.49463427  1
  H+  H297  1  0.15703049  0.08616459  0.30073505  1
  H+  H298  1  0.34356842  0.16075675  0.40576919  1
  H+  H299  1  0.17076685  0.58384247  0.59199803  1
  H+  H300  1  0.16748813  0.28334416  0.93078064  1
  H+  H301  1  0.13312972  0.10331592  0.83789192  1
  H+  H302  1  0.92140503  0.81675818  0.55809078  1
  H+  H303  1  0.56181518  0.89136663  0.39525817  1
  H+  H304  1  0.51213269  0.87462357  0.17209846  1
  H+  H305  1  0.84183599  0.18081158  0.74481319  1
  H+  H306  1  0.07544105  0.90123736  0.77395880  1
  H+  H307  1  0.27984387  0.89243730  0.83526952  1
  H+  H308  1  0.34613455  0.35500577  0.16945389  1
  H+  H309  1  0.63056053  0.48519065  0.33585404  1
  H+  H310  1  0.76294516  0.53039222  0.90863563  1
  H+  H311  1  0.15972583  0.33116094  0.57149039  1
  H+  H312  1  0.24800431  0.11212265  0.72717371  1
  H+  H313  1  0.62587925  0.94483581  0.74153747  1
  H+  H314  1  0.33738568  0.92206442  0.77515319  1
  H+  H315  1  0.83304833  0.66546161  0.43475717  1
  H+  H316  1  0.70239477  0.11479340  0.59523034  1
  H+  H317  1  0.59300222  0.81910078  0.87352743  1
  H+  H318  1  0.83733474  0.42097804  0.78199042  1
  H+  H319  1  0.64504728  0.06218848  0.22855473  1
  H+  H320  1  0.84098567  0.41351547  0.40450702  1
  H+  H321  1  0.14209268  0.61772161  0.82419831  1
  H+  H322  1  0.57779356  0.67927505  0.71499203  1
  H+  H323  1  0.47111384  0.12845733  0.94290177  1
  H+  H324  1  0.16693134  0.82800864  0.26677870  1
  H+  H325  1  0.13080646  0.56883530  0.96462670  1
  H+  H326  1  0.76232942  0.97710957  0.72680474  1
  H+  H327  1  0.69885312  0.04754650  0.47167447  1
  H+  H328  1  0.68567945  0.59932128  0.27201455  1
  H+  H329  1  0.11681385  0.05016033  0.59745529  1
  H+  H330  1  0.91856530  0.85863090  0.94312405  1
  H+  H331  1  0.87055769  0.19670944  0.10636121  1
  H+  H332  1  0.39934089  0.82860954  0.57326049  1
  H+  H333  1  0.17843912  0.08908053  0.93141255  1
  H+  H334  1  0.89384113  0.62587423  0.18537191  1
  H+  H335  1  0.40727629  0.56972208  0.88028387  1
  H+  H336  1  0.92518076  0.58905798  0.27889585  1
  H+  H337  1  0.72649271  0.87072702  0.50141163  1
  H+  H338  1  0.10133020  0.67091995  0.40085722  1
  H+  H339  1  0.39571247  0.78160497  0.83886252  1
  H+  H340  1  0.42175992  0.09806657  0.23228718  1
  H+  H341  1  0.08932918  0.67724794  0.76550887  1
  H+  H342  1  0.68572704  0.83303207  0.94067214  1
  H+  H343  1  0.39601068  0.81813034  0.93460720  1
  H+  H344  1  0.92966070  0.07717623  0.59401193  1
  H+  H345  1  0.14327366  0.37666731  0.33717426  1
  H+  H346  1  0.89834794  0.57415876  0.60859294  1
  H+  H347  1  0.36940568  0.75647349  -0.00549023  1
  H+  H348  1  0.02658470  0.60566807  0.47630276  1
  H+  H349  1  0.33214356  0.16038859  0.10175060  1
  H+  H350  1  0.63265268  0.87056079  0.64632266  1
  H+  H351  1  0.09304376  0.92848804  0.10761477  1
  H+  H352  1  0.10235384  0.44343730  0.40709650  1
  H+  H353  1  1.00441960  0.39587171  0.33928009  1
  H+  H354  1  0.16940813  0.58714011  0.23319957  1
  H+  H355  1  0.88071425  0.74775780  0.16224343  1
  H+  H356  1  0.33281393  0.92294332  0.39259818  1
  H+  H357  1  0.57750828  0.15769348  0.38956474  1
  H+  H358  1  0.31058815  0.41441911  0.74826457  1
  H+  H359  1  0.27876490  0.15806990  0.73676660  1
  H+  H360  1  0.41757147  0.60314285  0.55250099  1
  H+  H361  1  0.59770206  0.42276523  0.42862045  1
  H+  H362  1  0.84974939  0.67778969  0.10705866  1
  H+  H363  1  0.91552182  0.09353009  0.25297090  1
  H+  H364  1  0.93434379  0.34563469  0.56892466  1
  H+  H365  1  0.58737349  0.66973841  0.39376348  1
  H+  H366  1  0.92128664  0.84349740  0.23503385  1
  H+  H367  1  0.16141493  0.33001071  0.28189239  1
  H+  H368  1  0.45005024  0.36812345  0.58433390  1
  H+  H369  1  0.40701747  0.81795465  0.23878129  1
  H+  H370  1  0.73095105  0.40260591  0.61369370  1
  H+  H371  1  0.65369604  0.31555543  0.55448229  1
  H+  H372  1  0.87786615  0.15446438  0.82985725  1
  H+  H373  1  0.58705029  0.40585382  0.73066725  1
  H+  H374  1  0.92283001  0.13087132  0.51495101  1
  H+  H375  1  0.67193409  0.35217459  0.90812185  1
  H+  H376  1  0.89093928  1.04811901  0.00574401  1
  H+  H377  1  0.07225386  0.89554221  0.39535811  1
  H+  H378  1  0.07730071  0.41378863  0.73681177  1
  H+  H379  1  0.39322389  0.37591975  0.35542010  1
  H+  H380  1  0.83738797  0.91784335  0.40214077  1
  H+  H381  1  0.64707066  0.78906096  0.17694113  1
  H+  H382  1  0.67743759  0.32156864  0.24605150  1
  H+  H383  1  0.32835306  0.67244758  0.10403615  1
  O2-  O384  1  0.07751983  0.15262732  0.16378250  1
  O2-  O385  1  0.04362246  0.14543343  0.50096255  1
  O2-  O386  1  0.07744546  0.15573281  0.80854939  1
  O2-  O387  1  0.05752900  0.36011628  0.14496343  1
  O2-  O388  1  0.09677260  0.43731686  0.48177229  1
  O2-  O389  1  0.07579385  0.40910017  0.81359676  1
  O2-  O390  1  0.07598252  0.66341408  0.15121634  1
  O2-  O391  1  0.08481672  0.65361547  0.48216876  1
  O2-  O392  1  0.09305477  0.67202611  0.80937462  1
  O2-  O393  1  0.09209125  0.92294322  0.15271293  1
  O2-  O394  1  0.07696704  0.89870658  0.47701815  1
  O2-  O395  1  0.08018179  0.90720248  0.81912765  1
  O2-  O396  1  0.33290106  0.15939546  0.14799123  1
  O2-  O397  1  0.32893013  0.16487786  0.51306324  1
  O2-  O398  1  0.34074457  0.15374364  0.85115661  1
  O2-  O399  1  0.30773430  0.38130239  0.15353039  1
  O2-  O400  1  0.33354074  0.42256899  0.47983584  1
  O2-  O401  1  0.28428204  0.42850304  0.78155486  1
  O2-  O402  1  0.33415323  0.67330588  0.14947715  1
  O2-  O403  1  0.31867072  0.63746735  0.44255746  1
  O2-  O404  1  0.34360171  0.68015668  0.79895932  1
  O2-  O405  1  0.32120077  0.89391901  0.14072329  1
  O2-  O406  1  0.32788025  0.90293502  0.47901117  1
  O2-  O407  1  0.34007639  0.92132568  0.82010563  1
  O2-  O408  1  0.58049263  0.16450046  0.14469352  1
  O2-  O409  1  0.58710503  0.15433498  0.46695067  1
  O2-  O410  1  0.60197466  0.17246601  0.85536582  1
  O2-  O411  1  0.57102474  0.45276329  0.13958151  1
  O2-  O412  1  0.58725061  0.41611298  0.47360324  1
  O2-  O413  1  0.57032192  0.39781287  0.80343374  1
  O2-  O414  1  0.60169404  0.69033472  0.14974950  1
  O2-  O415  1  0.58697927  0.67308587  0.47057779  1
  O2-  O416  1  0.56629231  0.66477294  0.79617720  1
  O2-  O417  1  0.57290100  0.90729483  0.15450234  1
  O2-  O418  1  0.55136474  0.88244205  0.48011744  1
  O2-  O419  1  0.66870401  0.95816750  0.77456968  1
  O2-  O420  1  0.90303240  0.20999402  0.14569642  1
  O2-  O421  1  0.87520327  0.17445808  0.51967039  1
  O2-  O422  1  0.84772110  0.18388386  0.81284792  1
  O2-  O423  1  0.85056749  0.42569764  0.16780926  1
  O2-  O424  1  0.83164636  0.39844592  0.47391252  1
  O2-  O425  1  0.83823758  0.42868057  0.82659766  1
  O2-  O426  1  0.85054823  0.68478102  0.15173420  1
  O2-  O427  1  0.83037215  0.66770147  0.48005628  1
  O2-  O428  1  0.88815748  0.70902182  0.79932214  1
  O2-  O429  1  0.83612846  0.93280158  0.15744562  1
  O2-  O430  1  0.83706981  0.91775376  0.48169817  1
  O2-  O431  1  0.82678062  0.92415412  0.82576517  1
  O2-  O432  1  0.17927607  0.08334128  0.20286056  1
  O2-  O433  1  0.15560811  0.07987116  0.47314062  1
  O2-  O434  1  0.16185493  0.07410833  0.85678240  1
  O2-  O435  1  0.15982925  0.31695358  0.20140829  1
  O2-  O436  1  0.16401528  0.33251295  0.52626177  1
  O2-  O437  1  0.15677968  0.31414342  0.85295842  1
  O2-  O438  1  0.16682663  0.58470817  0.18719241  1
  O2-  O439  1  0.16788494  0.58868026  0.52442470  1
  O2-  O440  1  0.17564644  0.58775845  0.83433025  1
  O2-  O441  1  0.16630426  0.83010131  0.18672314  1
  O2-  O442  1  0.16414658  0.82555117  0.52001093  1
  O2-  O443  1  0.17059358  0.83333635  0.86498361  1
  O2-  O444  1  0.42096809  0.09602250  0.18490284  1
  O2-  O445  1  0.42335843  0.06983673  0.51769034  1
  O2-  O446  1  0.43815092  0.08974984  0.86548633  1
  O2-  O447  1  0.40170373  0.32455352  0.18790236  1
  O2-  O448  1  0.42322569  0.34030379  0.50273664  1
  O2-  O449  1  0.39806133  0.32194456  0.84695547  1
  O2-  O450  1  0.43295403  0.60137037  0.17235203  1
  O2-  O451  1  0.41863836  0.59623928  0.50717064  1
  O2-  O452  1  0.40713611  0.57818140  0.83659997  1
  O2-  O453  1  0.41397133  0.82956735  0.19394023  1
  O2-  O454  1  0.39363150  0.81939835  0.52511517  1
  O2-  O455  1  0.42079792  0.83616376  0.86214195  1
  O2-  O456  1  0.64680234  0.05919953  0.18278504  1
  O2-  O457  1  0.71581492  0.10797456  0.46750522  1
  O2-  O458  1  0.68897001  0.08718455  0.84717383  1
  O2-  O459  1  0.67484707  0.31718971  0.19976957  1
  O2-  O460  1  0.65661458  0.31788693  0.50981182  1
  O2-  O461  1  0.67101393  0.34796826  0.86188156  1
  O2-  O462  1  0.68994463  0.61454068  0.19444658  1
  O2-  O463  1  0.67097317  0.58928216  0.51540511  1
  O2-  O464  1  0.64915737  0.57619159  0.80759575  1
  O2-  O465  1  0.67064709  0.84907907  0.19335260  1
  O2-  O466  1  0.66553643  0.83943782  0.51550765  1
  O2-  O467  1  0.64085443  0.82930716  0.84704315  1
  O2-  O468  1  0.92162658  0.09093641  0.20757047  1
  O2-  O469  1  0.95204530  0.09123920  0.52054360  1
  O2-  O470  1  0.92049070  0.09456416  0.86206819  1
  O2-  O471  1  0.92946097  0.35437223  0.21166018  1
  O2-  O472  1  0.93519552  0.34185020  0.52419377  1
  O2-  O473  1  0.92013033  0.34827205  0.86793003  1
  O2-  O474  1  0.91918979  0.59223686  0.20267210  1
  O2-  O475  1  0.91131912  0.59955339  0.53843936  1
  O2-  O476  1  0.94176641  0.60037552  0.85314109  1
  O2-  O477  1  0.92516923  0.84842833  0.18916693  1
  O2-  O478  1  0.91473512  0.82890258  0.51467462  1
  O2-  O479  1  0.91688806  0.84699790  0.86694404  1
  O2-  O480  1  0.17073652  0.11445682  0.34068459  1
  O2-  O481  1  0.11989749  0.05338937  0.64170077  1
  O2-  O482  1  0.18586521  0.10055214  0.97643582  1
  O2-  O483  1  0.16749788  0.33896197  0.32668311  1
  O2-  O484  1  0.15199016  0.32341182  0.65136135  1
  O2-  O485  1  0.17199732  0.26396755  0.97231211  1
  O2-  O486  1  0.18447778  0.59943434  0.30748717  1
  O2-  O487  1  0.17050571  0.58558982  0.63993043  1
  O2-  O488  1  0.14353858  0.57992883  1.00777767  1
  O2-  O489  1  0.16642771  0.82826923  0.31200786  1
  O2-  O490  1  0.17534560  0.84001002  0.64450388  1
  O2-  O491  1  0.14381816  0.81116159  0.98855612  1
  O2-  O492  1  0.41910601  0.09789554  0.30080503  1
  O2-  O493  1  0.44069480  0.08428589  0.64050122  1
  O2-  O494  1  0.49019100  0.15383908  0.98380176  1
  O2-  O495  1  0.42585991  0.34566885  0.36590385  1
  O2-  O496  1  0.44899829  0.36761999  0.62946060  1
  O2-  O497  1  0.40268135  0.32163791  0.97432640  1
  O2-  O498  1  0.42926893  0.58621302  0.29944026  1
  O2-  O499  1  0.41784704  0.60503678  0.62846668  1
  O2-  O500  1  0.39312424  0.55940222  1.04571292  1
  O2-  O501  1  0.39886300  0.78911853  0.31523100  1
  O2-  O502  1  0.41039136  0.83827183  0.63778611  1
  O2-  O503  1  0.39580173  0.81733725  0.98073818  1
  O2-  O504  1  0.63858877  0.05878626  0.30301538  1
  O2-  O505  1  0.69039747  0.10435508  0.63871174  1
  O2-  O506  1  0.67684292  0.08804703  0.96512567  1
  O2-  O507  1  0.68048199  0.33256774  0.31835497  1
  O2-  O508  1  0.68446676  0.35534885  0.63630119  1
  O2-  O509  1  0.67682931  0.36228765  0.98169503  1
  O2-  O510  1  0.67928234  0.58960213  0.31687144  1
  O2-  O511  1  0.72473752  0.58888953  0.69881199  1
  O2-  O512  1  0.64820041  0.56679139  1.04341531  1
  O2-  O513  1  0.67105109  0.83744361  0.31715805  1
  O2-  O514  1  0.67029348  0.84623634  0.63693448  1
  O2-  O515  1  0.67232834  0.83972685  0.98269729  1
  O2-  O516  1  0.90563456  0.09139032  0.32926982  1
  O2-  O517  1  0.91812654  0.08271149  0.63870588  1
  O2-  O518  1  0.93005137  0.10781050  0.98832051  1
  O2-  O519  1  0.94254212  0.36258653  0.32375167  1
  O2-  O520  1  0.91900271  0.32703613  0.65367973  1
  O2-  O521  1  0.90816873  0.34362814  0.99242055  1
  O2-  O522  1  0.92677820  0.58664066  0.32449748  1
  O2-  O523  1  0.90042776  0.56334643  0.65403446  1
  O2-  O524  1  0.87392470  0.52206004  0.99362209  1
  O2-  O525  1  0.91509834  0.83122198  0.31018143  1
  O2-  O526  1  0.93425659  0.77224655  0.62393666  1
  O2-  O527  1  0.92334471  0.87019850  0.98824267  1
  O2-  O528  1  0.01243707  0.13528520  0.02088358  1
  O2-  O529  1  0.06976901  0.17809771  0.38019717  1
  O2-  O530  1  0.06236274  0.15668133  0.69132485  1
  O2-  O531  1  0.07374706  0.40702545  0.03310976  1
  O2-  O532  1  0.10126203  0.44063778  0.36099573  1
  O2-  O533  1  0.07772120  0.41568794  0.69102333  1
  O2-  O534  1  0.03604478  0.63499714  0.03135166  1
  O2-  O535  1  0.09869093  0.67004191  0.35562248  1
  O2-  O536  1  0.08176820  0.66418138  0.64770659  1
  O2-  O537  1  0.09524832  0.93363933  0.02680513  1
  O2-  O538  1  0.07152755  0.90021260  0.35056895  1
  O2-  O539  1  0.06843143  0.88868207  0.69489890  1
  O2-  O540  1  0.34833230  0.16865816  0.02825768  1
  O2-  O541  1  0.34271575  0.17422489  0.36273470  1
  O2-  O542  1  0.37479517  0.19164179  0.63490280  1
  O2-  O543  1  0.30933010  0.38410056  0.03606309  1
  O2-  O544  1  0.33754325  0.42970179  0.35724710  1
  O2-  O545  1  0.33733466  0.42603449  0.64841907  1
  O2-  O546  1  0.31598370  0.65755803  0.02898543  1
  O2-  O547  1  0.36374315  0.69696284  0.32860192  1
  O2-  O548  1  0.33399397  0.67875085  0.67704112  1
  O2-  O549  1  0.30584240  0.88010753  0.03128788  1
  O2-  O550  1  0.32829987  0.92464346  0.34815959  1
  O2-  O551  1  0.33960847  0.92176972  0.68999642  1
  O2-  O552  1  0.64455481  0.28088846  0.01571024  1
  O2-  O553  1  0.57865704  0.16217182  0.34424835  1
  O2-  O554  1  0.61076378  0.18804404  0.68225056  1
  O2-  O555  1  0.56907199  0.40591951  0.00564199  1
  O2-  O556  1  0.60290138  0.42402690  0.35082989  1
  O2-  O557  1  0.60197354  0.42199804  0.68610361  1
  O2-  O558  1  0.57394532  0.66582880  0.03006609  1
  O2-  O559  1  0.58979167  0.66930763  0.34809729  1
  O2-  O560  1  0.58448003  0.68754681  0.67046253  1
  O2-  O561  1  0.56631346  0.90538212  -0.03843827  1
  O2-  O562  1  0.56380572  0.89198449  0.35039645  1
  O2-  O563  1  0.58169499  0.92812656  0.66915242  1
  O2-  O564  1  0.83230771  0.18056177  0.03219756  1
  O2-  O565  1  0.79007891  0.14662561  0.36391754  1
  O2-  O566  1  0.84168707  0.18140719  0.69719987  1
  O2-  O567  1  0.83024700  0.43813778  0.02440961  1
  O2-  O568  1  0.84571466  0.41937904  0.35789387  1
  O2-  O569  1  0.84136619  0.40658419  0.70060292  1
  O2-  O570  1  0.81680988  0.63121071  0.03228747  1
  O2-  O571  1  0.84124215  0.67043514  0.35740868  1
  O2-  O572  1  0.78975899  0.57498159  0.72938082  1
  O2-  O573  1  0.83466135  0.94695205  0.03117313  1
  O2-  O574  1  0.83903591  0.92199333  0.35687721  1
  O2-  O575  1  0.79942225  0.96055484  0.70389451  1
