# generated using pymatgen
data_H2O
_symmetry_space_group_name_H-M   'P 1'
_cell_length_a   17.98607294
_cell_length_b   17.98563282
_cell_length_c   22.00249324
_cell_angle_alpha   90.01468509
_cell_angle_beta   90.00022947
_cell_angle_gamma   119.99040932
_symmetry_Int_Tables_number   1
_chemical_formula_structural   H2O
_chemical_formula_sum   'H384 O192'
_cell_volume   6164.62332332
_cell_formula_units_Z   192
loop_
 _symmetry_equiv_pos_site_id
 _symmetry_equiv_pos_as_xyz
  1  'x, y, z'
loop_
 _atom_type_symbol
 _atom_type_oxidation_number
  H+  1.0
  O2-  -2.0
loop_
 _atom_site_type_symbol
 _atom_site_label
 _atom_site_symmetry_multiplicity
 _atom_site_fract_x
 _atom_site_fract_y
 _atom_site_fract_z
 _atom_site_occupancy
  H+  H0  1  0.62267165  0.76947349  0.16771575  1
  H+  H1  1  -0.01851992  0.34346868  0.00655542  1
  H+  H2  1  0.27866952  0.63587127  0.49354769  1
  H+  H3  1  0.13367601  -0.00630454  0.67459025  1
  H+  H4  1  0.98016660  0.14061480  0.18449906  1
  H+  H5  1  0.34135563  0.16985363  0.77193152  1
  H+  H6  1  0.01243902  0.89230663  0.00017707  1
  H+  H7  1  0.36347437  -0.01912928  1.01031945  1
  H+  H8  1  0.93229453  0.84763607  0.60630006  1
  H+  H9  1  0.18567052  0.09067436  0.22959043  1
  H+  H10  1  0.64322173  0.36745778  -0.00483515  1
  H+  H11  1  0.61453369  0.59081768  0.32698055  1
  H+  H12  1  0.52608989  0.88985704  0.01241730  1
  H+  H13  1  0.86005552  0.46646996  0.67870055  1
  H+  H14  1  0.13443842  0.27288383  0.33326322  1
  H+  H15  1  0.89647289  0.30245004  0.28139757  1
  H+  H16  1  0.57770640  0.44454417  0.34407288  1
  H+  H17  1  0.38416879  0.27837959  0.50130445  1
  H+  H18  1  0.49291435  0.86569250  0.18300395  1
  H+  H19  1  0.16364546  0.08817281  0.93538013  1
  H+  H20  1  0.16516901  0.13231504  0.66061263  1
  H+  H21  1  0.74577599  0.61475966  0.67395338  1
  H+  H22  1  0.48284720  0.87192061  0.82750333  1
  H+  H23  1  0.59265706  0.63178148  0.15390078  1
  H+  H24  1  0.13665772  0.11874286  0.99590949  1
  H+  H25  1  0.12427527  0.78222009  0.99240519  1
  H+  H26  1  0.38619152  0.75484707  0.17670755  1
  H+  H27  1  0.27628523  0.89283632  0.49435504  1
  H+  H28  1  0.27906167  0.13206654  0.34673762  1
  H+  H29  1  0.62701623  1.03001309  0.34318984  1
  H+  H30  1  0.81927124  0.90168712  0.73006563  1
  H+  H31  1  0.47291841  0.36529186  0.50611899  1
  H+  H32  1  0.61349188  0.38393270  0.50119105  1
  H+  H33  1  0.76632402  0.13547739  0.83659143  1
  H+  H34  1  0.14321183  0.28007442  0.51157325  1
  H+  H35  1  0.38480330  0.51546302  0.99171608  1
  H+  H36  1  0.12168028  0.23641023  1.00837564  1
  H+  H37  1  0.14519527  0.52415199  0.65870308  1
  H+  H38  1  0.27010412  0.90198295  0.16305248  1
  H+  H39  1  0.88291042  0.50985192  0.15929305  1
  H+  H40  1  0.87870015  0.10998325  0.67273120  1
  H+  H41  1  0.22512254  0.36568156  0.83974972  1
  H+  H42  1  1.02778710  0.15860205  1.01612944  1
  H+  H43  1  0.27621954  0.37720573  0.16560717  1
  H+  H44  1  0.37873414  0.25457848  0.16781928  1
  H+  H45  1  0.02315853  0.13671001  0.34747256  1
  H+  H46  1  0.84613389  0.96379058  0.49934706  1
  H+  H47  1  0.86705785  0.57513751  0.00604832  1
  H+  H48  1  0.62214919  0.71599091  0.33027729  1
  H+  H49  1  0.13918088  0.51678537  0.50956879  1
  H+  H50  1  0.35938381  0.47125747  0.33684033  1
  H+  H51  1  0.28263779  0.65895209  0.16698557  1
  H+  H52  1  0.65463556  0.83235166  0.89554569  1
  H+  H53  1  0.11405103  0.24992783  0.16689497  1
  H+  H54  1  0.88941654  0.61643900  0.35883499  1
  H+  H55  1  0.38555373  0.27478233  0.99187303  1
  H+  H56  1  0.61843835  0.14809228  0.01330061  1
  H+  H57  1  0.91944030  0.37427471  0.16775158  1
  H+  H58  1  0.11025411  0.65144311  -0.00653068  1
  H+  H59  1  0.27679862  0.14001888  0.00735938  1
  H+  H60  1  0.38200400  0.27082296  0.83893456  1
  H+  H61  1  0.62974803  0.85731458  0.65675981  1
  H+  H62  1  0.92584026  0.06257551  0.91472790  1
  H+  H63  1  0.47581830  0.11223386  0.84616121  1
  H+  H64  1  0.89119606  0.75143993  0.35012109  1
  H+  H65  1  0.58921554  0.92747467  0.11083118  1
  H+  H66  1  0.85824493  0.96954935  0.82008925  1
  H+  H67  1  0.17832073  0.40586690  0.66376100  1
  H+  H68  1  0.61037540  0.98193175  0.01271341  1
  H+  H69  1  0.62641088  0.91502992  0.37747649  1
  H+  H70  1  0.84024885  0.61072033  0.67288417  1
  H+  H71  1  0.65241596  0.28431029  1.00051593  1
  H+  H72  1  0.35841771  0.11590307  0.34398250  1
  H+  H73  1  0.61019981  0.23617237  0.33263922  1
  H+  H74  1  0.08852342  0.74830780  0.68187922  1
  H+  H75  1  0.47420759  0.36395529  -0.01142176  1
  H+  H76  1  0.39607206  0.12260009  0.99603039  1
  H+  H77  1  0.36464882  0.38384207  1.00684843  1
  H+  H78  1  0.12727942  0.89361140  0.33694833  1
  H+  H79  1  0.76460847  0.12652621  0.35402824  1
  H+  H80  1  0.13782047  0.55456203  0.97271372  1
  H+  H81  1  0.87907073  0.76913563  0.97792707  1
  H+  H82  1  0.60998420  0.73183565  0.66019426  1
  H+  H83  1  0.27157937  0.89820235  0.00888335  1
  H+  H84  1  0.16210187  0.38172595  0.18392335  1
  H+  H85  1  0.11173433  0.45768057  0.02786593  1
  H+  H86  1  0.14746432  0.03236314  0.50911632  1
  H+  H87  1  0.03570540  0.39514296  0.66926520  1
  H+  H88  1  0.88915672  0.26611448  0.51410716  1
  H+  H89  1  0.84653384  0.96293438  0.67289373  1
  H+  H90  1  0.59992421  0.89942594  0.51930636  1
  H+  H91  1  0.51755276  0.63504950  0.81632667  1
  H+  H92  1  0.82825207  0.69154954  0.16031368  1
  H+  H93  1  0.85948293  0.22518850  0.84089129  1
  H+  H94  1  0.38341438  0.15261917  0.68158945  1
  H+  H95  1  0.02462875  0.46518911  0.79231052  1
  H+  H96  1  0.00136948  0.85834336  0.48992208  1
  H+  H97  1  0.62967043  0.77503562  0.83432288  1
  H+  H98  1  0.14296106  0.61937574  0.16901764  1
  H+  H99  1  0.92403376  0.70975119  0.03396446  1
  H+  H100  1  0.35950878  0.13399916  0.83367780  1
  H+  H101  1  0.85576120  0.72091469  0.81792955  1
  H+  H102  1  0.86997143  0.59487595  0.84446216  1
  H+  H103  1  0.11402285  0.38617100  0.49585018  1
  H+  H104  1  0.97731828  0.11239980  0.82604561  1
  H+  H105  1  0.11600659  0.14074882  0.50064676  1
  H+  H106  1  0.39395471  0.03080414  0.16946190  1
  H+  H107  1  0.49318618  0.62905289  0.65194980  1
  H+  H108  1  0.13711282  0.36608708  0.84239122  1
  H+  H109  1  0.13205092  0.51793236  0.32441927  1
  H+  H110  1  0.33492832  0.92189077  0.43372704  1
  H+  H111  1  0.62811825  0.86774146  0.99552028  1
  H+  H112  1  0.95512264  0.61527594  0.67079743  1
  H+  H113  1  0.09442664  0.40607015  0.08840577  1
  H+  H114  1  0.13796937  0.74468626  0.82859268  1
  H+  H115  1  0.97484469  0.35983364  0.84909909  1
  H+  H116  1  0.88110039  0.10550667  0.51534157  1
  H+  H117  1  0.02500201  0.13672167  0.50237096  1
  H+  H118  1  0.85462004  0.12535939  0.35417766  1
  H+  H119  1  0.16519003  0.83184839  0.26934551  1
  H+  H120  1  0.47519046  0.11060327  0.66992952  1
  H+  H121  1  -0.02295594  0.35915243  0.50995054  1
  H+  H122  1  0.37650453  0.35645201  0.31896937  1
  H+  H123  1  0.12903218  0.77489005  0.17292269  1
  H+  H124  1  0.60574336  0.72795519  -0.00092658  1
  H+  H125  1  0.63744784  0.83852212  0.31436815  1
  H+  H126  1  0.38880719  0.76917144  0.33312255  1
  H+  H127  1  0.41593625  0.07987305  0.61037571  1
  H+  H128  1  0.84942664  0.95746957  -0.00465207  1
  H+  H129  1  0.14442771  0.12220421  0.32717422  1
  H+  H130  1  0.04035106  0.64384316  0.49618439  1
  H+  H131  1  0.62225294  -0.01163081  0.17006846  1
  H+  H132  1  0.41581719  0.57149129  0.89314676  1
  H+  H133  1  0.89715802  0.78729969  0.19334864  1
  H+  H134  1  0.07891407  0.18802051  0.10855889  1
  H+  H135  1  0.47213227  0.60549604  0.98763039  1
  H+  H136  1  0.95836102  0.09424652  0.67528971  1
  H+  H137  1  0.60918880  0.22461804  0.68208240  1
  H+  H138  1  0.85917889  0.36072528  0.50382915  1
  H+  H139  1  1.02455569  0.63311987  0.14727912  1
  H+  H140  1  0.60926246  0.13632421  0.68629606  1
  H+  H141  1  0.23857572  0.11891072  0.50658773  1
  H+  H142  1  0.62243631  0.51039526  0.82695031  1
  H+  H143  1  0.27566575  0.38468557  1.00944914  1
  H+  H144  1  0.60719021  0.63976659  0.80709476  1
  H+  H145  1  0.85869340  0.37539160  0.83493409  1
  H+  H146  1  0.38467932  0.51558276  0.83151812  1
  H+  H147  1  0.36302420  0.35708463  0.15989582  1
  H+  H148  1  0.61333066  0.21637287  0.16153403  1
  H+  H149  1  0.09107203  0.43501388  0.72911545  1
  H+  H150  1  0.01285176  0.73087753  0.72580480  1
  H+  H151  1  0.83420492  0.14570144  -0.07746435  1
  H+  H152  1  0.62813957  0.37206839  0.17087978  1
  H+  H153  1  0.15103198  0.77242310  0.51154820  1
  H+  H154  1  0.51965805  0.88894303  0.67120687  1
  H+  H155  1  0.88755225  0.90841949  0.16236634  1
  H+  H156  1  0.27177582  0.63141274  0.33597707  1
  H+  H157  1  0.16161961  0.63574947  0.82822541  1
  H+  H158  1  0.39413341  0.62404668  0.65130085  1
  H+  H159  1  0.61848683  0.03456409  0.52370554  1
  H+  H160  1  0.89752010  0.63756326  0.51544891  1
  H+  H161  1  0.86109619  0.45762965  0.36312464  1
  H+  H162  1  0.92387106  0.32980336  0.91262207  1
  H+  H163  1  0.08856932  0.67052622  0.09284314  1
  H+  H164  1  0.87504124  0.77264107  0.51600672  1
  H+  H165  1  0.37982016  0.13900159  0.15714849  1
  H+  H166  1  -0.02728448  0.85845783  0.82794989  1
  H+  H167  1  0.77874311  0.15807503  0.20234832  1
  H+  H168  1  0.87986960  0.86355517  0.51015853  1
  H+  H169  1  0.60981893  0.22788945  0.83619613  1
  H+  H170  1  0.22372417  0.36219813  0.33566202  1
  H+  H171  1  0.33140693  0.40006871  0.09844037  1
  H+  H172  1  0.61012316  0.97780079  0.67328477  1
  H+  H173  1  0.63273953  0.11920590  0.17370619  1
  H+  H174  1  0.78714875  0.42219034  -0.00232738  1
  H+  H175  1  0.60120166  0.68167455  0.39616217  1
  H+  H176  1  0.62528921  0.60805108  0.65989240  1
  H+  H177  1  0.28093236  0.64946332  -0.00959416  1
  H+  H178  1  0.28500249  0.13126573  0.15919730  1
  H+  H179  1  0.76335751  0.63353626  0.82161762  1
  H+  H180  1  0.47261847  0.10542655  0.31838896  1
  H+  H181  1  0.23009361  0.86266546  0.32728823  1
  H+  H182  1  0.27345217  0.88918131  0.68447601  1
  H+  H183  1  0.88634579  0.10961676  0.83434735  1
  H+  H184  1  0.73863784  0.62120632  0.00370385  1
  H+  H185  1  0.88159535  0.85644488  0.82735677  1
  H+  H186  1  0.50682601  0.89015988  0.51366483  1
  H+  H187  1  0.01658603  0.37856159  0.34397676  1
  H+  H188  1  0.23334937  0.87739275  0.84794385  1
  H+  H189  1  0.28663147  0.40288169  0.49182312  1
  H+  H190  1  0.45333751  0.33696759  0.32265783  1
  H+  H191  1  0.71146962  0.85849167  0.98641961  1
  H+  H192  1  0.38432561  0.88530952  0.83206200  1
  H+  H193  1  0.84256721  0.86747124  -0.01096831  1
  H+  H194  1  0.45863749  0.30806852  0.67791987  1
  H+  H195  1  0.71610244  0.85291547  0.65572231  1
  H+  H196  1  0.00184547  0.87907609  0.32852688  1
  H+  H197  1  0.50281591  0.36661907  0.15427583  1
  H+  H198  1  0.38144606  0.86260591  0.66658025  1
  H+  H199  1  0.97839533  0.69225257  0.55476152  1
  H+  H200  1  0.40331096  0.75527573  -0.02604633  1
  H+  H201  1  0.18583898  0.35100943  0.56503196  1
  H+  H202  1  0.60781559  0.38063565  0.82781604  1
  H+  H203  1  0.69732057  0.80664284  0.47821124  1
  H+  H204  1  0.92391561  0.76821939  0.20495895  1
  H+  H205  1  0.83250718  0.60662756  0.15355057  1
  H+  H206  1  0.79792424  0.67389751  0.34910459  1
  H+  H207  1  0.72543762  0.36114115  0.32797939  1
  H+  H208  1  0.75361156  0.84502903  0.14686415  1
  H+  H209  1  0.63424873  0.12136647  0.33779837  1
  H+  H210  1  0.47632326  0.85931220  0.34255429  1
  H+  H211  1  1.02525620  0.92589582  0.16050715  1
  H+  H212  1  0.40029811  0.53330875  0.50162141  1
  H+  H213  1  0.11533885  0.14110637  0.82427890  1
  H+  H214  1  0.08620891  0.21239305  0.66657039  1
  H+  H215  1  0.91084101  0.04283029  0.18760659  1
  H+  H216  1  0.13169247  0.02619746  0.83971908  1
  H+  H217  1  0.48674045  0.09965770  0.52209323  1
  H+  H218  1  0.36368691  -0.02730370  0.33537561  1
  H+  H219  1  0.46231972  0.61543604  0.16525185  1
  H+  H220  1  0.90823801  0.28545861  0.19170801  1
  H+  H221  1  0.14712597  1.03534194  0.32550466  1
  H+  H222  1  0.63734614  0.35799724  0.66223968  1
  H+  H223  1  0.87362071  0.25365173  0.34412340  1
  H+  H224  1  0.72766107  0.35803351  0.66765940  1
  H+  H225  1  0.85663905  0.46366898  0.83057212  1
  H+  H226  1  0.11388676  0.89292801  0.82764507  1
  H+  H227  1  0.79115034  0.36027844  0.14566206  1
  H+  H228  1  0.30707261  0.17047630  0.67716071  1
  H+  H229  1  0.86497075  0.11245838  -0.02309905  1
  H+  H230  1  0.64272168  0.25232709  0.52396731  1
  H+  H231  1  0.36282783  0.97885148  0.68260748  1
  H+  H232  1  0.10232135  0.98078362  0.00533778  1
  H+  H233  1  0.13391388  0.48938448  0.16554815  1
  H+  H234  1  0.60023693  0.37022767  0.34335089  1
  H+  H235  1  0.87224973  0.88974102  0.34231177  1
  H+  H236  1  0.36561421  0.72880327  0.66935099  1
  H+  H237  1  0.39243853  1.02208612  0.51210579  1
  H+  H238  1  0.72729231  0.41951011  0.17887063  1
  H+  H239  1  0.01202423  0.62187475  0.00395701  1
  H+  H240  1  0.86345390  0.15112772  0.20753431  1
  H+  H241  1  0.04717445  0.39577064  0.17283967  1
  H+  H242  1  0.37916525  0.98530487  0.83640643  1
  H+  H243  1  0.76914465  0.13889687  0.50730262  1
  H+  H244  1  0.14341218  0.60914276  0.51066597  1
  H+  H245  1  0.35408873  0.37878791  0.81773129  1
  H+  H246  1  0.69171404  0.59041291  0.16764418  1
  H+  H247  1  0.77924599  0.87950747  0.33610410  1
  H+  H248  1  0.61387086  0.47511868  0.00759315  1
  H+  H249  1  0.72174069  0.10408590  0.98678753  1
  H+  H250  1  0.12088142  0.85931543  0.17737442  1
  H+  H251  1  0.63151683  0.02450799  0.83724648  1
  H+  H252  1  0.35860604  0.62958808  -0.00660751  1
  H+  H253  1  0.89671597  0.25644110  -0.01098914  1
  H+  H254  1  0.48634205  0.12500172  -0.00064791  1
  H+  H255  1  0.13754935  0.60946394  0.32618847  1
  H+  H256  1  0.68329857  0.56052959  0.31513828  1
  H+  H257  1  0.36846198  0.64738001  0.16560714  1
  H+  H258  1  0.51610514  0.37795582  0.82481839  1
  H+  H259  1  0.14617188  0.87777761  0.66292843  1
  H+  H260  1  0.75706287  0.35307185  0.50682748  1
  H+  H261  1  0.65295617  0.07776110  0.93601392  1
  H+  H262  1  0.12586103  0.87169792  0.99367962  1
  H+  H263  1  0.14087872  0.36157677  0.00449819  1
  H+  H264  1  0.47225991  0.60672527  0.32482117  1
  H+  H265  1  0.88682493  1.02394675  0.33511207  1
  H+  H266  1  0.36915603  0.13977227  0.50247009  1
  H+  H267  1  0.38113985  0.77480389  0.50673364  1
  H+  H268  1  0.63478765  0.52519316  0.50711179  1
  H+  H269  1  1.03216991  0.64049300  0.35138251  1
  H+  H270  1  0.72347383  0.35939969  0.84131957  1
  H+  H271  1  0.76705304  0.88253418  0.82602986  1
  H+  H272  1  0.89921768  0.87088229  0.66520889  1
  H+  H273  1  0.57354090  0.92963989  0.42676281  1
  H+  H274  1  0.15417916  0.02762947  0.17247808  1
  H+  H275  1  0.57361941  0.66976745  0.72034068  1
  H+  H276  1  0.24357648  0.61968257  0.83079453  1
  H+  H277  1  0.61625603  0.64458659  1.00011859  1
  H+  H278  1  0.58413762  0.46152044  0.15365626  1
  H+  H279  1  0.98186717  0.05574069  0.96761642  1
  H+  H280  1  0.24237376  0.61636256  0.65670445  1
  H+  H281  1  0.89453664  0.36155253  0.66707724  1
  H+  H282  1  0.72570323  0.11781749  0.67261456  1
  H+  H283  1  0.84661839  0.41865662  0.09059476  1
  H+  H284  1  0.36357242  0.88407825  0.34279185  1
  H+  H285  1  0.61029246  0.88858024  0.82249769  1
  H+  H286  1  0.37651428  0.72528655  0.81763162  1
  H+  H287  1  0.38445255  0.60817952  0.32490685  1
  H+  H288  1  0.13458000  0.85080817  0.50925335  1
  H+  H289  1  0.91879075  0.09075217  0.27939717  1
  H+  H290  1  0.80299741  0.22183787  0.08691074  1
  H+  H291  1  0.10546108  0.18855697  0.73351787  1
  H+  H292  1  0.18372083  0.34240640  0.24264083  1
  H+  H293  1  0.34389542  0.92337259  0.77248404  1
  H+  H294  1  0.57366176  0.40834772  0.06245078  1
  H+  H295  1  0.17163888  0.83613297  0.60737145  1
  H+  H296  1  0.76624444  0.63286126  0.50163742  1
  H+  H297  1  0.40650051  0.83383279  0.60407584  1
  H+  H298  1  0.90834117  0.58167487  0.60741566  1
  H+  H299  1  0.37083297  0.64414050  0.49040705  1
  H+  H300  1  0.49543976  0.79478704  0.94322598  1
  H+  H301  1  0.09237799  0.68491793  0.77113538  1
  H+  H302  1  0.92137759  0.58235626  0.20982145  1
  H+  H303  1  0.83794502  0.66101056  0.07072116  1
  H+  H304  1  0.40452371  0.32010503  0.22886603  1
  H+  H305  1  0.18990670  0.09728627  0.60264953  1
  H+  H306  1  0.58207544  0.91863712  0.76165867  1
  H+  H307  1  0.08987157  0.92530756  0.76665478  1
  H+  H308  1  0.11280263  0.22917603  0.82763092  1
  H+  H309  1  0.07267803  0.91895316  0.10180771  1
  H+  H310  1  0.37485718  0.63433318  0.82107400  1
  H+  H311  1  0.02503474  0.80304633  0.44794814  1
  H+  H312  1  0.59002156  0.17245276  0.07678091  1
  H+  H313  1  0.66212833  0.57972212  0.56809891  1
  H+  H314  1  0.93564171  0.83367630  0.27327339  1
  H+  H315  1  0.93640175  0.94610942  0.22631521  1
  H+  H316  1  0.55655970  0.18632459  0.39026497  1
  H+  H317  1  0.65615192  0.08726880  0.23794325  1
  H+  H318  1  0.63893581  0.86690743  0.17380526  1
  H+  H319  1  0.66926797  0.33731862  0.90299988  1
  H+  H320  1  0.37866602  0.86406458  0.50691138  1
  H+  H321  1  0.37241113  0.39658124  0.49145014  1
  H+  H322  1  0.10758969  0.38263123  0.34317489  1
  H+  H323  1  0.41863873  0.08116101  0.90689523  1
  H+  H324  1  0.81487869  0.64906040  0.73622411  1
  H+  H325  1  0.22265938  0.11314019  0.84010321  1
  H+  H326  1  0.31022195  0.40157452  0.76184037  1
  H+  H327  1  0.80743716  0.86926162  0.08510294  1
  H+  H328  1  0.21895383  0.30478764  0.68497082  1
  H+  H329  1  0.42507752  0.59351775  0.58803020  1
  H+  H330  1  0.57327418  0.40441784  0.73217148  1
  H+  H331  1  0.32721611  0.92498205  0.10331441  1
  H+  H332  1  0.81910071  0.38443555  0.44089206  1
  H+  H333  1  0.57211416  0.66799392  0.09394343  1
  H+  H334  1  0.04018367  0.90649447  0.67281918  1
  H+  H335  1  0.57826009  0.16903106  0.77622149  1
  H+  H336  1  0.83370075  0.40561844  0.73773205  1
  H+  H337  1  0.67283948  0.82056235  0.25472455  1
  H+  H338  1  0.43247555  0.83337968  0.24403995  1
  H+  H339  1  0.48780529  0.62786318  0.50784152  1
  H+  H340  1  0.92292322  0.32946018  0.60840243  1
  H+  H341  1  0.33752739  0.41856834  0.39879855  1
  H+  H342  1  0.89930628  0.56550907  0.30602374  1
  H+  H343  1  0.41670514  0.07716206  0.25808867  1
  H+  H344  1  0.90835344  0.82588632  0.91714999  1
  H+  H345  1  0.67137224  0.32203710  0.57691294  1
  H+  H346  1  0.91000092  0.07400889  0.57281970  1
  H+  H347  1  0.83334824  0.16882334  0.74387079  1
  H+  H348  1  0.16847880  0.33856609  0.93972370  1
  H+  H349  1  0.49106701  0.11684522  0.16899852  1
  H+  H350  1  0.58190025  0.40688551  0.44002266  1
  H+  H351  1  0.62847511  0.56113722  0.22527887  1
  H+  H352  1  0.17805751  0.58206230  0.59217877  1
  H+  H353  1  0.82505163  0.15727313  0.44689321  1
  H+  H354  1  0.33858160  0.16911671  0.06583354  1
  H+  H355  1  0.41262675  0.33619254  0.89464731  1
  H+  H356  1  0.61577064  0.13542387  0.46413084  1
  H+  H357  1  0.33010116  0.66100908  0.39625872  1
  H+  H358  1  0.62118678  0.51528250  0.66211392  1
  H+  H359  1  0.88975774  0.55628101  0.90337435  1
  H+  H360  1  0.33565535  0.15513834  0.43862395  1
  H+  H361  1  0.12113754  0.72927817  0.34204394  1
  H+  H362  1  0.08505711  0.16763573  0.40505888  1
  H+  H363  1  0.66521410  0.09719865  0.61430091  1
  H+  H364  1  0.42741364  0.83148492  0.88909023  1
  H+  H365  1  0.70428339  0.58423895  0.94040818  1
  H+  H366  1  0.40715581  0.58355150  0.22584876  1
  H+  H367  1  0.16664334  0.84519210  0.90317355  1
  H+  H368  1  0.08122356  0.41533397  0.43721530  1
  H+  H369  1  0.11547740  0.50267714  0.82088471  1
  H+  H370  1  0.17102120  0.59062748  0.23060234  1
  H+  H371  1  0.62135136  0.57143901  0.87803364  1
  H+  H372  1  0.67256654  0.34700941  0.26505177  1
  H+  H373  1  0.83218106  0.67305807  0.44491803  1
  H+  H374  1  0.79493639  0.17667716  0.08538425  1
  H+  H375  1  0.82854861  0.91214457  0.43745204  1
  H+  H376  1  0.34170649  0.66361878  0.72604795  1
  H+  H377  1  0.85484910  0.36549786  0.35044965  1
  H+  H378  1  0.17924574  0.61281164  0.91651867  1
  H+  H379  1  0.09132346  0.91775368  0.39574001  1
  H+  H380  1  0.63105644  0.11381403  0.84191855  1
  H+  H381  1  0.63068755  0.66337547  0.51100137  1
  H+  H382  1  0.10056708  0.66811752  0.43702596  1
  H+  H383  1  0.86808982  0.22794852  0.68408050  1
  O2-  O384  1  0.06358871  0.19900862  0.14908120  1
  O2-  O385  1  0.08497876  0.17078101  0.48711182  1
  O2-  O386  1  0.08554752  0.17172333  0.80757449  1
  O2-  O387  1  0.10825149  0.42655601  0.15627662  1
  O2-  O388  1  0.08173576  0.41594019  0.48289066  1
  O2-  O389  1  0.06687206  0.44789952  0.80213510  1
  O2-  O390  1  0.08641457  0.66683394  0.13825994  1
  O2-  O391  1  0.10062027  0.66703042  0.48281825  1
  O2-  O392  1  0.12110864  0.68794135  0.80993512  1
  O2-  O393  1  0.07463485  0.91951736  0.14693679  1
  O2-  O394  1  0.05151999  0.85950564  0.46720687  1
  O2-  O395  1  0.08080411  0.91999875  0.81187496  1
  O2-  O396  1  0.34555665  0.16632527  0.14164418  1
  O2-  O397  1  0.33532736  0.16381808  0.48465258  1
  O2-  O398  1  0.33055837  0.16436093  0.81714512  1
  O2-  O399  1  0.33377236  0.39468857  0.14437022  1
  O2-  O400  1  0.34672668  0.43319710  0.47696146  1
  O2-  O401  1  0.32227866  0.40939620  0.80610358  1
  O2-  O402  1  0.34491846  0.68858979  0.15517325  1
  O2-  O403  1  0.33722339  0.67150309  0.47635036  1
  O2-  O404  1  0.34641739  0.66531795  0.80276545  1
  O2-  O405  1  0.32967803  0.93161668  0.14850403  1
  O2-  O406  1  0.33677203  0.92204842  0.47946848  1
  O2-  O407  1  0.35017767  0.92271874  0.81892351  1
  O2-  O408  1  0.58574020  0.15838503  0.14495719  1
  O2-  O409  1  0.60538736  0.13651171  0.50811331  1
  O2-  O410  1  0.57850880  0.16668516  0.82178826  1
  O2-  O411  1  0.56375129  0.40176464  0.13894900  1
  O2-  O412  1  0.58959409  0.41844736  0.48482618  1
  O2-  O413  1  0.57696643  0.40883367  0.80928369  1
  O2-  O414  1  0.56899077  0.66819804  0.13918835  1
  O2-  O415  1  0.60466935  0.70107710  0.51441861  1
  O2-  O416  1  0.57613802  0.67091482  0.79781880  1
  O2-  O417  1  0.59355452  0.92623940  0.15593536  1
  O2-  O418  1  0.57059867  0.92874157  0.50349765  1
  O2-  O419  1  0.57997075  0.91917900  0.80757386  1
  O2-  O420  1  0.84036674  0.19015781  0.21483515  1
  O2-  O421  1  0.82873979  0.16298998  0.49275023  1
  O2-  O422  1  0.82980551  0.16323423  0.82773104  1
  O2-  O423  1  0.84702202  0.40982288  0.13542192  1
  O2-  O424  1  0.81989336  0.38347916  0.48754669  1
  O2-  O425  1  0.82930674  0.40299755  0.81435077  1
  O2-  O426  1  0.79931350  0.63502995  0.14028971  1
  O2-  O427  1  0.82902889  0.66648386  0.48971232  1
  O2-  O428  1  0.82240966  0.65865501  0.80498447  1
  O2-  O429  1  0.80410753  0.84669157  0.12681657  1
  O2-  O430  1  0.81971161  0.90463077  0.48215346  1
  O2-  O431  1  0.82619080  0.90759312  0.80876599  1
  O2-  O432  1  0.19090612  0.08820818  0.18482798  1
  O2-  O433  1  0.17703509  0.09168566  0.52318727  1
  O2-  O434  1  0.16181830  0.08708961  0.85443028  1
  O2-  O435  1  0.18984357  0.34777361  0.19715639  1
  O2-  O436  1  0.17374772  0.34288251  0.52083865  1
  O2-  O437  1  0.16544933  0.33570961  0.85794442  1
  O2-  O438  1  0.17751743  0.59427759  0.18527007  1
  O2-  O439  1  0.17247463  0.57742912  0.52621682  1
  O2-  O440  1  0.18348884  0.59681142  0.84568915  1
  O2-  O441  1  0.15272344  0.83138982  0.19328801  1
  O2-  O442  1  0.17358046  0.83231317  0.52686280  1
  O2-  O443  1  0.17160522  0.84641079  0.85729109  1
  O2-  O444  1  0.42881914  0.09174478  0.18525498  1
  O2-  O445  1  0.42613474  0.08014150  0.53139985  1
  O2-  O446  1  0.41487945  0.07588620  0.86076140  1
  O2-  O447  1  0.40482591  0.31800794  0.18193683  1
  O2-  O448  1  0.41086271  0.33925416  0.51400707  1
  O2-  O449  1  0.41214718  0.33367234  0.84918533  1
  O2-  O450  1  0.40284337  0.58953448  0.18138281  1
  O2-  O451  1  0.42579254  0.59404839  0.51845414  1
  O2-  O452  1  0.41766099  0.57561887  0.84750267  1
  O2-  O453  1  0.43262341  0.83036833  0.19874352  1
  O2-  O454  1  0.40718454  0.83333832  0.52553156  1
  O2-  O455  1  0.42085123  0.84092949  0.84372775  1
  O2-  O456  1  0.66617225  0.09027045  0.19375601  1
  O2-  O457  1  0.65482051  0.09803192  0.53392597  1
  O2-  O458  1  0.66190466  0.08304862  0.85566215  1
  O2-  O459  1  0.67627769  0.36517667  0.18870600  1
  O2-  O460  1  0.67133149  0.31506065  0.53097734  1
  O2-  O461  1  0.66365161  0.33415579  0.85752600  1
  O2-  O462  1  0.63071275  0.56505318  0.18004791  1
  O2-  O463  1  0.66506363  0.58553290  0.52307080  1
  O2-  O464  1  0.64980841  0.57325248  0.83983489  1
  O2-  O465  1  0.66234164  0.82800115  0.18491687  1
  O2-  O466  1  0.64095705  0.76064337  0.46254896  1
  O2-  O467  1  0.65998281  0.83495323  0.85013441  1
  O2-  O468  1  0.92312489  0.09839672  0.20450314  1
  O2-  O469  1  0.91108059  0.07399710  0.52776144  1
  O2-  O470  1  0.91740799  0.07738032  0.84213745  1
  O2-  O471  1  0.94866048  0.34977121  0.19119665  1
  O2-  O472  1  0.91727830  0.32804803  0.52742746  1
  O2-  O473  1  0.91665678  0.32739214  0.86637203  1
  O2-  O474  1  0.90528515  0.57283970  0.16706692  1
  O2-  O475  1  0.94640029  0.63520016  0.53645050  1
  O2-  O476  1  0.89574370  0.56098551  0.85881968  1
  O2-  O477  1  0.94480644  0.95098491  0.18253201  1
  O2-  O478  1  0.91267900  0.83503841  0.52470357  1
  O2-  O479  1  0.91095076  0.82426944  0.84103202  1
  O2-  O480  1  0.17706641  0.09532912  0.31069484  1
  O2-  O481  1  0.19397694  0.10018036  0.64792793  1
  O2-  O482  1  0.16327556  0.08528352  0.98072521  1
  O2-  O483  1  0.16361441  0.33394205  0.31892712  1
  O2-  O484  1  0.22336837  0.40101134  0.64076198  1
  O2-  O485  1  0.17270042  0.33523638  0.98459356  1
  O2-  O486  1  0.16520800  0.57816422  0.30870671  1
  O2-  O487  1  0.18044271  0.58517492  0.64037784  1
  O2-  O488  1  0.17336780  0.61492715  0.96251693  1
  O2-  O489  1  0.16778275  0.83226456  0.31514295  1
  O2-  O490  1  0.16930254  0.83826525  0.65261653  1
  O2-  O491  1  0.15646394  0.84211773  0.97765320  1
  O2-  O492  1  0.41282966  0.07041608  0.30422886  1
  O2-  O493  1  0.41392765  0.08004069  0.65580862  1
  O2-  O494  1  0.42714608  0.09307416  0.98133983  1
  O2-  O495  1  0.40328140  0.32656739  0.29813479  1
  O2-  O496  1  0.48903755  0.36924809  0.66479381  1
  O2-  O497  1  0.41307655  0.33486143  0.97496607  1
  O2-  O498  1  0.41319487  0.57696100  0.30857525  1
  O2-  O499  1  0.42748101  0.59650586  0.63513730  1
  O2-  O500  1  0.41263402  0.57276178  0.97111657  1
  O2-  O501  1  0.42040860  0.83141513  0.32129140  1
  O2-  O502  1  0.41026782  0.83195965  0.64942246  1
  O2-  O503  1  0.45192623  0.81031534  0.95275733  1
  O2-  O504  1  0.66255585  0.08828735  0.32594846  1
  O2-  O505  1  0.66462827  0.08837132  0.65887283  1
  O2-  O506  1  0.65921020  0.07949903  0.98110427  1
  O2-  O507  1  0.66714677  0.33706039  0.31011232  1
  O2-  O508  1  0.66823394  0.32710659  0.65002430  1
  O2-  O509  1  0.68011652  0.34365238  0.98178820  1
  O2-  O510  1  0.62544418  0.54771589  0.30481780  1
  O2-  O511  1  0.65646438  0.57648330  0.64889150  1
  O2-  O512  1  0.68500609  0.59098030  0.98055856  1
  O2-  O513  1  0.67547030  0.81758232  0.30132779  1
  O2-  O514  1  0.65549484  0.82360096  0.64094405  1
  O2-  O515  1  0.64943443  0.83242092  0.97413638  1
  O2-  O516  1  0.91564479  0.08617638  0.32521505  1
  O2-  O517  1  0.90329116  0.07493732  0.65539174  1
  O2-  O518  1  0.92843397  0.05604437  0.96038975  1
  O2-  O519  1  0.90096168  0.31293017  0.32554983  1
  O2-  O520  1  0.92766546  0.33305260  0.65360273  1
  O2-  O521  1  0.92628808  0.31958261  0.98466062  1
  O2-  O522  1  0.91286493  0.57781951  0.34901517  1
  O2-  O523  1  0.89842286  0.57283719  0.65215093  1
  O2-  O524  1  0.89175496  0.54127444  0.98815130  1
  O2-  O525  1  0.93791688  0.84511526  0.31703931  1
  O2-  O526  1  0.93979918  0.85226194  0.65098119  1
  O2-  O527  1  0.90505820  0.82839129  0.96290636  1
  O2-  O528  1  0.08759269  0.17562392  0.02439129  1
  O2-  O529  1  0.08493597  0.16774184  0.35979106  1
  O2-  O530  1  0.12418934  0.19874394  0.68947686  1
  O2-  O531  1  0.08675181  0.39882794  0.04177377  1
  O2-  O532  1  0.07725282  0.41372096  0.35748113  1
  O2-  O533  1  0.09653774  0.43192502  0.68397278  1
  O2-  O534  1  0.07086771  0.66708398  0.01485071  1
  O2-  O535  1  0.09448317  0.66971911  0.35986355  1
  O2-  O536  1  0.03841225  0.70106782  0.70504029  1
  O2-  O537  1  0.06967532  0.91971398  0.01975631  1
  O2-  O538  1  0.09712914  0.92542440  0.35106697  1
  O2-  O539  1  0.10111640  0.93279164  0.68895386  1
  O2-  O540  1  0.33786828  0.17289184  0.02002096  1
  O2-  O541  1  0.33192062  0.14292066  0.36837813  1
  O2-  O542  1  0.36395479  0.19246499  0.69683574  1
  O2-  O543  1  0.33580453  0.41421055  0.02562112  1
  O2-  O544  1  0.32928679  0.41180146  0.35367822  1
  O2-  O545  1  0.26093437  0.36747928  0.68547027  1
  O2-  O546  1  0.34089559  0.67225390  0.00378656  1
  O2-  O547  1  0.33242954  0.66187884  0.35093420  1
  O2-  O548  1  0.33865703  0.66578489  0.68031756  1
  O2-  O549  1  0.33001981  0.92103363  0.02513524  1
  O2-  O550  1  0.33256166  0.91451007  0.35568368  1
  O2-  O551  1  0.33403204  0.91861435  0.69990277  1
  O2-  O552  1  0.59260335  0.18154775  0.02913704  1
  O2-  O553  1  0.57842349  0.17752623  0.35208472  1
  O2-  O554  1  0.57665271  0.16530943  0.69916675  1
  O2-  O555  1  0.58022879  0.41331928  0.01696523  1
  O2-  O556  1  0.56244398  0.38891414  0.36318857  1
  O2-  O557  1  0.57855913  0.40615156  0.68630188  1
  O2-  O558  1  0.57939126  0.66722585  0.01406811  1
  O2-  O559  1  0.58984601  0.66118636  0.35369021  1
  O2-  O560  1  0.57631561  0.66741020  0.67481598  1
  O2-  O561  1  0.58403103  0.92235206  0.03047687  1
  O2-  O562  1  0.58000242  0.92783241  0.38147991  1
  O2-  O563  1  0.58001270  0.91636808  0.68622284  1
  O2-  O564  1  0.83485776  0.14392074  -0.03285189  1
  O2-  O565  1  0.82362958  0.15376665  0.37222566  1
  O2-  O566  1  0.83350925  0.16722316  0.69866837  1
  O2-  O567  1  0.84480248  0.45648318  0.01852685  1
  O2-  O568  1  0.82462478  0.39517104  0.36938932  1
  O2-  O569  1  0.83338652  0.40552157  0.69184860  1
  O2-  O570  1  0.86227863  0.67126840  0.02815012  1
  O2-  O571  1  0.85398193  0.69117412  0.36677536  1
  O2-  O572  1  0.80908728  0.64161018  0.68922171  1
  O2-  O573  1  0.81291313  0.89661544  0.00754086  1
  O2-  O574  1  0.83610538  0.91371135  0.35621022  1
  O2-  O575  1  0.82039245  0.90168509  0.68466863  1
