# generated using pymatgen
data_H2O
_symmetry_space_group_name_H-M   'P 1'
_cell_length_a   17.98072102
_cell_length_b   17.98832148
_cell_length_c   22.01625823
_cell_angle_alpha   90.04111350
_cell_angle_beta   89.97447303
_cell_angle_gamma   120.01164208
_symmetry_Int_Tables_number   1
_chemical_formula_structural   H2O
_chemical_formula_sum   'H384 O192'
_cell_volume   6166.24549153
_cell_formula_units_Z   192
loop_
 _symmetry_equiv_pos_site_id
 _symmetry_equiv_pos_as_xyz
  1  'x, y, z'
loop_
 _atom_type_symbol
 _atom_type_oxidation_number
  H+  1.0
  O2-  -2.0
loop_
 _atom_site_type_symbol
 _atom_site_label
 _atom_site_symmetry_multiplicity
 _atom_site_fract_x
 _atom_site_fract_y
 _atom_site_fract_z
 _atom_site_occupancy
  H+  H0  1  0.46124244  0.12181025  0.49894970  1
  H+  H1  1  0.12379509  0.09506120  0.18205387  1
  H+  H2  1  0.59912889  0.36283923  0.32821386  1
  H+  H3  1  0.85251956  0.88336921  0.81067758  1
  H+  H4  1  0.39878630  0.70552790  0.37537296  1
  H+  H5  1  0.13896904  0.63181877  0.50336449  1
  H+  H6  1  0.37622096  0.58739536  0.66136780  1
  H+  H7  1  0.49876053  0.83901176  0.82008575  1
  H+  H8  1  0.10999686  0.46619933  0.67593532  1
  H+  H9  1  0.38220348  0.04305547  0.33091076  1
  H+  H10  1  0.87968085  0.28082741  0.65128596  1
  H+  H11  1  0.03134692  0.93415544  0.71892901  1
  H+  H12  1  0.36798902  0.89234259  0.82185465  1
  H+  H13  1  0.14111000  0.30848158  -0.02404614  1
  H+  H14  1  0.37979151  0.52467561  0.50852803  1
  H+  H15  1  0.40550580  0.84581857  0.21858518  1
  H+  H16  1  0.17057516  0.89449195  0.51702559  1
  H+  H17  1  0.34750033  0.73273059  0.84306037  1
  H+  H18  1  0.59389219  0.67870122  0.40616100  1
  H+  H19  1  0.61725333  0.63105844  0.17193516  1
  H+  H20  1  0.86119483  0.63515101  0.33455721  1
  H+  H21  1  0.47044279  0.34995304  0.17288742  1
  H+  H22  1  0.52028389  0.14691680  0.33877408  1
  H+  H23  1  0.84931220  0.63408498  0.15974779  1
  H+  H24  1  0.11759223  0.93544788  0.01978279  1
  H+  H25  1  0.37123052  0.87449749  0.48698694  1
  H+  H26  1  0.11159164  0.76003853  0.19066262  1
  H+  H27  1  0.26722553  0.86278312  0.99581822  1
  H+  H28  1  0.99786070  0.88954109  0.65550753  1
  H+  H29  1  0.41163497  0.13662976  0.65459533  1
  H+  H30  1  -0.01707792  0.12281531  -0.01038377  1
  H+  H31  1  0.65685405  0.33283390  0.89391080  1
  H+  H32  1  0.34036826  0.92455473  0.39652659  1
  H+  H33  1  0.76264262  0.88902261  0.33601436  1
  H+  H34  1  0.35457469  0.21361295  0.83051230  1
  H+  H35  1  0.13852416  0.06701671  0.98800300  1
  H+  H36  1  0.34973654  0.66422975  0.72270244  1
  H+  H37  1  0.11802961  0.20974413  0.66636295  1
  H+  H38  1  0.11645194  0.23075106  0.81888740  1
  H+  H39  1  0.90033530  0.32595246  0.83432648  1
  H+  H40  1  0.52831983  0.14488931  0.65772193  1
  H+  H41  1  0.45340507  0.96845961  0.11452340  1
  H+  H42  1  0.91895039  0.84488295  0.45000946  1
  H+  H43  1  0.61334553  0.14283328  0.01835272  1
  H+  H44  1  0.88905113  0.76023925  0.83486700  1
  H+  H45  1  0.13229042  0.52749673  0.50283147  1
  H+  H46  1  0.32085812  0.19218677  0.66573765  1
  H+  H47  1  0.88347781  0.51402288  0.32958187  1
  H+  H48  1  0.40155630  0.51365750  0.65587015  1
  H+  H49  1  0.62839574  0.58763524  0.33327518  1
  H+  H50  1  0.11875265  0.97856021  0.41771105  1
  H+  H51  1  0.61336910  0.73444975  0.49652418  1
  H+  H52  1  0.87871365  0.77600006  0.32770968  1
  H+  H53  1  0.52765169  0.64398950  0.49495617  1
  H+  H54  1  0.85793562  0.14351161  0.33783446  1
  H+  H55  1  0.08700318  0.34355232  0.18174255  1
  H+  H56  1  0.75542157  0.58994969  0.78432045  1
  H+  H57  1  0.38749607  0.53167473  -0.01477813  1
  H+  H58  1  0.66950891  0.70980790  0.35933662  1
  H+  H59  1  0.12330536  0.01311263  0.64943546  1
  H+  H60  1  0.35152655  0.91117712  0.32566762  1
  H+  H61  1  0.35365838  0.62388530  0.16558590  1
  H+  H62  1  0.71284873  0.59941693  0.99727156  1
  H+  H63  1  0.41455215  0.26419434  0.68647751  1
  H+  H64  1  0.82047546  0.92210398  0.43185346  1
  H+  H65  1  0.10166228  0.47751569  0.15372904  1
  H+  H66  1  0.14366764  0.76985476  0.84754332  1
  H+  H67  1  0.97606894  0.11416451  0.83438974  1
  H+  H68  1  0.85201258  0.71668535  1.00875197  1
  H+  H69  1  0.71432252  0.37724655  0.50355595  1
  H+  H70  1  0.51599627  0.89295264  0.50673831  1
  H+  H71  1  0.76626237  0.38651595  0.33751706  1
  H+  H72  1  0.36809809  0.26291772  0.32556228  1
  H+  H73  1  0.85248549  0.38686148  0.49041187  1
  H+  H74  1  0.64896598  0.88098142  0.99039917  1
  H+  H75  1  0.88703372  0.61494569  0.65013721  1
  H+  H76  1  0.37725556  0.12623559  0.82182330  1
  H+  H77  1  0.21538518  0.61056130  0.17095144  1
  H+  H78  1  0.86941237  0.72968466  0.64866192  1
  H+  H79  1  0.50736601  0.85004570  0.35881275  1
  H+  H80  1  0.53008881  0.87765768  0.16283333  1
  H+  H81  1  0.12225829  0.11285382  0.83295553  1
  H+  H82  1  0.87805523  0.60299663  0.50589950  1
  H+  H83  1  0.35589586  0.33577655  0.84553828  1
  H+  H84  1  0.02314932  0.64861933  0.36100009  1
  H+  H85  1  0.49381232  0.36233896  0.83222877  1
  H+  H86  1  0.88259479  1.02787852  0.64747080  1
  H+  H87  1  0.11493173  0.14333340  0.49524378  1
  H+  H88  1  0.83143483  0.65619154  0.39654958  1
  H+  H89  1  0.49819117  0.36146614  0.32902071  1
  H+  H90  1  0.37062763  0.40623312  0.48947528  1
  H+  H91  1  0.27920851  0.40418417  0.49709640  1
  H+  H92  1  0.34585621  0.22108021  0.15959660  1
  H+  H93  1  0.23732800  0.38654371  0.14572904  1
  H+  H94  1  0.72362202  0.36875647  0.66174765  1
  H+  H95  1  0.03175502  0.86290443  0.83764042  1
  H+  H96  1  0.62553223  0.86207447  0.65852758  1
  H+  H97  1  0.60442314  0.14052317  0.81379383  1
  H+  H98  1  0.32362932  0.37664189  0.67444171  1
  H+  H99  1  0.03359758  0.41968130  0.84036289  1
  H+  H100  1  0.10281719  0.22033990  0.34148687  1
  H+  H101  1  0.33561828  0.66616221  0.07129795  1
  H+  H102  1  0.76676220  0.41064063  0.82767945  1
  H+  H103  1  0.96621072  0.36531600  0.16651780  1
  H+  H104  1  0.36091912  0.90106826  0.13498801  1
  H+  H105  1  0.61182910  0.22806514  0.16664645  1
  H+  H106  1  0.58003852  0.45175969  0.81634758  1
  H+  H107  1  0.87582759  0.51786093  0.99471677  1
  H+  H108  1  0.11012876  0.74037109  0.35738921  1
  H+  H109  1  0.87467440  0.51970881  0.65772442  1
  H+  H110  1  0.62435084  0.59849712  0.82217756  1
  H+  H111  1  0.86648952  0.88541762  -0.00217025  1
  H+  H112  1  0.60734196  0.89926129  0.50744541  1
  H+  H113  1  0.88676939  0.27665088  0.99223499  1
  H+  H114  1  0.42114201  0.40681241  0.69290092  1
  H+  H115  1  0.77034063  0.14634324  0.33722872  1
  H+  H116  1  0.88098356  0.10022765  0.84568654  1
  H+  H117  1  0.10903939  0.48099095  0.33597217  1
  H+  H118  1  0.41406535  0.58202936  0.57823259  1
  H+  H119  1  0.71472497  0.87222304  0.50661109  1
  H+  H120  1  0.01212131  0.87957766  0.16649341  1
  H+  H121  1  0.59657104  0.45446369  0.33402431  1
  H+  H122  1  0.14230500  0.83264570  0.00768136  1
  H+  H123  1  0.85060093  0.90070798  0.49412531  1
  H+  H124  1  0.10962643  0.69090183  0.01322142  1
  H+  H125  1  0.52677291  0.63821807  0.67078793  1
  H+  H126  1  0.23882982  0.13839349  0.98717567  1
  H+  H127  1  0.73206945  0.86069590  0.16132525  1
  H+  H128  1  0.13856689  0.84140587  0.29811297  1
  H+  H129  1  0.60882738  0.13677415  0.16653473  1
  H+  H130  1  0.36896023  0.72853273  0.01412224  1
  H+  H131  1  0.23579501  0.70701308  0.62147915  1
  H+  H132  1  0.63510682  0.26919698  0.65312149  1
  H+  H133  1  0.52179344  0.63887099  1.00167472  1
  H+  H134  1  0.32977083  0.41702309  0.39533525  1
  H+  H135  1  0.72134377  0.61145991  0.17325053  1
  H+  H136  1  0.65658951  0.83648562  0.56668897  1
  H+  H137  1  1.00978882  0.61704767  0.67576464  1
  H+  H138  1  0.96071908  0.37509982  0.66106348  1
  H+  H139  1  0.97173169  0.36974571  0.32472400  1
  H+  H140  1  0.87486884  0.86637810  0.63290473  1
  H+  H141  1  0.27533756  0.40367092  -0.00244325  1
  H+  H142  1  0.71793894  0.59003350  0.33095595  1
  H+  H143  1  0.37077802  0.87477474  0.98359006  1
  H+  H144  1  0.38661628  0.62076452  0.99557027  1
  H+  H145  1  0.36389906  0.86477144  0.66138778  1
  H+  H146  1  0.41841531  0.71190199  0.86158782  1
  H+  H147  1  0.37830162  0.27398982  -0.00297762  1
  H+  H148  1  0.39852846  0.40220812  0.14686748  1
  H+  H149  1  0.12785216  0.00322297  0.17335642  1
  H+  H150  1  0.09854306  0.87483894  0.17521590  1
  H+  H151  1  0.76108753  0.38403902  0.00024848  1
  H+  H152  1  0.47926576  0.12206370  0.82213565  1
  H+  H153  1  0.41096016  0.82633763  0.35771389  1
  H+  H154  1  0.31561232  0.12254901  0.51648136  1
  H+  H155  1  0.78252261  0.64244992  0.65393705  1
  H+  H156  1  0.18039193  0.04530013  0.50258370  1
  H+  H157  1  0.13195299  0.62705309  0.84161079  1
  H+  H158  1  0.84926677  0.88417976  0.33928491  1
  H+  H159  1  0.61964863  0.88465832  0.15221178  1
  H+  H160  1  1.01933258  0.13122378  0.66431000  1
  H+  H161  1  0.38145945  0.36503596  -0.01021968  1
  H+  H162  1  0.12682612  0.62464531  0.33039987  1
  H+  H163  1  0.22192804  0.10318399  0.17002253  1
  H+  H164  1  0.66188405  0.52599864  0.70573435  1
  H+  H165  1  0.72172035  0.11034843  0.65508978  1
  H+  H166  1  0.49658784  0.60142909  0.32376399  1
  H+  H167  1  0.52948301  0.65048045  0.82698667  1
  H+  H168  1  0.88781668  0.56328926  0.84577312  1
  H+  H169  1  0.77843020  0.63348735  0.49209501  1
  H+  H170  1  0.06266564  0.51458509  0.69677844  1
  H+  H171  1  0.51109753  0.37725436  0.73875396  1
  H+  H172  1  0.47680649  0.12730489  0.17682155  1
  H+  H173  1  0.62979887  0.11783735  0.65931835  1
  H+  H174  1  0.28746562  0.88158150  0.48755018  1
  H+  H175  1  0.86223524  0.22817967  0.16092589  1
  H+  H176  1  0.39818165  0.46679429  0.83380665  1
  H+  H177  1  0.51890060  0.38303492  1.00739350  1
  H+  H178  1  0.25270176  0.12938157  0.34903549  1
  H+  H179  1  0.62834555  0.36312286  -0.00936886  1
  H+  H180  1  0.39769558  0.75523091  0.52221985  1
  H+  H181  1  0.72023413  0.13272079  0.50014822  1
  H+  H182  1  0.35736388  0.14076332  0.00668865  1
  H+  H183  1  0.87679456  0.02495793  0.33120057  1
  H+  H184  1  0.17486032  0.59680231  0.56264609  1
  H+  H185  1  0.19885492  0.84668529  0.20172181  1
  H+  H186  1  0.63691706  0.02349434  0.17402752  1
  H+  H187  1  0.07663575  0.88343496  0.07903717  1
  H+  H188  1  0.87330495  0.97904276  -0.00063727  1
  H+  H189  1  0.21369845  0.35836118  0.32590445  1
  H+  H190  1  0.38581454  0.02620528  0.50199104  1
  H+  H191  1  0.12579760  0.89707239  0.41629849  1
  H+  H192  1  0.85548287  0.38473771  0.33814021  1
  H+  H193  1  0.61446956  0.71939690  -0.00073525  1
  H+  H194  1  0.12781488  0.10591186  0.65069481  1
  H+  H195  1  0.74566346  0.88050533  0.98689625  1
  H+  H196  1  0.19895065  0.34835363  0.64559723  1
  H+  H197  1  0.31022278  0.61789197  0.38120775  1
  H+  H198  1  0.88335259  0.28033235  0.32368349  1
  H+  H199  1  0.97357583  0.84612549  0.99818218  1
  H+  H200  1  0.40894312  0.53194807  0.16813681  1
  H+  H201  1  0.36027169  0.71319505  0.17368026  1
  H+  H202  1  0.24135557  0.35342436  0.16403667  1
  H+  H203  1  0.13184685  0.17851700  -0.01102225  1
  H+  H204  1  0.62499609  0.59982436  0.99589748  1
  H+  H205  1  0.23657326  0.86282578  0.68149983  1
  H+  H206  1  0.15061310  0.64548561  0.65608183  1
  H+  H207  1  0.62189639  0.72964607  0.16308502  1
  H+  H208  1  0.86866760  0.13911379  1.00955297  1
  H+  H209  1  0.97353920  0.37693854  0.50187420  1
  H+  H210  1  0.85051082  0.38367430  0.00212323  1
  H+  H211  1  0.63639519  0.03435535  0.33535724  1
  H+  H212  1  0.62103325  0.35627361  0.83464093  1
  H+  H213  1  0.48455682  0.86476513  0.98406342  1
  H+  H214  1  0.51233418  0.89560026  0.66841394  1
  H+  H215  1  0.14323160  0.74369178  0.50553490  1
  H+  H216  1  0.22972987  0.37444474  0.82862502  1
  H+  H217  1  0.64309252  0.60636406  0.49638846  1
  H+  H218  1  0.13431821  0.27678856  0.50170561  1
  H+  H219  1  0.60472170  0.15343713  0.49069771  1
  H+  H220  1  0.76541330  0.89007752  0.65867771  1
  H+  H221  1  0.57112139  0.93894694  0.82140283  1
  H+  H222  1  0.10880270  0.39085621  0.34203447  1
  H+  H223  1  0.38516589  0.57680682  0.83888851  1
  H+  H224  1  0.73626583  0.12011611  0.00919470  1
  H+  H225  1  0.62057956  0.98067521  0.00786588  1
  H+  H226  1  0.86925314  0.51613289  0.16644166  1
  H+  H227  1  0.85453855  0.38575191  0.15520753  1
  H+  H228  1  0.86074488  0.13688984  0.65291759  1
  H+  H229  1  0.09118481  0.54920039  0.00670433  1
  H+  H230  1  0.62466864  0.01779752  0.66610690  1
  H+  H231  1  0.37688572  0.28547198  0.49347457  1
  H+  H232  1  0.11339171  0.40139601  0.48578718  1
  H+  H233  1  0.86586757  0.97705688  0.81744861  1
  H+  H234  1  0.09905328  0.63434763  0.16522099  1
  H+  H235  1  0.39013450  0.02890046  0.82813166  1
  H+  H236  1  0.67163921  0.58234743  0.55715346  1
  H+  H237  1  0.09393590  0.84607517  0.67437400  1
  H+  H238  1  0.27069700  0.62353553  0.67802905  1
  H+  H239  1  0.63106245  0.85880924  0.83615698  1
  H+  H240  1  0.63024737  0.77448499  0.65917814  1
  H+  H241  1  0.84694534  0.38705712  0.67703219  1
  H+  H242  1  0.60791132  0.47351413  0.00883390  1
  H+  H243  1  0.77429324  0.13827980  0.16080613  1
  H+  H244  1  0.63551030  0.61353541  0.65327663  1
  H+  H245  1  0.21270291  0.62685736  0.31281264  1
  H+  H246  1  0.09109034  0.25747791  0.18801004  1
  H+  H247  1  0.60545868  0.46860375  0.15949963  1
  H+  H248  1  0.62159843  0.77657857  0.32031341  1
  H+  H249  1  0.35256710  0.13615265  0.15968667  1
  H+  H250  1  0.61413827  0.23517391  0.81766769  1
  H+  H251  1  0.86177046  0.42629409  0.83046348  1
  H+  H252  1  0.12148659  1.01629749  0.84313540  1
  H+  H253  1  0.02356280  0.14140361  0.49645423  1
  H+  H254  1  0.40580123  0.32583764  0.22947481  1
  H+  H255  1  0.14066987  0.37321574  0.82847556  1
  H+  H256  1  0.72217477  0.36243361  0.17088118  1
  H+  H257  1  1.00699047  0.63074482  0.16598210  1
  H+  H258  1  0.88236950  0.11070582  0.17682230  1
  H+  H259  1  0.21466335  0.87439339  0.34505773  1
  H+  H260  1  0.65329974  0.92702954  0.38001687  1
  H+  H261  1  0.41156551  0.60222141  0.33777445  1
  H+  H262  1  0.47815643  0.12639420  0.00137983  1
  H+  H263  1  0.37977125  0.35710400  0.32529950  1
  H+  H264  1  0.85937198  -0.02388755  0.15776366  1
  H+  H265  1  0.64269736  0.45127402  0.50991771  1
  H+  H266  1  0.88290829  0.86238762  0.17040468  1
  H+  H267  1  0.62912395  0.27499557  0.99159806  1
  H+  H268  1  1.02289292  0.64264656  0.83853097  1
  H+  H269  1  0.62429077  0.72776476  0.82517051  1
  H+  H270  1  0.00642888  0.86932174  0.47849594  1
  H+  H271  1  0.61700399  0.85948037  0.30024129  1
  H+  H272  1  0.27826465  0.88561052  0.83543640  1
  H+  H273  1  0.67358193  0.06900032  0.85584516  1
  H+  H274  1  0.87478137  0.71785455  0.48807495  1
  H+  H275  1  0.72774293  0.87285228  0.83388379  1
  H+  H276  1  0.14876808  0.86042412  0.85724388  1
  H+  H277  1  0.00595277  0.11215788  0.18015134  1
  H+  H278  1  0.36506293  0.46850404  0.33437943  1
  H+  H279  1  0.96697349  0.11296052  0.33009984  1
  H+  H280  1  0.63183830  0.12012323  0.32787060  1
  H+  H281  1  0.86300865  0.23777576  0.48979005  1
  H+  H282  1  0.63149625  0.27125673  0.32513473  1
  H+  H283  1  0.88938527  0.13012577  0.49981347  1
  H+  H284  1  0.10156575  0.90509798  0.78519616  1
  H+  H285  1  0.39766332  0.04866573  0.96802251  1
  H+  H286  1  0.38409088  0.78911206  0.66830508  1
  H+  H287  1  0.81382570  0.16083415  0.89954789  1
  H+  H288  1  0.96613275  0.56982833  0.29004982  1
  H+  H289  1  0.39351232  0.31492045  0.90602283  1
  H+  H290  1  0.81910284  0.42546115  0.73500008  1
  H+  H291  1  0.57908724  0.17695283  0.39827789  1
  H+  H292  1  0.53715250  0.41165105  0.67158031  1
  H+  H293  1  0.22284162  0.30325497  0.59535215  1
  H+  H294  1  0.17775245  0.36854313  0.91968840  1
  H+  H295  1  0.47269996  0.36097516  0.49426002  1
  H+  H296  1  0.31029846  0.90620268  0.73098809  1
  H+  H297  1  0.91851940  0.35874637  0.90252693  1
  H+  H298  1  0.06769252  0.64667102  0.07564725  1
  H+  H299  1  0.41170117  0.10019227  0.27095276  1
  H+  H300  1  0.90368947  0.83359854  0.26852367  1
  H+  H301  1  0.35773066  0.43414406  0.76787553  1
  H+  H302  1  0.93431178  0.71332505  0.86324205  1
  H+  H303  1  0.40652263  0.82476124  0.57071819  1
  H+  H304  1  0.08187913  0.16449388  0.76198383  1
  H+  H305  1  0.35535492  0.92618747  0.04053644  1
  H+  H306  1  0.66149409  0.33139432  0.26427299  1
  H+  H307  1  0.92190319  0.08273645  0.93253943  1
  H+  H308  1  0.67170999  0.83281229  0.22113759  1
  H+  H309  1  0.46215015  0.47743300  0.10450175  1
  H+  H310  1  0.44583542  0.80555557  0.25928866  1
  H+  H311  1  0.91081089  0.33791886  0.22803689  1
  H+  H312  1  0.06392946  0.13666037  0.12227933  1
  H+  H313  1  0.81913740  0.66402192  0.10117972  1
  H+  H314  1  0.08709077  0.70985601  0.68495446  1
  H+  H315  1  0.85458557  0.62939665  0.01146614  1
  H+  H316  1  0.10838137  0.22026990  0.04372115  1
  H+  H317  1  0.80374178  0.16840297  0.83039431  1
  H+  H318  1  0.17161464  0.08182803  0.58659193  1
  H+  H319  1  0.08296190  0.44775332  0.77730152  1
  H+  H320  1  0.16995626  0.81149126  0.94267268  1
  H+  H321  1  0.90558623  0.56763391  0.56930143  1
  H+  H322  1  0.87792801  0.77095343  0.17280859  1
  H+  H323  1  0.91634166  0.84317392  0.57503709  1
  H+  H324  1  0.39134567  0.03939860  0.17183051  1
  H+  H325  1  0.83292452  0.17802489  0.43069961  1
  H+  H326  1  0.67835185  0.85161183  0.92309513  1
  H+  H327  1  0.42540141  0.60963442  0.90565735  1
  H+  H328  1  0.07399410  0.42237747  0.09313918  1
  H+  H329  1  0.66311028  0.08205865  0.23400241  1
  H+  H330  1  0.91740753  0.09151626  0.58971198  1
  H+  H331  1  0.11443092  0.41334183  -0.00700743  1
  H+  H332  1  0.10658120  0.08767594  0.35512043  1
  H+  H333  1  0.13533188  0.32344786  0.27646150  1
  H+  H334  1  0.07432091  0.65892952  0.77444260  1
  H+  H335  1  0.08212564  0.43249899  0.42848297  1
  H+  H336  1  0.66246888  0.57445569  0.23396497  1
  H+  H337  1  0.90195347  0.07540851  0.23875986  1
  H+  H338  1  0.82207219  0.41348687  0.09537397  1
  H+  H339  1  0.59573936  0.23742905  0.49009408  1
  H+  H340  1  0.16492293  0.09495511  0.89739389  1
  H+  H341  1  0.37010384  0.63707134  0.46963942  1
  H+  H342  1  0.58096397  0.03648990  0.88558348  1
  H+  H343  1  0.58733259  0.66902640  0.72929347  1
  H+  H344  1  0.42383194  0.57941982  0.23362319  1
  H+  H345  1  0.10075651  0.68672185  0.44472730  1
  H+  H346  1  0.57684249  0.40942163  0.09950436  1
  H+  H347  1  0.41931519  0.80903702  0.92884632  1
  H+  H348  1  0.63145964  1.04752070  0.50941536  1
  H+  H349  1  0.83786464  0.92103256  0.09529474  1
  H+  H350  1  0.59035396  0.93662481  0.42434435  1
  H+  H351  1  0.58056347  0.17353450  0.07462307  1
  H+  H352  1  0.83411905  0.16801537  0.71131022  1
  H+  H353  1  0.34583940  0.14061419  0.34108880  1
  H+  H354  1  0.58603555  0.91231263  0.06212894  1
  H+  H355  1  0.15041126  0.57978231  0.22689480  1
  H+  H356  1  0.42635297  0.09679296  0.59401520  1
  H+  H357  1  0.66158516  0.34493396  0.59735532  1
  H+  H358  1  0.52342927  0.63737851  0.17126383  1
  H+  H359  1  0.67993505  0.10920718  0.95213084  1
  H+  H360  1  0.13371930  0.33667644  0.55407859  1
  H+  H361  1  0.63171393  0.36043406  0.17207264  1
  H+  H362  1  0.07199119  0.16799924  0.40265379  1
  H+  H363  1  0.31793615  0.16354501  0.06538164  1
  H+  H364  1  0.88872370  0.57125567  0.22748707  1
  H+  H365  1  0.03320348  0.94563004  0.32153606  1
  H+  H366  1  0.86966831  0.50409418  0.50320696  1
  H+  H367  1  0.12570110  0.81770312  0.61682223  1
  H+  H368  1  0.97103487  0.37027645  0.99000008  1
  H+  H369  1  0.34383955  0.43011683  0.05365436  1
  H+  H370  1  0.13975557  0.53539838  0.84156035  1
  H+  H371  1  0.83075656  0.91852140  0.71349602  1
  H+  H372  1  0.96840992  0.60182387  1.00323462  1
  H+  H373  1  0.88298393  0.03800817  0.49890879  1
  H+  H374  1  0.23848988  0.90480716  0.56669845  1
  H+  H375  1  0.91309696  0.34725343  0.56098381  1
  H+  H376  1  0.56609076  0.90719131  0.72872029  1
  H+  H377  1  0.25048955  0.60091034  0.79081856  1
  H+  H378  1  0.82223556  0.41706970  0.43069024  1
  H+  H379  1  0.34644027  0.17361945  0.76255563  1
  H+  H380  1  0.92329116  0.59976782  0.91258180  1
  H+  H381  1  0.58822485  0.17641397  0.71978702  1
  H+  H382  1  0.84133062  0.17115740  0.06990679  1
  H+  H383  1  0.92250962  0.81130918  0.93637418  1
  O2-  O384  1  0.06855964  0.13906306  0.16641970  1
  O2-  O385  1  0.08534962  0.17449159  0.48277799  1
  O2-  O386  1  0.08439176  0.16806976  0.80745887  1
  O2-  O387  1  0.06913562  0.41759400  0.13793684  1
  O2-  O388  1  0.08414721  0.43374442  0.47482882  1
  O2-  O389  1  0.09290373  0.44677713  0.82182473  1
  O2-  O390  1  0.06859831  0.66636203  0.15375188  1
  O2-  O391  1  0.10905700  0.68475859  0.49000806  1
  O2-  O392  1  0.08217371  0.66636249  0.81945494  1
  O2-  O393  1  0.07438851  0.90681924  0.15271268  1
  O2-  O394  1  0.11558270  0.93257022  0.44557267  1
  O2-  O395  1  0.09072470  0.91220791  0.82779303  1
  O2-  O396  1  0.31554828  0.15971847  0.14477366  1
  O2-  O397  1  0.28948481  0.15993632  0.52355575  1
  O2-  O398  1  0.33677746  0.15835461  0.80714805  1
  O2-  O399  1  0.40545035  0.45331762  0.12318596  1
  O2-  O400  1  0.33944841  0.44008677  0.48319418  1
  O2-  O401  1  0.34377891  0.43369926  0.81222161  1
  O2-  O402  1  0.32490927  0.65685961  0.15407016  1
  O2-  O403  1  0.36767430  0.63525838  0.51543955  1
  O2-  O404  1  0.24296652  0.64828295  0.80712893  1
  O2-  O405  1  0.39326016  0.95390007  0.11148841  1
  O2-  O406  1  0.34602810  0.90875778  0.47067238  1
  O2-  O407  1  0.33432434  0.92015230  0.81351502  1
  O2-  O408  1  0.57784417  0.16678486  0.15222295  1
  O2-  O409  1  0.56887544  0.17820798  0.47425272  1
  O2-  O410  1  0.58183870  0.17651061  0.79761082  1
  O2-  O411  1  0.57500495  0.40799050  0.14569637  1
  O2-  O412  1  0.60844798  0.38961910  0.49886798  1
  O2-  O413  1  0.54789106  0.38810408  0.80816251  1
  O2-  O414  1  0.58668016  0.66423664  0.15751678  1
  O2-  O415  1  0.58669087  0.67480111  0.47897877  1
  O2-  O416  1  0.58705764  0.66968515  0.80851532  1
  O2-  O417  1  0.58461391  0.91159466  0.14043306  1
  O2-  O418  1  0.57701742  0.93066720  0.49431648  1
  O2-  O419  1  0.55713795  0.88197667  0.80472673  1
  O2-  O420  1  0.83480819  0.16713229  0.14596445  1
  O2-  O421  1  0.83436294  0.17686293  0.47623640  1
  O2-  O422  1  0.79126714  0.12619355  0.86256209  1
  O2-  O423  1  0.82334069  0.41580217  0.14098548  1
  O2-  O424  1  0.82164151  0.41781749  0.47656184  1
  O2-  O425  1  0.82657524  0.44839490  0.81182170  1
  O2-  O426  1  0.81935111  0.66581713  0.14711224  1
  O2-  O427  1  0.83969138  0.65660947  0.47675408  1
  O2-  O428  1  0.70271994  0.58695456  0.76918892  1
  O2-  O429  1  0.83289324  0.91660660  0.14022872  1
  O2-  O430  1  0.82072552  0.92888258  0.47744431  1
  O2-  O431  1  0.82817215  0.91905234  0.79862791  1
  O2-  O432  1  0.16056542  0.06664968  0.18745321  1
  O2-  O433  1  0.19012997  0.09747575  0.52513423  1
  O2-  O434  1  0.15050652  0.08009702  0.85202837  1
  O2-  O435  1  0.08448833  0.30048525  0.21097039  1
  O2-  O436  1  0.16470324  0.33826102  0.51717762  1
  O2-  O437  1  0.16861315  0.34011263  0.84104096  1
  O2-  O438  1  0.15307720  0.58198570  0.18198118  1
  O2-  O439  1  0.16554678  0.59033201  0.51761122  1
  O2-  O440  1  0.17382842  0.60327959  0.85313419  1
  O2-  O441  1  0.13753808  0.81878729  0.21058822  1
  O2-  O442  1  0.19304478  0.86283328  0.53993000  1
  O2-  O443  1  0.17752516  0.82731233  0.86779315  1
  O2-  O444  1  0.41425062  0.09703845  0.18918940  1
  O2-  O445  1  0.40234399  0.08435525  0.51622185  1
  O2-  O446  1  0.41889377  0.09133911  0.83868281  1
  O2-  O447  1  0.40826935  0.32465746  0.18403187  1
  O2-  O448  1  0.41389305  0.34656412  0.48406017  1
  O2-  O449  1  0.38667156  0.30671400  0.85999643  1
  O2-  O450  1  0.42680823  0.58844203  0.18863609  1
  O2-  O451  1  0.41551422  0.58956878  0.52822810  1
  O2-  O452  1  0.43195757  0.62582024  0.85986219  1
  O2-  O453  1  0.43686457  0.81456950  0.21599150  1
  O2-  O454  1  0.41103795  0.81548223  0.52638975  1
  O2-  O455  1  0.40685462  0.76124364  0.85926892  1
  O2-  O456  1  0.66474248  0.08364258  0.18850051  1
  O2-  O457  1  0.66104269  0.11025064  0.51542283  1
  O2-  O458  1  0.61156045  0.04577057  0.84705530  1
  O2-  O459  1  0.66271704  0.33157046  0.18875364  1
  O2-  O460  1  0.65709658  0.34919844  0.52513840  1
  O2-  O461  1  0.65959472  0.33436537  0.84827498  1
  O2-  O462  1  0.65980019  0.57998125  0.18918193  1
  O2-  O463  1  0.67735213  0.58136461  0.51186333  1
  O2-  O464  1  0.64723936  0.55780702  0.82355432  1
  O2-  O465  1  0.67018064  0.82870577  0.17595495  1
  O2-  O466  1  0.65423228  0.83833923  0.52106580  1
  O2-  O467  1  0.67133556  0.84232013  0.85566068  1
  O2-  O468  1  0.90573881  0.07437155  0.19300314  1
  O2-  O469  1  0.91827914  0.09751923  0.51489099  1
  O2-  O470  1  0.91820790  0.07513317  0.85226912  1
  O2-  O471  1  0.90611637  0.33346405  0.18283477  1
  O2-  O472  1  0.91272517  0.34614101  0.51575788  1
  O2-  O473  1  0.92909629  0.37833712  0.85851492  1
  O2-  O474  1  0.89741001  0.57678423  0.18317313  1
  O2-  O475  1  0.90286710  0.56633396  0.52215383  1
  O2-  O476  1  0.93044520  0.61586271  0.86752471  1
  O2-  O477  1  0.91088326  0.83153671  0.18836178  1
  O2-  O478  1  0.94375303  0.83938772  0.48813248  1
  O2-  O479  1  0.93817751  0.77116786  0.86023835  1
  O2-  O480  1  0.13015607  0.04728351  0.35866838  1
  O2-  O481  1  0.15935924  0.07505768  0.63595884  1
  O2-  O482  1  0.17903558  0.11938215  0.96641133  1
  O2-  O483  1  0.15038861  0.32900732  0.32112978  1
  O2-  O484  1  0.21494932  0.30423821  0.63949102  1
  O2-  O485  1  0.17513253  0.37007171  0.96482322  1
  O2-  O486  1  0.15055548  0.59181807  0.30865758  1
  O2-  O487  1  0.20015663  0.64675843  0.63344863  1
  O2-  O488  1  0.10892176  0.51641382  0.97964761  1
  O2-  O489  1  0.15082009  0.84128953  0.34187967  1
  O2-  O490  1  0.12146780  0.81275309  0.66141323  1
  O2-  O491  1  0.17707261  0.80961273  0.98810156  1
  O2-  O492  1  0.41419649  0.10316492  0.31607003  1
  O2-  O493  1  0.43875947  0.10457494  0.63852560  1
  O2-  O494  1  0.41782304  0.10418685  0.98728894  1
  O2-  O495  1  0.40701126  0.32406162  0.30941267  1
  O2-  O496  1  0.48668739  0.37105616  0.69623091  1
  O2-  O497  1  0.40972953  0.33144636  0.97715645  1
  O2-  O498  1  0.43622363  0.57504658  0.31105404  1
  O2-  O499  1  0.41697629  0.57284277  0.64045694  1
  O2-  O500  1  0.41757618  0.59380172  0.97390629  1
  O2-  O501  1  0.44858294  0.80508499  0.34378159  1
  O2-  O502  1  0.40423077  0.84338529  0.64695303  1
  O2-  O503  1  0.42349244  0.83399582  0.97045721  1
  O2-  O504  1  0.66238935  0.08950228  0.31322085  1
  O2-  O505  1  0.65713547  0.07969398  0.64950385  1
  O2-  O506  1  0.67432799  0.09046010  0.99425211  1
  O2-  O507  1  0.65941684  0.33294155  0.31016272  1
  O2-  O508  1  0.66280880  0.33408972  0.64311721  1
  O2-  O509  1  0.65795103  0.33304864  0.97279016  1
  O2-  O510  1  0.65698334  0.55806679  0.31558512  1
  O2-  O511  1  0.67037712  0.59012230  0.63358672  1
  O2-  O512  1  0.65249672  0.56584958  0.98354666  1
  O2-  O513  1  0.65314195  0.83310152  0.29928256  1
  O2-  O514  1  0.65821971  0.83487789  0.64311363  1
  O2-  O515  1  0.68263084  0.85434707  0.97091477  1
  O2-  O516  1  0.90629013  0.08428867  0.31454397  1
  O2-  O517  1  0.91635092  0.09007836  0.63581957  1
  O2-  O518  1  0.92183214  0.08485278  0.97782073  1
  O2-  O519  1  0.91179558  0.34128078  0.30887745  1
  O2-  O520  1  0.90348633  0.34270801  0.64176097  1
  O2-  O521  1  0.91013038  0.33528165  0.97506216  1
  O2-  O522  1  0.92195767  0.57443418  0.31297431  1
  O2-  O523  1  0.91314682  0.57724603  0.63916280  1
  O2-  O524  1  0.91043400  0.58067296  0.98420527  1
  O2-  O525  1  0.90245520  0.83601951  0.31385524  1
  O2-  O526  1  0.91057164  0.84053821  0.61969193  1
  O2-  O527  1  0.91694162  0.82617511  0.97879955  1
  O2-  O528  1  0.09377315  0.20173186  0.00152195  1
  O2-  O529  1  0.06978364  0.16036438  0.35783461  1
  O2-  O530  1  0.07844599  0.15083739  0.68164227  1
  O2-  O531  1  0.07472097  0.43219570  0.01042879  1
  O2-  O532  1  0.07897695  0.42343276  0.35502363  1
  O2-  O533  1  0.06206157  0.45999398  0.70075453  1
  O2-  O534  1  0.06791736  0.63525479  0.03122925  1
  O2-  O535  1  0.08513557  0.67803178  0.37057866  1
  O2-  O536  1  0.06906389  0.64859665  0.69435075  1
  O2-  O537  1  0.08083818  0.87659483  0.03365731  1
  O2-  O538  1  0.09072495  0.98828771  0.30642886  1
  O2-  O539  1  0.05235921  0.92086919  0.68177803  1
  O2-  O540  1  0.32157844  0.16747338  0.02000235  1
  O2-  O541  1  0.31448604  0.17043418  0.35391526  1
  O2-  O542  1  0.37016784  0.20161149  0.69009371  1
  O2-  O543  1  0.33680238  0.42597369  0.00883378  1
  O2-  O544  1  0.32730718  0.40980381  0.35086548  1
  O2-  O545  1  0.37538006  0.42469458  0.69297747  1
  O2-  O546  1  0.34057931  0.66798323  0.02650147  1
  O2-  O547  1  0.37153775  0.64465474  0.39010570  1
  O2-  O548  1  0.30971306  0.61076869  0.70225552  1
  O2-  O549  1  0.33624561  0.90464185  -0.00226579  1
  O2-  O550  1  0.32645846  0.93435325  0.35390222  1
  O2-  O551  1  0.29944426  0.89292359  0.68718557  1
  O2-  O552  1  0.58061880  0.17169212  0.02903406  1
  O2-  O553  1  0.58147929  0.17421439  0.35256156  1
  O2-  O554  1  0.59259798  0.17455006  0.67432666  1
  O2-  O555  1  0.57781930  0.41082304  0.02449700  1
  O2-  O556  1  0.56300648  0.39087503  0.34316202  1
  O2-  O557  1  0.64205590  0.50626166  0.66298708  1
  O2-  O558  1  0.58113274  0.66305468  0.01799439  1
  O2-  O559  1  0.60676156  0.68194979  0.36053031  1
  O2-  O560  1  0.58763787  0.67014595  0.68377463  1
  O2-  O561  1  0.59161700  0.91759782  0.01656885  1
  O2-  O562  1  0.60192701  0.93252860  0.37880450  1
  O2-  O563  1  0.57237491  0.92045746  0.68411088  1
  O2-  O564  1  0.83878170  0.16989810  0.02384958  1
  O2-  O565  1  0.83101823  0.17746417  0.35200531  1
  O2-  O566  1  0.82715325  0.16569785  0.66722815  1
  O2-  O567  1  0.82099375  0.41427195  0.01739377  1
  O2-  O568  1  0.82601591  0.41616327  0.35429433  1
  O2-  O569  1  0.81555042  0.41753693  0.68945004  1
  O2-  O570  1  0.82234075  0.65804005  0.02606089  1
  O2-  O571  1  0.82516784  0.65710164  0.35147577  1
  O2-  O572  1  0.84410650  0.67110143  0.66524748  1
  O2-  O573  1  0.83686438  0.91719953  0.01163292  1
  O2-  O574  1  0.81949953  0.91514018  0.35575483  1
  O2-  O575  1  0.82854745  0.91989360  0.66854895  1
