# generated using pymatgen
data_H2O
_symmetry_space_group_name_H-M   'P 1'
_cell_length_a   18.00476304
_cell_length_b   18.00137910
_cell_length_c   22.01289143
_cell_angle_alpha   90.01750665
_cell_angle_beta   89.99395703
_cell_angle_gamma   120.01879758
_symmetry_Int_Tables_number   1
_chemical_formula_structural   H2O
_chemical_formula_sum   'H384 O192'
_cell_volume   6177.58310623
_cell_formula_units_Z   192
loop_
 _symmetry_equiv_pos_site_id
 _symmetry_equiv_pos_as_xyz
  1  'x, y, z'
loop_
 _atom_type_symbol
 _atom_type_oxidation_number
  H+  1.0
  O2-  -2.0
loop_
 _atom_site_type_symbol
 _atom_site_label
 _atom_site_symmetry_multiplicity
 _atom_site_fract_x
 _atom_site_fract_y
 _atom_site_fract_z
 _atom_site_occupancy
  H+  H0  1  0.16551330  0.83032366  0.92717889  1
  H+  H1  1  0.10655523  0.22629679  0.49295130  1
  H+  H2  1  0.47473436  0.12132382  0.33432599  1
  H+  H3  1  0.91505825  1.05407756  0.87011042  1
  H+  H4  1  0.12120325  0.76258536  0.84638074  1
  H+  H5  1  0.17303717  0.28432607  0.00859473  1
  H+  H6  1  0.83432019  0.91511214  0.40304365  1
  H+  H7  1  0.46028600  0.59922882  0.16845171  1
  H+  H8  1  0.24078956  0.40410551  0.14895037  1
  H+  H9  1  0.89054833  0.59852808  0.18357465  1
  H+  H10  1  0.32264456  0.36150759  -0.00194731  1
  H+  H11  1  0.82771625  0.69393366  0.83459908  1
  H+  H12  1  0.28855678  0.39062591  0.82412339  1
  H+  H13  1  0.59883575  0.36505718  0.65015760  1
  H+  H14  1  0.64332471  0.63073187  0.66274363  1
  H+  H15  1  0.77787158  0.63601256  0.35038019  1
  H+  H16  1  0.58236086  0.42200102  0.41602040  1
  H+  H17  1  0.13969218  0.11715090  0.31909143  1
  H+  H18  1  0.78036324  0.89093114  0.84060206  1
  H+  H19  1  0.99993915  0.59896797  0.33778294  1
  H+  H20  1  0.14544932  0.85178323  0.65147193  1
  H+  H21  1  0.53285008  0.64841746  0.83330685  1
  H+  H22  1  0.44317360  0.36629164  -0.00751602  1
  H+  H23  1  0.37517030  0.81202194  0.29927599  1
  H+  H24  1  0.88795314  0.14510067  0.16028295  1
  H+  H25  1  0.59446034  0.62192600  1.01246279  1
  H+  H26  1  0.77530314  0.13271205  0.33238005  1
  H+  H27  1  0.66306139  0.39984576  1.02524141  1
  H+  H28  1  0.36988651  0.34211653  0.17933120  1
  H+  H29  1  0.59347435  0.45413854  0.81122360  1
  H+  H30  1  0.61876791  0.26205926  0.53713370  1
  H+  H31  1  0.07553361  0.36572035  0.85079681  1
  H+  H32  1  0.88544780  0.11256016  0.50401799  1
  H+  H33  1  0.46539457  0.56323868  0.30081741  1
  H+  H34  1  0.61193998  0.90733191  0.66884618  1
  H+  H35  1  0.37679728  0.62060906  0.50817251  1
  H+  H36  1  0.66408856  0.34155765  0.17322914  1
  H+  H37  1  0.35825905  0.63501848  1.00556856  1
  H+  H38  1  0.02409985  0.89523923  0.33311707  1
  H+  H39  1  0.67576428  0.90175221  0.98088505  1
  H+  H40  1  0.12024298  0.63522436  1.00724012  1
  H+  H41  1  0.62792775  0.73223504  0.83365853  1
  H+  H42  1  0.59002247  0.74878806  0.01306032  1
  H+  H43  1  0.88507256  0.59140084  0.66878240  1
  H+  H44  1  0.17115441  0.07452537  0.22622870  1
  H+  H45  1  0.51103728  0.39289059  0.16539891  1
  H+  H46  1  0.14257729  0.94805875  0.73841936  1
  H+  H47  1  0.77656450  0.91072350  -0.01557653  1
  H+  H48  1  0.95683634  0.38793988  0.25977949  1
  H+  H49  1  0.35499347  0.62533596  0.82788267  1
  H+  H50  1  0.27190336  0.63919810  0.00435475  1
  H+  H51  1  0.52719258  0.66415628  0.35245325  1
  H+  H52  1  0.36602961  0.14458768  0.67022189  1
  H+  H53  1  0.14265190  0.86947308  0.99228060  1
  H+  H54  1  0.26512434  0.13614416  0.32506025  1
  H+  H55  1  0.51137182  0.85364375  0.84020461  1
  H+  H56  1  0.54523274  0.90894507  0.35797513  1
  H+  H57  1  0.52700060  0.87441840  0.51793486  1
  H+  H58  1  0.26354977  0.37506688  0.33476881  1
  H+  H59  1  0.38069248  0.27107476  0.66131484  1
  H+  H60  1  0.13623751  0.59750210  0.17511616  1
  H+  H61  1  0.77598266  0.88727343  0.49791043  1
  H+  H62  1  0.79162716  0.15338822  0.99033844  1
  H+  H63  1  0.48028702  0.87325503  0.67520413  1
  H+  H64  1  0.16437741  0.57961030  0.93489618  1
  H+  H65  1  0.37460507  0.89811197  0.68432622  1
  H+  H66  1  0.70154796  0.57807714  0.82172834  1
  H+  H67  1  0.36245976  0.13743103  0.32812541  1
  H+  H68  1  0.30102083  0.92246685  0.67737221  1
  H+  H69  1  0.95043543  0.63906246  0.93629971  1
  H+  H70  1  0.86985953  0.64226654  0.01076092  1
  H+  H71  1  0.91804148  0.57127920  0.60779587  1
  H+  H72  1  0.90823393  0.87368380  0.98593182  1
  H+  H73  1  0.32861458  0.87641264  0.83973540  1
  H+  H74  1  0.60468938  0.14234392  0.35112295  1
  H+  H75  1  0.13831039  0.15638577  1.01579824  1
  H+  H76  1  0.34714674  1.00218044  0.50396430  1
  H+  H77  1  0.40821503  0.82869426  0.84439094  1
  H+  H78  1  0.48305669  0.35856403  0.49725128  1
  H+  H79  1  0.88808772  0.61075983  0.52057511  1
  H+  H80  1  0.21997593  0.87236167  0.49809905  1
  H+  H81  1  0.52645799  0.65297285  0.67741312  1
  H+  H82  1  0.50216546  0.12080937  0.17563540  1
  H+  H83  1  0.10894495  0.19483350  0.17486254  1
  H+  H84  1  0.86851031  0.72066888  0.66412929  1
  H+  H85  1  0.21004973  0.59193643  0.83903554  1
  H+  H86  1  0.33500503  0.89340670  0.35291886  1
  H+  H87  1  0.11098795  0.13842479  0.49126643  1
  H+  H88  1  0.11310498  0.42466096  0.07256922  1
  H+  H89  1  0.16762766  0.95707201  0.84735839  1
  H+  H90  1  0.12752846  0.60366190  0.84190163  1
  H+  H91  1  -0.00504720  0.63205315  -0.00405971  1
  H+  H92  1  0.47477585  0.36317957  0.33761732  1
  H+  H93  1  0.39281887  0.36808245  0.66151906  1
  H+  H94  1  1.00798740  0.40717033  0.32829147  1
  H+  H95  1  0.72077989  0.11120070  0.50610539  1
  H+  H96  1  0.88091188  0.48100761  0.99655893  1
  H+  H97  1  0.38006769  0.76443825  0.15208893  1
  H+  H98  1  0.62204398  0.25789305  0.63646705  1
  H+  H99  1  0.72763351  0.35175598  0.79945544  1
  H+  H100  1  0.10955061  0.73791522  0.33665300  1
  H+  H101  1  0.14691318  0.52611446  0.99717983  1
  H+  H102  1  0.13791453  0.03488821  0.65884290  1
  H+  H103  1  0.62920627  0.60229933  0.83245621  1
  H+  H104  1  0.24297527  0.87578982  0.98712147  1
  H+  H105  1  0.48596277  0.11642345  -0.01467460  1
  H+  H106  1  0.61876514  0.12356200  0.15257592  1
  H+  H107  1  0.85362299  0.33930663  0.81674166  1
  H+  H108  1  0.84711653  0.44603891  0.76110142  1
  H+  H109  1  0.60765005  0.93463730  0.82104162  1
  H+  H110  1  0.64263512  0.22618306  -0.00977673  1
  H+  H111  1  1.00112484  0.36475290  0.99983938  1
  H+  H112  1  0.01681840  0.62463301  0.82724800  1
  H+  H113  1  0.85617833  0.38099371  0.71566958  1
  H+  H114  1  0.14553159  0.61761113  0.66475158  1
  H+  H115  1  0.13466673  0.62515958  0.33263644  1
  H+  H116  1  0.99089921  0.85755272  0.63788782  1
  H+  H117  1  0.89152313  0.74481648  0.17721783  1
  H+  H118  1  0.77914244  0.88950739  0.34026790  1
  H+  H119  1  0.63739538  0.62348774  0.33616588  1
  H+  H120  1  0.37046876  0.89386358  0.13139071  1
  H+  H121  1  0.61472596  0.38579649  0.51042282  1
  H+  H122  1  0.35758483  0.22078627  0.82368473  1
  H+  H123  1  0.42333889  0.39513326  0.49082930  1
  H+  H124  1  -0.07930360  0.33578142  0.86033329  1
  H+  H125  1  0.63188859  0.04956820  0.28889882  1
  H+  H126  1  0.62950950  0.78499059  0.66705431  1
  H+  H127  1  0.85902317  0.09379304  0.65864796  1
  H+  H128  1  0.48141782  0.60609218  0.50852193  1
  H+  H129  1  0.13770599  0.02685770  0.32093729  1
  H+  H130  1  0.89958863  1.00400662  -0.01737147  1
  H+  H131  1  0.39110916  0.77867258  0.67677508  1
  H+  H132  1  0.11902377  0.56267748  0.50807965  1
  H+  H133  1  0.02780342  0.61583116  0.16368780  1
  H+  H134  1  0.34967247  0.62410333  0.35727359  1
  H+  H135  1  0.86520651  0.35296728  0.51359285  1
  H+  H136  1  0.15552176  0.09574324  0.15855574  1
  H+  H137  1  0.83492865  0.65720285  0.44732838  1
  H+  H138  1  0.84276072  0.92354891  0.14769063  1
  H+  H139  1  0.38503942  0.11543624  0.83433643  1
  H+  H140  1  0.62084679  0.35863409  0.02333057  1
  H+  H141  1  0.47328349  0.34696166  0.83720767  1
  H+  H142  1  0.15446866  0.66411372  0.50756989  1
  H+  H143  1  0.36512248  0.97913961  -0.00937325  1
  H+  H144  1  0.13732476  0.24219943  0.66525201  1
  H+  H145  1  0.86695654  0.21329817  0.33386442  1
  H+  H146  1  0.49389842  0.13939779  0.65549795  1
  H+  H147  1  0.00854416  0.61261296  0.67958755  1
  H+  H148  1  0.39983567  0.56853648  0.25827055  1
  H+  H149  1  0.88758904  0.10306107  0.33150790  1
  H+  H150  1  0.75459214  0.37763357  0.51879792  1
  H+  H151  1  0.24364308  0.38459162  0.65709745  1
  H+  H152  1  0.54032471  0.88945845  -0.01051772  1
  H+  H153  1  0.09486607  0.39556833  0.50154273  1
  H+  H154  1  0.60217892  0.22825626  0.34854618  1
  H+  H155  1  0.96781711  0.47575598  0.30542339  1
  H+  H156  1  0.72750699  0.60629720  0.98967234  1
  H+  H157  1  0.34381083  0.91350577  0.48830658  1
  H+  H158  1  0.33209437  0.16640658  0.76135556  1
  H+  H159  1  0.86083549  0.22836017  0.66627000  1
  H+  H160  1  0.09785775  0.17555737  0.72112258  1
  H+  H161  1  0.98207901  0.37128888  0.67303694  1
  H+  H162  1  0.45286187  0.58537753  -0.00156792  1
  H+  H163  1  0.69662454  0.83968862  0.17199139  1
  H+  H164  1  1.02074861  0.86808616  0.15561792  1
  H+  H165  1  0.29257320  -0.09105900  0.14433092  1
  H+  H166  1  0.71206032  0.88023974  0.66509720  1
  H+  H167  1  0.51561316  0.89451529  0.85473351  1
  H+  H168  1  0.09887728  0.20181433  0.82268369  1
  H+  H169  1  0.88685916  0.88069774  0.49953647  1
  H+  H170  1  0.71722792  0.87800610  0.91617424  1
  H+  H171  1  0.11255070  0.98151873  0.48993490  1
  H+  H172  1  0.64492922  0.86023577  0.51509836  1
  H+  H173  1  0.58488634  0.48545067  0.00446410  1
  H+  H174  1  0.37464793  0.13891010  1.00160121  1
  H+  H175  1  0.38954203  0.62144525  0.66273950  1
  H+  H176  1  0.40972169  0.32405996  0.89619770  1
  H+  H177  1  0.94200147  0.96119690  0.14779103  1
  H+  H178  1  0.38747308  0.83364066  0.52816980  1
  H+  H179  1  0.49327154  0.36016165  0.66059791  1
  H+  H180  1  0.60150628  0.87237272  0.14737513  1
  H+  H181  1  0.26843625  0.63088523  0.16106104  1
  H+  H182  1  0.28740079  0.11918111  0.16156440  1
  H+  H183  1  0.21892476  0.11235321  0.50221532  1
  H+  H184  1  0.63123801  0.53244369  0.33941760  1
  H+  H185  1  0.88893967  0.85813036  0.32694351  1
  H+  H186  1  0.88735896  1.00752013  0.33891654  1
  H+  H187  1  0.77667587  0.15711033  0.13618602  1
  H+  H188  1  0.61694986  0.38105211  0.81209398  1
  H+  H189  1  0.64866266  0.87264383  0.33147227  1
  H+  H190  1  0.40006590  0.52865656  0.83807634  1
  H+  H191  1  0.40446061  0.11804718  0.17424390  1
  H+  H192  1  0.63469782  0.98504362  0.37702016  1
  H+  H193  1  0.91393572  0.91849032  0.83785143  1
  H+  H194  1  0.06509296  0.40199744  0.41606558  1
  H+  H195  1  0.64805591  1.02885817  -0.02072154  1
  H+  H196  1  0.37103806  0.26668300  0.99133496  1
  H+  H197  1  0.10775335  0.12011945  0.81166976  1
  H+  H198  1  0.75991723  0.35391040  0.18231300  1
  H+  H199  1  0.38719692  0.51606559  0.50714383  1
  H+  H200  1  0.38318115  0.35933610  0.33233422  1
  H+  H201  1  0.46532142  0.11353712  0.51501651  1
  H+  H202  1  1.00522527  0.39232192  0.49711168  1
  H+  H203  1  0.91551534  0.87573580  0.65467061  1
  H+  H204  1  0.63348744  0.60472300  0.51400646  1
  H+  H205  1  0.59316116  0.32523411  0.29674605  1
  H+  H206  1  0.63380565  0.02066164  0.51465515  1
  H+  H207  1  0.27935588  0.64881068  0.66997229  1
  H+  H208  1  0.77594956  0.29483849  0.91681076  1
  H+  H209  1  -0.01700870  0.87951432  0.49537312  1
  H+  H210  1  0.34854821  0.22603367  0.48698759  1
  H+  H211  1  0.62129074  0.74228711  0.34670863  1
  H+  H212  1  0.82305316  0.88423359  0.70300559  1
  H+  H213  1  0.35144254  0.46348287  0.33540487  1
  H+  H214  1  0.90429899  0.06607190  0.16499025  1
  H+  H215  1  1.03312472  0.88212176  0.99873850  1
  H+  H216  1  0.23365531  0.11630264  1.00093938  1
  H+  H217  1  0.01853081  0.31573535  0.37834075  1
  H+  H218  1  0.21817038  0.87709711  0.32573350  1
  H+  H219  1  0.20789177  0.85499019  0.84297197  1
  H+  H220  1  1.01465149  0.17777952  0.16079619  1
  H+  H221  1  0.05885189  0.86929705  0.72005437  1
  H+  H222  1  0.63282673  0.12821790  0.83406448  1
  H+  H223  1  0.40717119  0.04774361  0.66890301  1
  H+  H224  1  0.74831409  0.39367599  0.34980194  1
  H+  H225  1  0.36269950  0.23254264  0.33246845  1
  H+  H226  1  0.86364649  0.98160720  0.49343634  1
  H+  H227  1  0.77410579  0.62761480  0.50473898  1
  H+  H228  1  0.86658362  0.46696545  0.17453350  1
  H+  H229  1  1.03056154  0.90564752  0.84392938  1
  H+  H230  1  0.72594865  0.62004298  0.66364541  1
  H+  H231  1  0.37428767  0.60799024  0.16525017  1
  H+  H232  1  0.10946572  0.95869815  0.15535835  1
  H+  H233  1  0.98445976  0.10858969  0.33542288  1
  H+  H234  1  0.90326836  0.28361945  0.17508185  1
  H+  H235  1  0.35810218  0.50919530  0.98573691  1
  H+  H236  1  0.38364271  0.03275527  0.32781059  1
  H+  H237  1  0.35047595  0.14073384  0.49915247  1
  H+  H238  1  0.37059425  0.71277529  0.51709382  1
  H+  H239  1  0.38935517  0.77465326  -0.00279511  1
  H+  H240  1  0.89532270  0.12597773  -0.03018258  1
  H+  H241  1  0.67697004  1.06223523  0.82778125  1
  H+  H242  1  0.63640003  1.00524431  0.15735239  1
  H+  H243  1  0.20138061  0.59309192  0.34159191  1
  H+  H244  1  0.75579592  0.43880112  0.82841568  1
  H+  H245  1  0.12709386  0.72695409  0.01307264  1
  H+  H246  1  0.37991411  0.02440482  0.84011877  1
  H+  H247  1  0.64478841  0.11649791  -0.01456944  1
  H+  H248  1  0.08833152  0.45937761  0.84049574  1
  H+  H249  1  0.14729522  0.80580429  0.54844359  1
  H+  H250  1  0.61020638  0.75319723  0.17742219  1
  H+  H251  1  0.03305256  0.29849787  0.71926663  1
  H+  H252  1  0.87754634  -0.02046289  0.67523861  1
  H+  H253  1  0.13641531  0.47729921  0.17466048  1
  H+  H254  1  0.86909137  0.71749683  0.35045040  1
  H+  H255  1  0.86215773  0.72509247  0.01298618  1
  H+  H256  1  0.56293603  0.76268056  0.99618491  1
  H+  H257  1  0.82330726  0.37647770  0.36121057  1
  H+  H258  1  0.10892246  0.22403557  0.33484313  1
  H+  H259  1  0.27307653  0.13956806  0.66746975  1
  H+  H260  1  0.14485931  0.31045853  0.91509896  1
  H+  H261  1  0.33045084  0.69940057  0.83275784  1
  H+  H262  1  0.63317647  0.13119620  0.65533932  1
  H+  H263  1  0.37353341  0.38486672  0.82607277  1
  H+  H264  1  0.85518686  0.22373891  0.49651553  1
  H+  H265  1  0.14232910  1.03157589  0.00004812  1
  H+  H266  1  0.14416288  0.12777029  0.65439908  1
  H+  H267  1  0.31164199  0.36436846  0.49173962  1
  H+  H268  1  0.63601236  0.53353821  0.18277437  1
  H+  H269  1  0.59827806  0.40357061  0.14017064  1
  H+  H270  1  0.22720248  0.09931503  0.82608190  1
  H+  H271  1  0.20067335  0.80658675  0.63643824  1
  H+  H272  1  0.36924398  0.21397421  0.16514070  1
  H+  H273  1  0.12878129  0.86959648  0.31666919  1
  H+  H274  1  0.88348954  0.52100322  0.52116296  1
  H+  H275  1  0.09039046  0.70509175  0.67419137  1
  H+  H276  1  0.32769300  0.69940243  0.36219571  1
  H+  H277  1  0.91693009  0.37320669  -0.00318464  1
  H+  H278  1  0.20139694  0.37039559  0.50210704  1
  H+  H279  1  0.60235871  0.13224139  0.50466068  1
  H+  H280  1  0.77684635  0.62557144  0.16727087  1
  H+  H281  1  0.76885111  0.14689108  0.67152606  1
  H+  H282  1  0.87429535  0.82030452  0.17299266  1
  H+  H283  1  0.60305212  0.22537084  0.82299728  1
  H+  H284  1  0.94872224  0.81067991  0.83466218  1
  H+  H285  1  0.13173005  0.36005121  0.33158752  1
  H+  H286  1  0.51686270  0.13530882  0.82259595  1
  H+  H287  1  0.62272572  0.41112153  0.35635959  1
  H+  H288  1  0.15606044  0.34699499  0.26496771  1
  H+  H289  1  0.58703967  0.67125400  0.44314049  1
  H+  H290  1  0.42179904  0.58826008  0.60580395  1
  H+  H291  1  0.14970108  0.37260607  0.66762089  1
  H+  H292  1  0.61740236  0.47724150  0.50682431  1
  H+  H293  1  0.59618827  0.91849344  0.04937927  1
  H+  H294  1  0.59347141  0.19707238  0.70908579  1
  H+  H295  1  0.61416839  0.99913708  0.67121568  1
  H+  H296  1  0.71370513  0.32862226  0.90619730  1
  H+  H297  1  0.41122052  0.32758594  0.23883138  1
  H+  H298  1  0.66696817  0.31899976  0.26365301  1
  H+  H299  1  0.29736537  0.41139687  0.08434743  1
  H+  H300  1  0.17913761  0.61066813  0.59951715  1
  H+  H301  1  0.54477193  0.43851496  0.06812496  1
  H+  H302  1  0.32261283  0.65794118  0.09694244  1
  H+  H303  1  0.37095328  0.80775057  0.90912328  1
  H+  H304  1  0.42423721  0.09028440  0.92714637  1
  H+  H305  1  0.14957479  0.40058069  1.01454118  1
  H+  H306  1  0.10218313  0.88577861  0.48243283  1
  H+  H307  1  0.68277607  0.14096979  0.26525016  1
  H+  H308  1  0.58732059  0.68347771  0.73652383  1
  H+  H309  1  0.57451071  0.17116555  0.45027374  1
  H+  H310  1  0.60283191  0.17936295  0.05473713  1
  H+  H311  1  0.37959734  0.48808071  0.67393465  1
  H+  H312  1  0.61503816  0.72371029  0.50502148  1
  H+  H313  1  0.84332940  0.18705856  0.08091691  1
  H+  H314  1  0.08800305  0.90649997  0.05996870  1
  H+  H315  1  0.84749644  0.67867406  0.72916629  1
  H+  H316  1  0.41755521  0.58317308  0.89845705  1
  H+  H317  1  0.33113719  0.66371504  0.73284276  1
  H+  H318  1  0.66980853  0.57489296  0.92866598  1
  H+  H319  1  0.64219204  0.96280155  0.75596465  1
  H+  H320  1  0.90739090  0.33146982  0.56918221  1
  H+  H321  1  0.88360382  0.52821038  0.88597213  1
  H+  H322  1  0.66252911  0.58029621  0.57617809  1
  H+  H323  1  0.66535188  0.09423653  0.60165694  1
  H+  H324  1  0.97499468  0.11293544  0.50320512  1
  H+  H325  1  0.90048441  0.51989255  0.34163236  1
  H+  H326  1  0.67602633  0.83250182  0.57211395  1
  H+  H327  1  0.34379644  0.48370499  0.14551971  1
  H+  H328  1  0.94086925  0.84086762  0.93111924  1
  H+  H329  1  0.99904374  0.36401207  0.17441322  1
  H+  H330  1  0.43736953  0.09482289  0.24032094  1
  H+  H331  1  0.07791759  0.66064951  0.77018551  1
  H+  H332  1  0.39079883  0.86470519  0.99244586  1
  H+  H333  1  0.83463114  0.65125546  0.10653509  1
  H+  H334  1  0.10254678  0.19472223  0.06906826  1
  H+  H335  1  0.89098496  0.06414909  0.60075738  1
  H+  H336  1  0.67034645  0.59168171  0.24270663  1
  H+  H337  1  0.34851269  0.16445268  0.06413202  1
  H+  H338  1  0.92875575  0.57039792  0.24041058  1
  H+  H339  1  0.80699833  0.38510924  -0.01232448  1
  H+  H340  1  0.18994802  0.85718678  0.22618032  1
  H+  H341  1  0.40954426  0.09014111  0.57607947  1
  H+  H342  1  0.08522995  0.92881560  0.39128733  1
  H+  H343  1  0.71568706  0.05781354  0.20003210  1
  H+  H344  1  0.88279139  0.95809225  0.04774406  1
  H+  H345  1  0.80097856  0.40880417  0.45439428  1
  H+  H346  1  0.06078907  0.38149043  0.75743077  1
  H+  H347  1  0.82979334  0.16575997  0.43612037  1
  H+  H348  1  0.15852762  0.08034850  0.56123556  1
  H+  H349  1  0.15465249  0.87101074  0.16403337  1
  H+  H350  1  0.56630151  0.64246724  0.11004926  1
  H+  H351  1  0.87923841  0.38429792  0.16939436  1
  H+  H352  1  0.91725972  0.82168921  0.27030179  1
  H+  H353  1  0.60602862  0.63201961  0.17234082  1
  H+  H354  1  0.95138656  0.43172565  0.64348594  1
  H+  H355  1  0.88534515  0.24084533  -0.00399008  1
  H+  H356  1  0.67234899  0.09982199  0.89875790  1
  H+  H357  1  0.51841583  0.87946758  0.13513533  1
  H+  H358  1  0.27577067  0.76363873  0.29997822  1
  H+  H359  1  0.63300863  0.21761340  0.16234440  1
  H+  H360  1  0.57368938  0.38779727  0.71873015  1
  H+  H361  1  0.05032628  0.24197523  0.89666878  1
  H+  H362  1  0.92099227  0.84208656  0.55839210  1
  H+  H363  1  0.87901423  0.64828152  0.81823324  1
  H+  H364  1  0.08882522  0.64975813  0.10571786  1
  H+  H365  1  0.33137273  0.65336481  0.45288322  1
  H+  H366  1  0.08688974  0.16938717  0.39761124  1
  H+  H367  1  0.34784160  0.42398398  0.73062039  1
  H+  H368  1  0.58087115  0.90404675  0.45633610  1
  H+  H369  1  0.42094437  0.81985670  0.59096732  1
  H+  H370  1  0.41768452  0.84084424  0.19987476  1
  H+  H371  1  0.11920794  0.31275414  0.16603896  1
  H+  H372  1  0.16933672  0.57974022  0.23884603  1
  H+  H373  1  0.31493216  0.94368681  0.40405826  1
  H+  H374  1  0.66398575  0.83398105  0.26966091  1
  H+  H375  1  0.69971291  0.90334925  0.83078773  1
  H+  H376  1  0.32224608  0.91826127  0.77732344  1
  H+  H377  1  0.52655681  0.53830119  0.04050130  1
  H+  H378  1  0.15677916  0.34192589  0.56613718  1
  H+  H379  1  0.84743868  0.19911638  0.77333941  1
  H+  H380  1  0.33456034  0.92319472  0.05287590  1
  H+  H381  1  0.31555793  0.41097340  0.42998545  1
  H+  H382  1  0.89037357  0.95542949  0.78099120  1
  H+  H383  1  0.10603660  0.70616154  0.40429873  1
  O2-  O384  1  0.07867333  0.21369086  0.14794564  1
  O2-  O385  1  0.08114098  0.16836145  0.47383266  1
  O2-  O386  1  0.08152928  0.15260393  0.79538446  1
  O2-  O387  1  0.10765894  0.41540564  0.15585084  1
  O2-  O388  1  0.06553696  0.42387675  0.48151342  1
  O2-  O389  1  0.05263765  0.39803943  0.82871069  1
  O2-  O390  1  0.08813471  0.64137164  0.15022585  1
  O2-  O391  1  0.15819690  0.74941794  0.47037737  1
  O2-  O392  1  0.07801221  0.66187168  0.81617475  1
  O2-  O393  1  0.07783194  0.90140232  0.13598106  1
  O2-  O394  1  0.07715267  0.92154436  0.47093459  1
  O2-  O395  1  0.13909097  0.97614831  0.81815661  1
  O2-  O396  1  0.34932936  0.15487899  0.14996239  1
  O2-  O397  1  0.31639108  0.16345462  0.47964959  1
  O2-  O398  1  0.33047974  0.16100942  0.80702213  1
  O2-  O399  1  0.30081755  0.42136131  0.13109143  1
  O2-  O400  1  0.31234279  0.41541489  0.47539878  1
  O2-  O401  1  0.34840609  0.42091965  0.81109606  1
  O2-  O402  1  0.32795245  0.66129572  0.14278710  1
  O2-  O403  1  0.34248651  0.65333638  0.49828403  1
  O2-  O404  1  0.31586573  0.64500260  0.81168287  1
  O2-  O405  1  0.34714864  0.93115907  0.12007340  1
  O2-  O406  1  0.31013045  0.94166164  0.48215725  1
  O2-  O407  1  0.31077459  0.91622147  0.82180786  1
  O2-  O408  1  0.59274613  0.15940600  0.14398679  1
  O2-  O409  1  0.57143363  0.16409007  0.49490095  1
  O2-  O410  1  0.57866214  0.16638898  0.80867679  1
  O2-  O411  1  0.56702737  0.43423660  0.14597324  1
  O2-  O412  1  0.59053051  0.41715927  0.48838298  1
  O2-  O413  1  0.57129818  0.39383744  0.79816203  1
  O2-  O414  1  0.56861479  0.65373536  0.15504110  1
  O2-  O415  1  0.58117158  0.66433437  0.48793823  1
  O2-  O416  1  0.59286579  0.67406404  0.81683120  1
  O2-  O417  1  0.58186501  0.90872719  0.12667632  1
  O2-  O418  1  0.58609885  0.90851997  0.50096874  1
  O2-  O419  1  0.66252522  0.97045647  0.79979212  1
  O2-  O420  1  0.83813871  0.19111327  0.12696455  1
  O2-  O421  1  0.82766266  0.16302837  0.48079375  1
  O2-  O422  1  0.85491968  0.19212824  0.81705331  1
  O2-  O423  1  0.83769530  0.40449175  0.16262279  1
  O2-  O424  1  0.81120154  0.40356348  0.49779434  1
  O2-  O425  1  0.83645809  0.52783372  0.80587458  1
  O2-  O426  1  0.83658804  0.64841247  0.15207513  1
  O2-  O427  1  0.83511092  0.65890729  0.49245206  1
  O2-  O428  1  0.87694730  0.70205912  0.81091316  1
  O2-  O429  1  0.89613849  0.96761803  0.12943354  1
  O2-  O430  1  0.83496240  0.91956403  0.47864222  1
  O2-  O431  1  0.88118879  0.94734401  0.82539807  1
  O2-  O432  1  0.17933532  0.06647542  0.18195836  1
  O2-  O433  1  0.15607447  0.07832604  0.51563980  1
  O2-  O434  1  0.16522520  0.06366632  0.83964544  1
  O2-  O435  1  0.15507093  0.37439958  0.18250457  1
  O2-  O436  1  0.14441638  0.33594006  0.52128611  1
  O2-  O437  1  0.10448900  0.28871827  0.88055149  1
  O2-  O438  1  0.17184992  0.57237466  0.19381415  1
  O2-  O439  1  0.16359064  0.61752632  0.52458929  1
  O2-  O440  1  0.15304494  0.56999523  0.85888681  1
  O2-  O441  1  0.20341486  0.86895962  0.18245473  1
  O2-  O442  1  0.15669643  0.82181596  0.50337126  1
  O2-  O443  1  0.15050431  0.82268543  0.86344190  1
  O2-  O444  1  0.44126804  0.09491536  0.19387881  1
  O2-  O445  1  0.40454164  0.08654308  0.52985843  1
  O2-  O446  1  0.41673955  0.08646343  0.85027669  1
  O2-  O447  1  0.40903503  0.32275986  0.19334210  1
  O2-  O448  1  0.42055124  0.34004741  0.49561918  1
  O2-  O449  1  0.41259739  0.32406316  0.85080288  1
  O2-  O450  1  0.39739344  0.56919853  0.17879220  1
  O2-  O451  1  0.41978598  0.57555855  0.52383583  1
  O2-  O452  1  0.42546556  0.58864447  0.85339256  1
  O2-  O453  1  0.41612532  0.82937686  0.15656233  1
  O2-  O454  1  0.42148253  0.81001843  0.54474924  1
  O2-  O455  1  0.35239513  0.80058543  0.86499482  1
  O2-  O456  1  0.67148594  0.06308489  0.17786978  1
  O2-  O457  1  0.66086063  0.08336599  0.52196281  1
  O2-  O458  1  0.67330931  0.10852313  0.85168027  1
  O2-  O459  1  0.68935039  0.31259240  0.19530304  1
  O2-  O460  1  0.64976863  0.32433525  0.54902436  1
  O2-  O461  1  0.70661513  0.37560259  0.83119200  1
  O2-  O462  1  0.67141109  0.59361909  0.19701596  1
  O2-  O463  1  0.66107770  0.57321311  0.53013529  1
  O2-  O464  1  0.64903214  0.56133456  0.84456526  1
  O2-  O465  1  0.64031072  0.81577734  0.19098175  1
  O2-  O466  1  0.67771198  0.83092470  0.52667841  1
  O2-  O467  1  0.71746093  0.86594592  0.85234499  1
  O2-  O468  1  0.92197977  0.12301469  0.18216948  1
  O2-  O469  1  0.91393559  0.07971499  0.51679011  1
  O2-  O470  1  0.92320978  0.10845932  0.88777453  1
  O2-  O471  1  0.94125247  0.34114277  0.19334314  1
  O2-  O472  1  0.90047267  0.32542548  0.52444563  1
  O2-  O473  1  0.85929984  0.31674379  0.85664160  1
  O2-  O474  1  0.92143813  0.56788846  0.19576256  1
  O2-  O475  1  0.91842006  0.58026510  0.53585479  1
  O2-  O476  1  0.90642709  0.56827059  0.85184696  1
  O2-  O477  1  0.91725070  0.80778948  0.18921950  1
  O2-  O478  1  0.92161378  0.85121335  0.51256074  1
  O2-  O479  1  0.96967755  0.86645941  0.85563239  1
  O2-  O480  1  0.17064086  0.08783850  0.30358194  1
  O2-  O481  1  0.17035803  0.09079707  0.63905357  1
  O2-  O482  1  0.17186731  0.09384408  0.99291371  1
  O2-  O483  1  0.15979434  0.33334362  0.30805368  1
  O2-  O484  1  0.18336637  0.35511526  0.64170887  1
  O2-  O485  1  0.20579951  0.35033524  0.99021496  1
  O2-  O486  1  0.15530787  0.58766184  0.31490806  1
  O2-  O487  1  0.18687115  0.60513685  0.64401085  1
  O2-  O488  1  0.17066349  0.58554034  0.98042159  1
  O2-  O489  1  0.16221343  0.84115666  0.30526819  1
  O2-  O490  1  0.15020673  0.80992344  0.62441055  1
  O2-  O491  1  0.17594462  0.83959707  0.97549940  1
  O2-  O492  1  0.41829867  0.09354362  0.31150469  1
  O2-  O493  1  0.42638205  0.10263898  0.64783374  1
  O2-  O494  1  0.42482945  0.08664940  0.97270606  1
  O2-  O495  1  0.41666428  0.33142656  0.31798920  1
  O2-  O496  1  0.41737853  0.33206240  0.64644034  1
  O2-  O497  1  0.38643959  0.32441296  0.97436143  1
  O2-  O498  1  0.41275608  0.56639099  0.30246437  1
  O2-  O499  1  0.42359344  0.59318460  0.65061929  1
  O2-  O500  1  0.39828256  0.57044653  0.97674819  1
  O2-  O501  1  0.32607412  0.78944641  0.32673689  1
  O2-  O502  1  0.41943955  0.83984035  0.66024304  1
  O2-  O503  1  0.41903874  0.83256180  0.97735924  1
  O2-  O504  1  0.67062059  0.10810007  0.30310401  1
  O2-  O505  1  0.66323567  0.09657291  0.64673775  1
  O2-  O506  1  0.67598912  0.08980266  0.96531379  1
  O2-  O507  1  0.64457173  0.32197358  0.30610263  1
  O2-  O508  1  0.65334697  0.32722462  0.61610736  1
  O2-  O509  1  0.72992239  0.30016001  0.93782606  1
  O2-  O510  1  0.66292219  0.58990600  0.32006271  1
  O2-  O511  1  0.66645161  0.59461610  0.64813565  1
  O2-  O512  1  0.66800978  0.57844371  0.97345991  1
  O2-  O513  1  0.67574162  0.84089482  0.31432010  1
  O2-  O514  1  0.65593470  0.84411196  0.64673585  1
  O2-  O515  1  0.71647094  0.88279573  0.96479542  1
  O2-  O516  1  0.92048719  0.07235490  0.32306975  1
  O2-  O517  1  0.86397931  0.04537519  0.64107085  1
  O2-  O518  1  0.92577759  0.09595001  0.95334981  1
  O2-  O519  1  0.96517581  0.41484049  0.30172990  1
  O2-  O520  1  0.93314435  0.37138806  0.65084969  1
  O2-  O521  1  0.94208905  0.33714852  0.98394268  1
  O2-  O522  1  0.95305191  0.54623620  0.31639239  1
  O2-  O523  1  0.91707329  0.56383971  0.65385100  1
  O2-  O524  1  0.93721998  0.61271689  0.97658988  1
  O2-  O525  1  0.92255348  0.83070008  0.31497496  1
  O2-  O526  1  0.93018366  0.83685029  0.63039831  1
  O2-  O527  1  0.93060450  0.83458013  0.97593878  1
  O2-  O528  1  0.11974742  0.19975506  0.02614621  1
  O2-  O529  1  0.08220403  0.16455482  0.35158928  1
  O2-  O530  1  0.10520789  0.18053914  0.67584847  1
  O2-  O531  1  0.11477944  0.42696563  0.02777483  1
  O2-  O532  1  0.05777853  0.37687044  0.37154545  1
  O2-  O533  1  0.05796199  0.36029840  0.71380656  1
  O2-  O534  1  0.09157221  0.66636478  0.02484064  1
  O2-  O535  1  0.08901286  0.68455006  0.36123127  1
  O2-  O536  1  0.07092000  0.65051689  0.69530141  1
  O2-  O537  1  0.09383849  0.91074358  0.01457092  1
  O2-  O538  1  0.08607447  0.93085527  0.34601223  1
  O2-  O539  1  0.11325635  0.91237676  0.70212642  1
  O2-  O540  1  0.34441832  0.16776445  0.01964414  1
  O2-  O541  1  0.32865497  0.16725995  0.33944394  1
  O2-  O542  1  0.33213470  0.17144763  0.68559613  1
  O2-  O543  1  0.29451964  0.39513037  0.01427401  1
  O2-  O544  1  0.32276713  0.40427706  0.35254106  1
  O2-  O545  1  0.34848168  0.42587355  0.68538658  1
  O2-  O546  1  0.33187287  0.66829286  0.02185664  1
  O2-  O547  1  0.31625597  0.64404224  0.38035612  1
  O2-  O548  1  0.34029412  0.67568552  0.68836266  1
  O2-  O549  1  0.33106139  0.91831823  0.00533980  1
  O2-  O550  1  0.32098279  0.93938545  0.35917326  1
  O2-  O551  1  0.35177092  0.93511243  0.70092978  1
  O2-  O552  1  0.59892491  0.17206600  0.01015804  1
  O2-  O553  1  0.57194902  0.16914409  0.36611563  1
  O2-  O554  1  0.58625988  0.18540550  0.66538852  1
  O2-  O555  1  0.52988441  0.44851451  0.02679663  1
  O2-  O556  1  0.57868428  0.42409694  0.36970729  1
  O2-  O557  1  0.56636014  0.38890380  0.67373374  1
  O2-  O558  1  0.54308239  0.60060543  0.03850614  1
  O2-  O559  1  0.58658079  0.68257765  0.36338477  1
  O2-  O560  1  0.58733378  0.68898941  0.69151673  1
  O2-  O561  1  0.60068826  0.92371919  0.00400829  1
  O2-  O562  1  0.60107870  0.92249261  0.37442632  1
  O2-  O563  1  0.58806993  0.93949699  0.69033641  1
  O2-  O564  1  0.84941766  0.17668769  0.00819265  1
  O2-  O565  1  0.83396140  0.15452284  0.34908735  1
  O2-  O566  1  0.83040680  0.17058483  0.68323324  1
  O2-  O567  1  0.85830159  0.42286045  0.01243251  1
  O2-  O568  1  0.80437892  0.41746865  0.37026411  1
  O2-  O569  1  0.82954422  0.38482849  0.75353062  1
  O2-  O570  1  0.83351288  0.66501343  0.02780834  1
  O2-  O571  1  0.83678669  0.65798072  0.36530203  1
  O2-  O572  1  0.83638182  0.66541361  0.68542800  1
  O2-  O573  1  0.87110089  0.94611357  0.00385581  1
  O2-  O574  1  0.83892252  0.91891455  0.35721303  1
  O2-  O575  1  0.88187214  0.93043742  0.69694475  1
