# generated using pymatgen
data_H2O
_symmetry_space_group_name_H-M   'P 1'
_cell_length_a   17.98482184
_cell_length_b   17.98684824
_cell_length_c   21.99463408
_cell_angle_alpha   89.96655509
_cell_angle_beta   90.04162942
_cell_angle_gamma   119.99097920
_symmetry_Int_Tables_number   1
_chemical_formula_structural   H2O
_chemical_formula_sum   'H384 O192'
_cell_volume   6162.37218099
_cell_formula_units_Z   192
loop_
 _symmetry_equiv_pos_site_id
 _symmetry_equiv_pos_as_xyz
  1  'x, y, z'
loop_
 _atom_type_symbol
 _atom_type_oxidation_number
  H+  1.0
  O2-  -2.0
loop_
 _atom_site_type_symbol
 _atom_site_label
 _atom_site_symmetry_multiplicity
 _atom_site_fract_x
 _atom_site_fract_y
 _atom_site_fract_z
 _atom_site_occupancy
  H+  H0  1  0.14187878  0.35939373  0.30357365  1
  H+  H1  1  0.48717667  0.40986830  -0.01545055  1
  H+  H2  1  0.04537309  0.65165833  0.01992765  1
  H+  H3  1  0.50895227  0.89409641  -0.00438538  1
  H+  H4  1  0.02970174  0.63729598  0.49211370  1
  H+  H5  1  0.67830602  0.56320662  0.16670157  1
  H+  H6  1  0.36238955  0.97303474  0.33562014  1
  H+  H7  1  1.02388733  0.61227792  0.67849435  1
  H+  H8  1  0.61922889  0.13272494  0.82624434  1
  H+  H9  1  0.11464696  0.37924808  0.68969038  1
  H+  H10  1  0.75075023  0.83689352  0.50740517  1
  H+  H11  1  0.42898094  0.32723872  0.27032736  1
  H+  H12  1  0.36861666  0.50914751  0.31863435  1
  H+  H13  1  0.28224582  0.89287426  -0.00444026  1
  H+  H14  1  0.64103145  0.01660593  0.18155570  1
  H+  H15  1  0.64903562  0.62497993  0.99059170  1
  H+  H16  1  0.51473550  0.13324903  0.68032303  1
  H+  H17  1  0.36819356  0.13608997  0.49723970  1
  H+  H18  1  0.51363191  0.61645479  0.48606959  1
  H+  H19  1  0.61630524  0.88118819  0.15852170  1
  H+  H20  1  0.65832467  0.42730191  0.30763162  1
  H+  H21  1  0.61286204  0.77866337  0.00019198  1
  H+  H22  1  0.63039807  0.27596032  0.66460124  1
  H+  H23  1  0.87923854  0.10660042  0.83434129  1
  H+  H24  1  0.77199119  0.37707226  0.67496180  1
  H+  H25  1  0.63513107  1.02627212  0.67266973  1
  H+  H26  1  0.14947413  0.28024496  0.51456666  1
  H+  H27  1  0.66239505  0.08054963  0.61141394  1
  H+  H28  1  0.38192189  1.02256929  0.66576493  1
  H+  H29  1  1.02825755  0.13596966  0.99832705  1
  H+  H30  1  0.98138052  0.36052196  0.66913741  1
  H+  H31  1  0.81813227  0.17670800  0.05983415  1
  H+  H32  1  0.13156295  0.59516111  0.66450208  1
  H+  H33  1  0.40337384  0.75674027  0.85717669  1
  H+  H34  1  0.11618274  0.47811735  0.50629969  1
  H+  H35  1  0.19877043  0.87309228  0.65267595  1
  H+  H36  1  0.40055524  0.62068847  0.65320302  1
  H+  H37  1  0.26631079  0.38165312  0.50134915  1
  H+  H38  1  0.02544338  0.12886787  0.82211539  1
  H+  H39  1  0.61450992  0.85305091  0.84057559  1
  H+  H40  1  0.11859650  0.63905403  0.49226453  1
  H+  H41  1  0.38470688  0.60247392  0.51034955  1
  H+  H42  1  0.39557340  0.56828068  0.25871820  1
  H+  H43  1  0.47428984  0.11193645  0.16721299  1
  H+  H44  1  0.08189388  0.87359001  0.66117028  1
  H+  H45  1  0.72999043  0.12281762  0.83915468  1
  H+  H46  1  0.40249676  1.02016578  0.84451759  1
  H+  H47  1  0.92613325  0.50861866  0.19573244  1
  H+  H48  1  -0.01035861  0.36748810  0.51724659  1
  H+  H49  1  0.38567914  0.26523537  0.83883761  1
  H+  H50  1  0.49664781  0.64064861  0.64918822  1
  H+  H51  1  0.59514927  0.95936836  0.35586771  1
  H+  H52  1  0.77535117  0.44761775  0.44728039  1
  H+  H53  1  0.21607096  0.86478752  0.50290177  1
  H+  H54  1  0.80403714  0.61806995  0.19939282  1
  H+  H55  1  0.92135811  0.33556146  0.28283816  1
  H+  H56  1  0.17779846  0.81029290  0.22632580  1
  H+  H57  1  0.10157402  0.23799061  0.14448243  1
  H+  H58  1  0.35459121  0.72666991  0.16468763  1
  H+  H59  1  0.85529314  0.11927508  0.22882390  1
  H+  H60  1  0.11488918  0.46765001  0.67728074  1
  H+  H61  1  0.13591283  0.10395414  0.84014815  1
  H+  H62  1  0.86217621  0.46450372  0.67506330  1
  H+  H63  1  0.13128900  0.13810996  0.50934557  1
  H+  H64  1  0.61094060  0.39288704  0.49352417  1
  H+  H65  1  0.12954496  0.28039976  0.99176427  1
  H+  H66  1  0.37244069  0.52534561  0.96222484  1
  H+  H67  1  0.14629262  0.87096451  -0.00747541  1
  H+  H68  1  0.12705700  0.53013910  0.13482024  1
  H+  H69  1  0.38980851  0.26110240  0.32921506  1
  H+  H70  1  0.88377231  0.84986406  0.52148976  1
  H+  H71  1  0.37285913  0.39457157  0.67746091  1
  H+  H72  1  0.67684152  0.59080442  0.89304931  1
  H+  H73  1  0.61668208  0.99050117  0.00230918  1
  H+  H74  1  0.72092735  0.82609580  0.32128359  1
  H+  H75  1  0.38466326  0.24993778  0.15335366  1
  H+  H76  1  0.84121890  0.92228195  0.35907080  1
  H+  H77  1  0.51982260  0.12731193  0.82914693  1
  H+  H78  1  0.84719341  0.83922106  0.34113358  1
  H+  H79  1  0.94220463  0.59198096  0.22829410  1
  H+  H80  1  0.57943222  0.48929788  0.34413519  1
  H+  H81  1  0.89224506  0.03095174  0.25319987  1
  H+  H82  1  0.85770270  0.24013578  0.35976898  1
  H+  H83  1  0.61592022  0.48896262  1.01400738  1
  H+  H84  1  0.88223045  0.35304102  0.84668604  1
  H+  H85  1  0.14107938  0.77818568  0.32091375  1
  H+  H86  1  0.65577805  0.24276297  0.32472846  1
  H+  H87  1  0.91212934  0.07637490  1.04680242  1
  H+  H88  1  0.61573609  0.74597257  0.50848020  1
  H+  H89  1  0.89006195  0.35973497  0.66585060  1
  H+  H90  1  0.34321779  0.88030929  0.67503109  1
  H+  H91  1  0.50688069  0.64092350  -0.00655527  1
  H+  H92  1  0.61046345  0.38947772  0.82621355  1
  H+  H93  1  0.19780363  0.61233338  0.28824446  1
  H+  H94  1  0.77216931  0.29817091  0.25800911  1
  H+  H95  1  0.94358469  0.84763244  0.57820698  1
  H+  H96  1  0.64305976  0.38420028  0.17405937  1
  H+  H97  1  0.88973634  0.59703248  0.83974573  1
  H+  H98  1  0.62191019  0.76424733  0.60964348  1
  H+  H99  1  0.63810319  0.10417599  0.51617645  1
  H+  H100  1  0.10966364  0.85332313  0.83488688  1
  H+  H101  1  0.36218472  0.37839950  0.49949001  1
  H+  H102  1  0.93209867  0.64637602  0.97589612  1
  H+  H103  1  0.66383887  0.80789616  0.25419267  1
  H+  H104  1  0.19062689  0.84927035  0.81666918  1
  H+  H105  1  0.60818348  0.21735895  0.49923256  1
  H+  H106  1  0.63105207  0.26875487  0.84009718  1
  H+  H107  1  0.81307894  0.60793212  0.34718569  1
  H+  H108  1  0.33521439  0.39122907  0.12348522  1
  H+  H109  1  0.38083359  0.35180672  0.83330017  1
  H+  H110  1  0.45668375  0.49736295  0.91739681  1
  H+  H111  1  0.87806005  0.73476120  0.51334975  1
  H+  H112  1  0.65055462  0.72234559  0.72977475  1
  H+  H113  1  0.62964305  0.75616141  0.16578325  1
  H+  H114  1  0.85504308  0.87981899  0.15850905  1
  H+  H115  1  0.57313197  0.23016255  0.35664997  1
  H+  H116  1  0.22648099  0.60919486  0.51297154  1
  H+  H117  1  0.89624484  0.60280011  0.66024744  1
  H+  H118  1  0.47232809  0.36511938  0.50836356  1
  H+  H119  1  0.36131729  -0.02611844  0.14975633  1
  H+  H120  1  0.04524731  0.41127308  0.34710070  1
  H+  H121  1  0.72901676  0.11004261  0.52394560  1
  H+  H122  1  0.85325820  0.66494923  0.72914560  1
  H+  H123  1  0.10110385  0.85533010  0.34355349  1
  H+  H124  1  0.58390014  0.60711062  0.14815030  1
  H+  H125  1  0.00964975  0.89582970  0.49564721  1
  H+  H126  1  0.28909309  0.16897636  0.15346914  1
  H+  H127  1  0.16311584  0.57732077  0.57047338  1
  H+  H128  1  0.71844134  0.34554158  0.51296335  1
  H+  H129  1  0.97903258  0.88478839  0.84796738  1
  H+  H130  1  0.39984971  0.75054871  1.01753139  1
  H+  H131  1  0.14022192  0.61390062  1.01164080  1
  H+  H132  1  0.58532493  0.61686604  0.32456802  1
  H+  H133  1  0.61669005  0.48536360  0.50044835  1
  H+  H134  1  0.20526046  0.37042160  0.81422454  1
  H+  H135  1  0.37744372  0.48540485  0.67609782  1
  H+  H136  1  0.95823968  0.11887972  0.28269018  1
  H+  H137  1  0.88153079  0.01462626  0.67001749  1
  H+  H138  1  0.72036916  0.84674660  0.16652767  1
  H+  H139  1  0.93351719  0.58107500  0.93069920  1
  H+  H140  1  0.10892875  0.48609644  0.02575667  1
  H+  H141  1  0.43366622  0.36756497  -0.07762581  1
  H+  H142  1  0.04052498  0.78414966  0.38698916  1
  H+  H143  1  0.47579477  0.11871930  -0.00356175  1
  H+  H144  1  0.85217733  0.87068251  1.00600917  1
  H+  H145  1  0.77162796  0.37642747  0.82814029  1
  H+  H146  1  0.69321174  0.58552443  0.30547761  1
  H+  H147  1  0.41337766  0.38072450  0.19367502  1
  H+  H148  1  0.71157080  0.10819914  0.34171213  1
  H+  H149  1  0.27128699  0.13512999  0.67193811  1
  H+  H150  1  0.87015302  0.71153191  0.82582880  1
  H+  H151  1  0.88051641  0.10300743  0.67962930  1
  H+  H152  1  0.92911997  0.33777243  0.58287392  1
  H+  H153  1  0.10706212  0.71178380  0.83217779  1
  H+  H154  1  0.61613167  0.98516310  0.81758370  1
  H+  H155  1  0.86677912  0.34673030  0.18604408  1
  H+  H156  1  0.22804393  0.59505174  0.86470721  1
  H+  H157  1  0.87635448  0.87064098  0.68126432  1
  H+  H158  1  0.64110654  0.52784031  0.83590989  1
  H+  H159  1  0.61424432  0.22719530  0.16132977  1
  H+  H160  1  0.80084961  0.64947166  0.66819582  1
  H+  H161  1  0.49003825  0.38926432  0.35227135  1
  H+  H162  1  0.32915979  0.15842523  0.76749213  1
  H+  H163  1  0.38555012  0.27203816  0.50632971  1
  H+  H164  1  0.77290051  0.37292365  0.29640087  1
  H+  H165  1  0.02600398  0.88142066  0.01288941  1
  H+  H166  1  0.35991954  0.22574125  0.67480165  1
  H+  H167  1  0.63791611  0.36867144  0.66273376  1
  H+  H168  1  0.61977187  0.54046470  0.25484199  1
  H+  H169  1  0.88830105  0.37002359  -0.00304642  1
  H+  H170  1  0.86092551  0.23751657  0.00358584  1
  H+  H171  1  0.89690061  0.49443629  0.29276110  1
  H+  H172  1  0.11942852  1.01207455  0.65570296  1
  H+  H173  1  0.63259648  0.81834353  0.90229551  1
  H+  H174  1  0.36941950  0.52338310  0.15942463  1
  H+  H175  1  0.10250763  0.22499554  0.29909934  1
  H+  H176  1  0.63999409  0.61497299  0.50261349  1
  H+  H177  1  0.14639646  0.60944822  0.85469056  1
  H+  H178  1  0.38824302  0.02665104  0.99189202  1
  H+  H179  1  0.72015491  0.12295349  0.98883383  1
  H+  H180  1  0.11985141  0.22433330  0.67472705  1
  H+  H181  1  0.91850743  0.38192110  0.34195466  1
  H+  H182  1  0.35701345  0.88185511  0.33654848  1
  H+  H183  1  0.86662347  0.22417097  0.83465750  1
  H+  H184  1  0.13072171  0.77637661  0.50223121  1
  H+  H185  1  0.10352977  -0.02876537  0.81984877  1
  H+  H186  1  0.62075259  0.73374253  0.81709135  1
  H+  H187  1  0.47085912  0.85913575  0.51536399  1
  H+  H188  1  0.58871792  0.42676066  0.73258130  1
  H+  H189  1  0.88678848  0.50637865  0.84154624  1
  H+  H190  1  0.77296867  0.83442669  0.68406933  1
  H+  H191  1  0.14888842  0.46491074  0.35453537  1
  H+  H192  1  0.77866228  0.62730812  0.82428480  1
  H+  H193  1  0.22473871  0.62061822  0.15106368  1
  H+  H194  1  0.58623606  0.83561617  0.67201547  1
  H+  H195  1  0.09194440  0.91203658  0.17945040  1
  H+  H196  1  0.22266285  0.59808468  0.65687590  1
  H+  H197  1  1.02848610  0.13597345  0.67687289  1
  H+  H198  1  0.38467334  0.11299295  0.66409392  1
  H+  H199  1  -0.00010721  0.15038226  0.53466316  1
  H+  H200  1  0.67669654  0.64700755  0.65975591  1
  H+  H201  1  0.14112862  0.01957559  0.99541747  1
  H+  H202  1  0.61137484  0.96040025  0.50618957  1
  H+  H203  1  1.00614522  0.39419751  0.82987402  1
  H+  H204  1  0.36440304  0.47537849  0.50016003  1
  H+  H205  1  0.88430463  1.01704663  0.13620096  1
  H+  H206  1  0.14507225  0.14369073  0.16363146  1
  H+  H207  1  0.82188064  0.50977720  0.29946802  1
  H+  H208  1  0.36219915  0.12791973  0.82447328  1
  H+  H209  1  0.33027759  0.61370708  0.31757061  1
  H+  H210  1  0.48625189  0.84947023  0.83934195  1
  H+  H211  1  0.59100390  0.92232418  0.10313889  1
  H+  H212  1  0.77835823  0.40158991  0.02104089  1
  H+  H213  1  0.22804443  0.35652712  0.30560593  1
  H+  H214  1  0.62605352  0.38039636  0.30965895  1
  H+  H215  1  0.35908435  0.96975269  0.49478773  1
  H+  H216  1  0.62238745  0.10140667  0.33315946  1
  H+  H217  1  0.30273596  0.88845362  0.85854572  1
  H+  H218  1  0.77895989  0.22781563  0.39629152  1
  H+  H219  1  0.12154070  0.28361828  0.81247171  1
  H+  H220  1  0.14025670  0.10947292  0.31995178  1
  H+  H221  1  0.15573867  0.06242568  0.16044240  1
  H+  H222  1  0.73201218  0.62013054  0.50889227  1
  H+  H223  1  0.86345228  0.88891403  0.82903891  1
  H+  H224  1  0.45715788  0.85135253  0.66254479  1
  H+  H225  1  0.23456491  0.36642306  0.67071007  1
  H+  H226  1  0.35604026  0.72255031  0.66670275  1
  H+  H227  1  0.47272891  0.10326226  0.51041363  1
  H+  H228  1  0.61471858  0.89627983  1.00270133  1
  H+  H229  1  0.36856338  0.76356737  0.31611933  1
  H+  H230  1  1.02598142  0.61858777  0.83407543  1
  H+  H231  1  0.89977149  0.61837275  0.51565501  1
  H+  H232  1  0.08885050  0.64621679  0.32673861  1
  H+  H233  1  0.81490888  1.01730104  0.42936816  1
  H+  H234  1  0.62315329  0.48779807  0.67415878  1
  H+  H235  1  0.48076089  0.86087192  0.17156045  1
  H+  H236  1  0.48191070  0.36820602  0.66308077  1
  H+  H237  1  0.31963658  0.39803808  0.38969719  1
  H+  H238  1  0.12302227  0.36366573  1.00674276  1
  H+  H239  1  0.73148895  0.61687982  0.00190922  1
  H+  H240  1  0.37037849  0.62103597  0.89488223  1
  H+  H241  1  0.27936269  0.13431773  0.33886280  1
  H+  H242  1  0.10382267  0.48778047  0.83214408  1
  H+  H243  1  0.36761855  0.72851020  0.50930077  1
  H+  H244  1  0.28150062  0.87666328  0.14978693  1
  H+  H245  1  0.88288147  0.75775331  1.01152497  1
  H+  H246  1  0.36678634  0.13065702  0.33814001  1
  H+  H247  1  0.50603470  0.38812625  0.17824488  1
  H+  H248  1  0.64362930  0.65768171  0.80871246  1
  H+  H249  1  0.52053675  0.38667043  0.82424088  1
  H+  H250  1  0.36697254  0.46237285  0.83811429  1
  H+  H251  1  0.86529308  0.22419948  0.67808005  1
  H+  H252  1  0.59160897  0.90303812  0.62647715  1
  H+  H253  1  0.97253124  0.11351758  0.13486726  1
  H+  H254  1  0.10201902  0.53725237  0.29210596  1
  H+  H255  1  0.97514908  0.36805122  1.00685431  1
  H+  H256  1  0.26852787  0.12656944  0.00541145  1
  H+  H257  1  0.17023356  0.06917773  0.56515137  1
  H+  H258  1  0.13260270  0.10594470  0.65475902  1
  H+  H259  1  0.22885869  0.86817899  0.31985158  1
  H+  H260  1  0.95917505  0.81870798  0.32922520  1
  H+  H261  1  0.46128279  0.60659271  0.16899436  1
  H+  H262  1  0.35544766  0.36904362  0.33371121  1
  H+  H263  1  0.89198855  0.27411932  0.52014434  1
  H+  H264  1  0.40084741  0.88405557  0.98811563  1
  H+  H265  1  0.67093406  0.34590866  1.08219348  1
  H+  H266  1  0.81659104  0.70529669  0.17073065  1
  H+  H267  1  0.34879350  0.63378575  0.16428729  1
  H+  H268  1  0.11820730  0.13711113  -0.00243874  1
  H+  H269  1  0.50702752  0.87285275  0.35237571  1
  H+  H270  1  0.18387115  0.10097163  0.26170151  1
  H+  H271  1  0.61863789  0.74137936  0.31680614  1
  H+  H272  1  0.71181910  0.85689837  -0.00492602  1
  H+  H273  1  0.79220824  0.40382524  0.15405178  1
  H+  H274  1  0.84448570  0.61025117  0.03787494  1
  H+  H275  1  0.48057679  0.10762175  0.31279445  1
  H+  H276  1  0.95018857  0.83528713  0.16931635  1
  H+  H277  1  0.23406282  0.10488436  0.50606461  1
  H+  H278  1  0.82504400  0.00117022  0.45794279  1
  H+  H279  1  0.60685240  0.23124553  0.02224695  1
  H+  H280  1  0.89536705  0.53196863  0.49645363  1
  H+  H281  1  0.22279619  0.09957332  0.83867107  1
  H+  H282  1  0.25260380  0.39581622  -0.01190306  1
  H+  H283  1  0.20817616  0.37516768  0.14223446  1
  H+  H284  1  0.36585338  0.13021724  0.00554791  1
  H+  H285  1  0.86988336  0.48690284  0.00702371  1
  H+  H286  1  0.62102797  0.83631938  0.51936803  1
  H+  H287  1  0.13196417  0.73863308  0.01044667  1
  H+  H288  1  0.17658785  0.34055261  0.61157402  1
  H+  H289  1  0.56978129  0.65106063  0.42521800  1
  H+  H290  1  0.08706905  0.17482007  0.08898596  1
  H+  H291  1  0.34945074  0.67533188  0.44970042  1
  H+  H292  1  0.08772324  0.16211565  0.45705459  1
  H+  H293  1  0.35051222  0.40861251  -0.01472894  1
  H+  H294  1  0.27559533  0.63337793  0.36520508  1
  H+  H295  1  0.48572356  0.69528740  0.03568627  1
  H+  H296  1  0.88053151  0.16032044  0.51860601  1
  H+  H297  1  0.41363572  0.83220861  0.26414560  1
  H+  H298  1  0.89968013  0.81968035  0.23126603  1
  H+  H299  1  0.39517424  0.86643235  0.16583058  1
  H+  H300  1  0.15718193  0.34739233  0.20427969  1
  H+  H301  1  0.41518876  0.07947449  0.25752209  1
  H+  H302  1  0.86918780  0.73717478  0.30953252  1
  H+  H303  1  0.04969101  0.16521969  0.35306965  1
  H+  H304  1  0.08648595  0.67316178  0.39608393  1
  H+  H305  1  0.87800059  0.11238730  0.99804414  1
  H+  H306  1  0.58953690  0.16359937  0.43898408  1
  H+  H307  1  0.38067428  0.85924405  0.50816874  1
  H+  H308  1  0.66123295  0.32870640  0.89789773  1
  H+  H309  1  0.41420197  0.07774692  0.57003025  1
  H+  H310  1  0.08558151  0.91005699  0.07040557  1
  H+  H311  1  0.57800641  0.43867877  0.07700486  1
  H+  H312  1  0.57610019  0.15849697  0.07067502  1
  H+  H313  1  0.33956695  0.42157898  0.77135809  1
  H+  H314  1  0.06822237  0.90288555  0.43164334  1
  H+  H315  1  0.65959830  0.32906477  0.57029667  1
  H+  H316  1  0.84381482  0.46474789  0.39861680  1
  H+  H317  1  0.33923079  0.91877604  0.05699704  1
  H+  H318  1  0.58909127  0.92224425  0.75987126  1
  H+  H319  1  0.61844710  0.14039481  0.16802377  1
  H+  H320  1  0.83676212  0.17714942  0.45781644  1
  H+  H321  1  0.05513358  0.90569741  0.76305372  1
  H+  H322  1  0.33872615  0.17346679  0.06667474  1
  H+  H323  1  0.91014589  0.81370232  0.94980324  1
  H+  H324  1  0.83330519  0.89986258  0.75471364  1
  H+  H325  1  0.38893313  0.11824340  0.16473484  1
  H+  H326  1  0.60668374  0.13548541  0.67956360  1
  H+  H327  1  0.85121503  0.96012007  0.00332903  1
  H+  H328  1  0.08394394  0.64159641  0.73756876  1
  H+  H329  1  0.39904996  0.82854057  0.60367229  1
  H+  H330  1  0.07188561  0.42516544  0.76643699  1
  H+  H331  1  0.11069359  0.98628961  0.48557471  1
  H+  H332  1  0.33153254  0.91311567  0.43399838  1
  H+  H333  1  0.85874026  0.11432722  0.15663160  1
  H+  H334  1  0.14635233  0.84603016  0.58946930  1
  H+  H335  1  0.42228935  0.57521598  0.56671962  1
  H+  H336  1  0.50019339  0.62475250  0.32875996  1
  H+  H337  1  0.85647204  0.97455934  0.81521150  1
  H+  H338  1  0.08948844  0.15746082  0.76602009  1
  H+  H339  1  0.15671027  0.57014553  0.95350175  1
  H+  H340  1  0.76349800  0.10728037  0.19151712  1
  H+  H341  1  0.83177674  0.40310489  0.76906332  1
  H+  H342  1  0.68802124  0.34182648  0.21514035  1
  H+  H343  1  0.57255533  0.89986840  0.44768974  1
  H+  H344  1  0.14207187  0.58627649  0.20032345  1
  H+  H345  1  0.16689058  0.83960505  0.92986876  1
  H+  H346  1  0.31904074  0.91202195  0.73431297  1
  H+  H347  1  0.55735937  0.65414600  0.09635764  1
  H+  H348  1  0.33069764  0.65569636  0.72062110  1
  H+  H349  1  0.07411009  0.82649773  0.14870659  1
  H+  H350  1  0.35825526  0.61831094  0.82550097  1
  H+  H351  1  0.37962379  0.87702524  0.83839601  1
  H+  H352  1  0.43585764  0.84523112  0.93079146  1
  H+  H353  1  0.82111067  0.89992368  0.09618687  1
  H+  H354  1  0.92144499  0.56711077  0.60215907  1
  H+  H355  1  0.36428938  0.68636320  0.07354715  1
  H+  H356  1  0.33957406  0.16380491  0.43607182  1
  H+  H357  1  0.80069411  0.84560836  0.44541571  1
  H+  H358  1  0.09883898  0.39819993  0.12567231  1
  H+  H359  1  0.57847534  0.16027632  0.76089467  1
  H+  H360  1  0.55965310  0.43516077  0.41453040  1
  H+  H361  1  0.85973138  0.25468048  0.19933053  1
  H+  H362  1  0.14510723  0.36865936  0.51007324  1
  H+  H363  1  0.11548494  0.73254126  0.11568619  1
  H+  H364  1  0.66301493  0.07191721  0.24457232  1
  H+  H365  1  0.95334519  0.93064652  0.89736062  1
  H+  H366  1  0.83385915  0.16882892  0.77255080  1
  H+  H367  1  0.92128578  0.33309611  0.90668513  1
  H+  H368  1  0.81302522  0.64687399  0.09094650  1
  H+  H369  1  0.93573405  0.11788466  0.59125652  1
  H+  H370  1  0.62916572  0.11886263  0.99191293  1
  H+  H371  1  0.90644799  0.06870182  0.88945753  1
  H+  H372  1  0.08379139  0.42461974  0.44589970  1
  H+  H373  1  0.85909865  0.42465123  0.10175242  1
  H+  H374  1  0.85274024  0.68415579  0.45200093  1
  H+  H375  1  0.66379593  0.09101389  0.89644652  1
  H+  H376  1  0.17211874  0.07479594  0.93298682  1
  H+  H377  1  0.68293753  0.59768473  0.60230603  1
  H+  H378  1  0.42723223  0.08744708  0.89945607  1
  H+  H379  1  0.31473799  0.43641989  0.07046543  1
  H+  H380  1  0.41847567  0.33590983  0.60597104  1
  H+  H381  1  0.77298990  0.13859041  0.68112085  1
  H+  H382  1  0.63439676  0.37635968  1.02963600  1
  H+  H383  1  0.93230112  0.78523141  0.67019307  1
  O2-  O384  1  0.07898593  0.17567353  0.13429421  1
  O2-  O385  1  0.10332541  0.17364033  0.49982495  1
  O2-  O386  1  0.08674587  0.15612388  0.81148412  1
  O2-  O387  1  0.07195761  0.43178831  0.11001881  1
  O2-  O388  1  0.08502786  0.41628599  0.49062594  1
  O2-  O389  1  0.05401766  0.44396721  0.80564717  1
  O2-  O390  1  0.10635867  0.75671484  0.15404253  1
  O2-  O391  1  0.08903800  0.66833179  0.47481916  1
  O2-  O392  1  0.08792529  0.65131887  0.82216139  1
  O2-  O393  1  0.05823932  0.87333458  0.14659234  1
  O2-  O394  1  0.05826445  0.93567782  0.46531861  1
  O2-  O395  1  0.06329726  0.90943862  0.80831067  1
  O2-  O396  1  0.34808084  0.19027527  0.13667658  1
  O2-  O397  1  0.33879143  0.16729132  0.48147442  1
  O2-  O398  1  0.32875480  0.15570734  0.81302887  1
  O2-  O399  1  0.31244311  0.42976179  0.11707284  1
  O2-  O400  1  0.33112967  0.41133781  0.48479479  1
  O2-  O401  1  0.33130498  0.40826006  0.81563823  1
  O2-  O402  1  0.32080051  0.66632034  0.14876498  1
  O2-  O403  1  0.34165301  0.66717402  0.49353554  1
  O2-  O404  1  0.34731272  0.64274860  0.86167223  1
  O2-  O405  1  0.33984745  0.91558804  0.13223534  1
  O2-  O406  1  0.33051593  0.90967226  0.47935137  1
  O2-  O407  1  0.35088724  0.91160726  0.83017155  1
  O2-  O408  1  0.58537042  0.16537213  0.15002912  1
  O2-  O409  1  0.58347066  0.15750968  0.48344976  1
  O2-  O410  1  0.58190700  0.15988246  0.81033172  1
  O2-  O411  1  0.58798094  0.44015917  0.15410190  1
  O2-  O412  1  0.58076614  0.42490099  0.48362575  1
  O2-  O413  1  0.58225885  0.42095519  0.81092107  1
  O2-  O414  1  0.56583036  0.65036833  0.14108363  1
  O2-  O415  1  0.57346463  0.64903771  0.47019375  1
  O2-  O416  1  0.62287271  0.69224830  0.78731852  1
  O2-  O417  1  0.59181008  0.91865114  0.14799066  1
  O2-  O418  1  0.57595659  0.89953508  0.49384246  1
  O2-  O419  1  0.58403584  0.92444836  0.80417239  1
  O2-  O420  1  0.83275670  0.13631245  0.19046475  1
  O2-  O421  1  0.83922212  0.17984136  0.50281458  1
  O2-  O422  1  0.83183099  0.16421086  0.81826897  1
  O2-  O423  1  0.85224558  0.41829740  0.14679757  1
  O2-  O424  1  0.83104781  0.45128004  0.44281994  1
  O2-  O425  1  0.83240632  0.40303062  0.81479871  1
  O2-  O426  1  0.78912208  0.64301147  0.16183853  1
  O2-  O427  1  0.84493308  0.67519630  0.49579424  1
  O2-  O428  1  0.84057035  0.65293131  0.81024858  1
  O2-  O429  1  0.82511380  0.91011813  0.14118612  1
  O2-  O430  1  0.80759618  0.85253781  0.48977656  1
  O2-  O431  1  0.83141541  0.91142452  0.80377890  1
  O2-  O432  1  0.18274449  0.12005087  0.17771651  1
  O2-  O433  1  0.17219413  0.07368950  0.51924502  1
  O2-  O434  1  0.16255463  0.06917862  0.85470312  1
  O2-  O435  1  0.14875650  0.34451076  0.15971477  1
  O2-  O436  1  0.18060660  0.34315189  0.52471752  1
  O2-  O437  1  0.14358813  0.34506824  0.80598245  1
  O2-  O438  1  0.15766440  0.58956370  0.15503096  1
  O2-  O439  1  0.16495610  0.57861626  0.52439457  1
  O2-  O440  1  0.16537294  0.56955162  0.87140118  1
  O2-  O441  1  0.19097050  0.79652298  0.18443748  1
  O2-  O442  1  0.15462376  0.83746112  0.51419107  1
  O2-  O443  1  0.14592456  0.82780543  0.84775783  1
  O2-  O444  1  0.41247935  0.08178314  0.17904006  1
  O2-  O445  1  0.41234559  0.07666397  0.52465478  1
  O2-  O446  1  0.43094098  0.08304894  0.85415382  1
  O2-  O447  1  0.44020688  0.34514499  0.19547464  1
  O2-  O448  1  0.41059422  0.33328754  0.52074168  1
  O2-  O449  1  0.41701699  0.32748942  0.84888385  1
  O2-  O450  1  0.40016322  0.57796825  0.18314034  1
  O2-  O451  1  0.41140132  0.56677119  0.52118257  1
  O2-  O452  1  0.44818341  0.53971919  0.89269280  1
  O2-  O453  1  0.41971468  0.83289424  0.18466837  1
  O2-  O454  1  0.40893609  0.82912075  0.52836489  1
  O2-  O455  1  0.42996326  0.82066331  0.86113124  1
  O2-  O456  1  0.67422633  0.07629360  0.19933368  1
  O2-  O457  1  0.66726831  0.07574083  0.53580139  1
  O2-  O458  1  0.66683048  0.09367247  0.85071811  1
  O2-  O459  1  0.67047219  0.34725468  0.17303154  1
  O2-  O460  1  0.65896239  0.32615151  0.52432167  1
  O2-  O461  1  0.66344842  0.32939874  0.85356341  1
  O2-  O462  1  0.61599298  0.52912126  0.17822751  1
  O2-  O463  1  0.67061198  0.58713268  0.52148252  1
  O2-  O464  1  0.67924054  0.58912895  0.84811523  1
  O2-  O465  1  0.66035516  0.81570999  0.18336199  1
  O2-  O466  1  0.64302354  0.79850383  0.53448934  1
  O2-  O467  1  0.61055871  0.80213407  0.86049442  1
  O2-  O468  1  0.90875382  0.07975391  0.12533863  1
  O2-  O469  1  0.95204551  0.15346801  0.55375545  1
  O2-  O470  1  0.90578139  0.07008162  0.84500215  1
  O2-  O471  1  0.86363637  0.30567530  0.21856839  1
  O2-  O472  1  0.92863139  0.33730903  0.53513148  1
  O2-  O473  1  0.91829356  0.32813067  0.86115073  1
  O2-  O474  1  0.95845176  0.54757190  0.22973117  1
  O2-  O475  1  0.92726986  0.58310371  0.52325063  1
  O2-  O476  1  0.91951708  0.56717893  0.85650550  1
  O2-  O477  1  0.89263174  0.81904425  0.18622242  1
  O2-  O478  1  0.93310994  0.83952989  0.53339198  1
  O2-  O479  1  0.92890538  0.87692548  0.87440416  1
  O2-  O480  1  0.18149943  0.09259948  0.30619021  1
  O2-  O481  1  0.15868269  0.07079057  0.64045036  1
  O2-  O482  1  0.17501181  0.07936217  0.97877688  1
  O2-  O483  1  0.17090518  0.33195924  0.28443818  1
  O2-  O484  1  0.17375416  0.33370687  0.65612511  1
  O2-  O485  1  0.15301372  0.34152210  0.98146932  1
  O2-  O486  1  0.13884296  0.59266660  0.27238832  1
  O2-  O487  1  0.16131375  0.56467380  0.64484135  1
  O2-  O488  1  0.15618260  0.57079585  0.99857225  1
  O2-  O489  1  0.17001074  0.83696917  0.30130959  1
  O2-  O490  1  0.14143086  0.85123900  0.63483633  1
  O2-  O491  1  0.17787161  0.84379114  0.97429108  1
  O2-  O492  1  0.41922396  0.07990512  0.30310363  1
  O2-  O493  1  0.41711753  0.08347531  0.65152784  1
  O2-  O494  1  0.41632602  0.08866730  0.97821234  1
  O2-  O495  1  0.41709487  0.32339144  0.31564266  1
  O2-  O496  1  0.41992859  0.33562701  0.65095529  1
  O2-  O497  1  0.44155295  0.40651202  0.95722900  1
  O2-  O498  1  0.39344622  0.56950216  0.30458830  1
  O2-  O499  1  0.43663707  0.59569498  0.64010889  1
  O2-  O500  1  0.41749592  0.57786581  0.93899856  1
  O2-  O501  1  0.40536651  0.82583602  0.30915988  1
  O2-  O502  1  0.39646188  0.82495947  0.64955225  1
  O2-  O503  1  0.43881150  0.85859727  0.97647564  1
  O2-  O504  1  0.65533359  0.07367599  0.32111405  1
  O2-  O505  1  0.66214360  0.08534566  0.65739010  1
  O2-  O506  1  0.65906711  0.08910379  0.97456959  1
  O2-  O507  1  0.73284115  0.31401361  0.27855638  1
  O2-  O508  1  0.66384392  0.33409723  0.64685073  1
  O2-  O509  1  0.66671756  0.34474395  1.03752995  1
  O2-  O510  1  0.62907433  0.55792371  0.29910065  1
  O2-  O511  1  0.69090947  0.60233043  0.64717528  1
  O2-  O512  1  0.67631664  0.59197412  0.97866422  1
  O2-  O513  1  0.66198703  0.80283270  0.30108942  1
  O2-  O514  1  0.60083246  0.74761143  0.65297965  1
  O2-  O515  1  0.65129946  0.83809438  0.98355113  1
  O2-  O516  1  0.89630066  0.08279741  0.27054578  1
  O2-  O517  1  0.91518719  0.07719800  0.66496344  1
  O2-  O518  1  0.90764053  0.07836311  1.00148435  1
  O2-  O519  1  0.93932315  0.34440178  0.32689813  1
  O2-  O520  1  0.92205409  0.33059699  0.65045164  1
  O2-  O521  1  0.91859905  0.33836385  0.98484864  1
  O2-  O522  1  0.81362809  0.58009879  0.26160254  1
  O2-  O523  1  0.91790158  0.56376128  0.64749969  1
  O2-  O524  1  0.93837254  0.59549072  0.97568596  1
  O2-  O525  1  0.90300406  0.80158948  0.30922600  1
  O2-  O526  1  0.95557927  0.84725100  0.65739170  1
  O2-  O527  1  0.91223475  0.81710793  0.99459888  1
  O2-  O528  1  0.08855629  0.16767590  0.01256714  1
  O2-  O529  1  0.06085695  0.16384761  0.30974992  1
  O2-  O530  1  0.09060907  0.16228581  0.68653780  1
  O2-  O531  1  0.07422724  0.42166522  0.04313791  1
  O2-  O532  1  0.09506144  0.45978566  0.36842791  1
  O2-  O533  1  0.08171001  0.40956390  0.69758135  1
  O2-  O534  1  0.10455676  0.68562626  0.03564052  1
  O2-  O535  1  0.07865205  0.68458906  0.35278378  1
  O2-  O536  1  0.08426688  0.63859619  0.69273093  1
  O2-  O537  1  0.08735049  0.91581002  0.02522738  1
  O2-  O538  1  0.05213775  0.84068136  0.37273663  1
  O2-  O539  1  0.04375132  0.89714563  0.68337289  1
  O2-  O540  1  0.33148024  0.15882147  0.02068543  1
  O2-  O541  1  0.33962241  0.16246979  0.35566491  1
  O2-  O542  1  0.33058076  0.16455609  0.68855916  1
  O2-  O543  1  0.31613584  0.43476820  -0.00052189  1
  O2-  O544  1  0.32291026  0.39902244  0.34504777  1
  O2-  O545  1  0.34342621  0.42608138  0.69172348  1
  O2-  O546  1  0.39763525  0.69956665  0.03531137  1
  O2-  O547  1  0.29647507  0.64419182  0.32343195  1
  O2-  O548  1  0.33376198  0.65969620  0.67639190  1
  O2-  O549  1  0.34321367  0.92349618  0.01095419  1
  O2-  O550  1  0.32932464  0.91421831  0.35271915  1
  O2-  O551  1  0.31809786  0.91547870  0.68983044  1
  O2-  O552  1  0.57620656  0.16721121  0.02570964  1
  O2-  O553  1  0.60517326  0.20015700  0.34998473  1
  O2-  O554  1  0.57578210  0.16410909  0.69729006  1
  O2-  O555  1  0.57871702  0.43077280  0.03134557  1
  O2-  O556  1  0.53544838  0.44446843  0.37494612  1
  O2-  O557  1  0.59060226  0.42657633  0.68696886  1
  O2-  O558  1  0.53428718  0.68320295  0.02683641  1
  O2-  O559  1  0.56182201  0.65244978  0.34210072  1
  O2-  O560  1  0.67377643  0.74328574  0.68225368  1
  O2-  O561  1  0.58382428  0.92880022  0.01714638  1
  O2-  O562  1  0.56378141  0.90093058  0.37276651  1
  O2-  O563  1  0.57544127  0.88511779  0.66872540  1
  O2-  O564  1  0.82413232  0.17467371  0.01588158  1
  O2-  O565  1  0.80607558  0.19570662  0.38172257  1
  O2-  O566  1  0.83306721  0.16545562  0.69626507  1
  O2-  O567  1  0.84207223  0.42769703  0.02328130  1
  O2-  O568  1  0.84379306  0.47154628  0.31869804  1
  O2-  O569  1  0.83174147  0.40352083  0.69093179  1
  O2-  O570  1  0.82479258  0.65117145  0.04532793  1
  O2-  O571  1  0.79846853  0.62935275  0.31071736  1
  O2-  O572  1  0.86067110  0.67411300  0.68444081  1
  O2-  O573  1  0.81903062  0.89951862  0.01740583  1
  O2-  O574  1  0.80790855  0.85959022  0.35842814  1
  O2-  O575  1  0.83147058  0.88516435  0.69385798  1
