# generated using pymatgen
data_H2O
_symmetry_space_group_name_H-M   'P 1'
_cell_length_a   17.99160907
_cell_length_b   17.99126979
_cell_length_c   22.00086563
_cell_angle_alpha   89.98845401
_cell_angle_beta   90.00583009
_cell_angle_gamma   119.97125088
_symmetry_Int_Tables_number   1
_chemical_formula_structural   H2O
_chemical_formula_sum   'H384 O192'
_cell_volume   6169.18726866
_cell_formula_units_Z   192
loop_
 _symmetry_equiv_pos_site_id
 _symmetry_equiv_pos_as_xyz
  1  'x, y, z'
loop_
 _atom_type_symbol
 _atom_type_oxidation_number
  H+  1.0
  O2-  -2.0
loop_
 _atom_site_type_symbol
 _atom_site_label
 _atom_site_symmetry_multiplicity
 _atom_site_fract_x
 _atom_site_fract_y
 _atom_site_fract_z
 _atom_site_occupancy
  H+  H0  1  0.84635641  0.13467009  0.49952343  1
  H+  H1  1  0.15502210  0.35021371  0.66937066  1
  H+  H2  1  0.48938017  0.09718379  0.47466059  1
  H+  H3  1  0.57143299  0.66432286  0.74131527  1
  H+  H4  1  0.12211512  0.12772743  0.34307613  1
  H+  H5  1  0.13288094  0.33697771  0.33172378  1
  H+  H6  1  0.67966057  0.80401393  0.59885571  1
  H+  H7  1  0.61084300  0.13986228  0.59169868  1
  H+  H8  1  0.38974126  0.52890208  0.99430870  1
  H+  H9  1  0.66693988  0.33473949  0.89462944  1
  H+  H10  1  0.52789546  0.13469205  0.82226645  1
  H+  H11  1  0.62290135  0.34826873  0.20115310  1
  H+  H12  1  0.85887733  0.64574073  0.80470871  1
  H+  H13  1  0.74776957  0.42582340  0.51129428  1
  H+  H14  1  0.23878474  0.88127900  0.18172485  1
  H+  H15  1  0.61829163  0.87673154  0.82244483  1
  H+  H16  1  0.55268641  0.30872431  0.46123326  1
  H+  H17  1  0.86490957  0.89217167  0.82413919  1
  H+  H18  1  0.33302911  0.41367631  0.43522886  1
  H+  H19  1  0.85772274  0.17978889  0.09118982  1
  H+  H20  1  0.98092209  0.37157949  0.82790201  1
  H+  H21  1  0.66565340  0.57403544  0.58768752  1
  H+  H22  1  0.46149701  0.33932120  0.32478277  1
  H+  H23  1  0.86329133  0.89078636  0.16780759  1
  H+  H24  1  0.72645527  0.86598798  0.17889431  1
  H+  H25  1  0.89692522  0.36063995  0.98082990  1
  H+  H26  1  0.35722924  0.46566253  0.34015408  1
  H+  H27  1  0.74112741  0.77509460  0.63100739  1
  H+  H28  1  0.08404832  0.41626214  0.06124928  1
  H+  H29  1  0.62001444  0.47997996  0.66579274  1
  H+  H30  1  0.73714882  0.12977396  0.00311338  1
  H+  H31  1  0.89370991  0.37463640  0.83271405  1
  H+  H32  1  0.12403398  0.72425458  0.49092274  1
  H+  H33  1  0.10048362  0.43310352  0.34262105  1
  H+  H34  1  -0.02798475  0.34019351  0.33063717  1
  H+  H35  1  0.35828446  0.97691270  0.49346787  1
  H+  H36  1  0.58319622  0.67562222  0.26840637  1
  H+  H37  1  0.88345653  0.01763295  0.83524411  1
  H+  H38  1  0.72686867  0.60865792  0.64509706  1
  H+  H39  1  0.47971826  0.37263249  -0.00707135  1
  H+  H40  1  0.77562060  0.39408641  0.67060348  1
  H+  H41  1  0.13698388  0.77935154  0.83554464  1
  H+  H42  1  0.61469915  0.98999839  0.01465126  1
  H+  H43  1  0.37793907  0.36025917  0.17501489  1
  H+  H44  1  0.15235692  0.87124315  0.33103113  1
  H+  H45  1  0.59443366  0.34775466  0.33733418  1
  H+  H46  1  0.13663927  0.66082816  0.33716785  1
  H+  H47  1  0.46399552  0.35585172  0.18890385  1
  H+  H48  1  0.97826539  0.87113571  0.83415173  1
  H+  H49  1  0.85351694  0.22222445  0.34329096  1
  H+  H50  1  0.60448204  0.22891187  0.17234690  1
  H+  H51  1  0.37954307  0.77653141  0.65771263  1
  H+  H52  1  0.11240069  0.13938908  0.83231402  1
  H+  H53  1  0.35414911  0.22801630  0.15482238  1
  H+  H54  1  0.50491630  0.14190950  0.16581273  1
  H+  H55  1  0.71224497  0.60750137  0.17075090  1
  H+  H56  1  0.72740231  0.37459855  -0.01023365  1
  H+  H57  1  0.02253255  0.13769684  0.67787047  1
  H+  H58  1  0.86626972  0.53326840  0.96436015  1
  H+  H59  1  0.23617805  0.11651343  0.83357083  1
  H+  H60  1  0.16341595  0.32347428  0.22759259  1
  H+  H61  1  0.77054190  0.12372143  0.83302896  1
  H+  H62  1  0.16475937  0.08632323  0.23270076  1
  H+  H63  1  0.51377484  0.63871242  0.49685396  1
  H+  H64  1  0.09302247  0.16594192  0.40552820  1
  H+  H65  1  0.88592266  0.02265819  0.99590084  1
  H+  H66  1  0.64196805  0.27432452  0.83581841  1
  H+  H67  1  0.76471900  0.64254146  0.35881128  1
  H+  H68  1  0.47651060  0.86658418  0.50777182  1
  H+  H69  1  0.92912594  0.07343707  0.33233867  1
  H+  H70  1  0.48389915  0.11720376  0.64330106  1
  H+  H71  1  0.65499276  1.02681960  0.16643725  1
  H+  H72  1  0.38951452  0.87383881  0.17933902  1
  H+  H73  1  0.32554731  0.94378995  0.01190737  1
  H+  H74  1  0.88399663  0.27730105  0.50627388  1
  H+  H75  1  0.34007920  0.16765472  0.42948227  1
  H+  H76  1  0.64369536  0.28127918  0.63954871  1
  H+  H77  1  0.61079561  0.38298914  0.82237672  1
  H+  H78  1  0.07765730  0.88351093  0.50573244  1
  H+  H79  1  0.89295701  0.78593450  0.34693799  1
  H+  H80  1  0.51198885  0.88509081  0.65905777  1
  H+  H81  1  0.38415395  0.61837836  0.66093796  1
  H+  H82  1  0.17655071  0.76029061  0.14833457  1
  H+  H83  1  0.17195830  0.63072725  0.16046700  1
  H+  H84  1  0.61892656  0.76574750  0.51327899  1
  H+  H85  1  0.63352640  0.60870687  0.32478040  1
  H+  H86  1  0.50869618  0.63654608  0.67520013  1
  H+  H87  1  0.71367314  0.12862788  0.33897853  1
  H+  H88  1  0.46735230  0.60630897  0.32698758  1
  H+  H89  1  0.39194482  0.78321680  1.01197134  1
  H+  H90  1  0.95642017  0.61397142  0.97748851  1
  H+  H91  1  0.25565877  0.65102088  0.32292171  1
  H+  H92  1  0.36726683  0.39404306  0.00534623  1
  H+  H93  1  0.62222254  0.39419683  0.49285969  1
  H+  H94  1  0.71442676  0.60723612  0.47688102  1
  H+  H95  1  0.70822519  0.85254837  0.50983763  1
  H+  H96  1  0.89930264  0.29773111  0.66188094  1
  H+  H97  1  0.77596161  0.39354574  0.82368290  1
  H+  H98  1  0.40584002  0.88572038  0.33175051  1
  H+  H99  1  0.38928967  0.61718913  0.99720166  1
  H+  H100  1  0.86341323  0.48521717  0.81908467  1
  H+  H101  1  0.60898243  0.88961493  0.50808282  1
  H+  H102  1  0.33552082  0.92663044  0.77025979  1
  H+  H103  1  0.38341168  0.51735336  0.17574364  1
  H+  H104  1  0.97968280  0.61750179  0.50049236  1
  H+  H105  1  0.87007606  0.11412773  0.82982363  1
  H+  H106  1  0.11193876  0.42918073  0.64029391  1
  H+  H107  1  0.88056791  0.76677862  0.63897230  1
  H+  H108  1  0.87354713  0.62373047  0.33276881  1
  H+  H109  1  0.59034820  0.42567167  0.72927073  1
  H+  H110  1  0.14454827  0.02502885  0.83586971  1
  H+  H111  1  0.38962913  0.36950033  0.83927804  1
  H+  H112  1  0.76772948  0.90066062  0.67646196  1
  H+  H113  1  0.11504491  0.75999058  0.99223843  1
  H+  H114  1  0.86281304  0.64030179  0.66023443  1
  H+  H115  1  0.83675745  0.95880201  0.47240411  1
  H+  H116  1  0.60397602  0.63335537  0.82946005  1
  H+  H117  1  0.60808289  0.88048149  0.16270649  1
  H+  H118  1  0.04696701  0.61234866  0.04677994  1
  H+  H119  1  0.03691576  0.61478429  0.18354077  1
  H+  H120  1  0.62947845  0.15689658  1.02056885  1
  H+  H121  1  0.36881306  0.99135402  0.16546543  1
  H+  H122  1  0.10941032  -0.01705009  0.67098802  1
  H+  H123  1  0.98736887  0.11233858  0.50584632  1
  H+  H124  1  0.11109232  0.13506858  0.15644954  1
  H+  H125  1  0.87683711  0.23331117  0.99236719  1
  H+  H126  1  0.20848796  0.84055995  1.00262022  1
  H+  H127  1  0.37303056  0.65066768  0.33683406  1
  H+  H128  1  0.86120664  0.73452246  0.80670095  1
  H+  H129  1  0.89216272  0.53087241  0.65889052  1
  H+  H130  1  0.64219247  0.28770594  0.99709103  1
  H+  H131  1  0.11181168  0.63221999  0.48194540  1
  H+  H132  1  0.36977817  0.14441189  0.82364133  1
  H+  H133  1  0.22219085  0.61487573  0.82877032  1
  H+  H134  1  0.09673644  0.68211087  0.40043592  1
  H+  H135  1  0.22995230  0.87894340  0.66699276  1
  H+  H136  1  0.84871105  0.88410384  1.00779850  1
  H+  H137  1  0.37505117  0.23595465  0.67188818  1
  H+  H138  1  0.26033030  0.12674879  -0.01742049  1
  H+  H139  1  0.11196327  0.64433796  0.81750336  1
  H+  H140  1  -0.03726344  0.85977497  0.63674978  1
  H+  H141  1  0.60667460  0.00612280  0.69539960  1
  H+  H142  1  0.89468042  0.11873342  0.17249020  1
  H+  H143  1  0.82441544  0.41475820  0.25276980  1
  H+  H144  1  0.37491831  0.10999405  0.50608370  1
  H+  H145  1  0.13494406  0.03137215  0.50489344  1
  H+  H146  1  0.27238094  0.63975881  0.48706582  1
  H+  H147  1  0.11616346  0.48082485  0.81384568  1
  H+  H148  1  0.51592812  0.63494798  0.83138110  1
  H+  H149  1  0.02445327  0.65046963  0.66787690  1
  H+  H150  1  0.27491864  0.39001420  0.82346056  1
  H+  H151  1  0.11988279  0.47862570  0.15642793  1
  H+  H152  1  0.27827682  0.39336455  0.00242566  1
  H+  H153  1  0.03238133  0.14527431  -0.00276343  1
  H+  H154  1  0.77451209  0.88995057  0.83461477  1
  H+  H155  1  0.89059830  0.36722871  0.18720687  1
  H+  H156  1  0.63998947  0.77351420  0.84824606  1
  H+  H157  1  0.27740889  0.89586167  0.82993038  1
  H+  H158  1  0.87993140  0.23498125  0.15306305  1
  H+  H159  1  0.63306655  0.02828829  0.86426907  1
  H+  H160  1  0.92046362  0.32344984  0.26772492  1
  H+  H161  1  0.36719424  -0.01500946  0.67493137  1
  H+  H162  1  0.37944749  0.52197172  0.50895991  1
  H+  H163  1  0.12018547  0.88968001  1.00904733  1
  H+  H164  1  0.14369510  0.36729017  -0.01353088  1
  H+  H165  1  0.13605278  0.02335623  0.17618752  1
  H+  H166  1  0.75986225  0.33809240  0.45225379  1
  H+  H167  1  0.22914740  0.11643242  0.50049982  1
  H+  H168  1  0.85688677  0.83983608  0.48673225  1
  H+  H169  1  0.26710992  0.13747484  0.15214745  1
  H+  H170  1  0.37859726  0.61108817  0.50742569  1
  H+  H171  1  0.88615564  0.53866142  0.49744437  1
  H+  H172  1  0.78086658  0.64288015  0.04412256  1
  H+  H173  1  0.11428433  0.89246314  0.82316821  1
  H+  H174  1  0.70457042  0.12050102  0.51233879  1
  H+  H175  1  0.11350443  0.38653402  0.15723233  1
  H+  H176  1  1.02804937  0.61711631  0.14999326  1
  H+  H177  1  0.54447150  0.16430149  0.01204377  1
  H+  H178  1  0.11155800  0.74427107  0.67146608  1
  H+  H179  1  0.16752087  0.56573303  0.32777894  1
  H+  H180  1  0.10333411  0.61897917  -0.00969000  1
  H+  H181  1  0.35181088  0.87091866  0.02189107  1
  H+  H182  1  0.36403048  0.23030157  0.48821467  1
  H+  H183  1  0.47471773  0.35438839  0.50203180  1
  H+  H184  1  0.17295984  0.83796345  0.26653435  1
  H+  H185  1  0.61079283  0.63936088  0.17105069  1
  H+  H186  1  0.61896357  0.71357902  0.67278650  1
  H+  H187  1  0.64934740  0.88414000  0.34142006  1
  H+  H188  1  0.12458740  0.14570773  0.49175291  1
  H+  H189  1  0.02210893  0.38375926  0.49509529  1
  H+  H190  1  1.02729632  0.38503650  0.99880827  1
  H+  H191  1  0.35816864  0.37586520  0.34062360  1
  H+  H192  1  0.98148488  0.37181592  0.17278560  1
  H+  H193  1  0.82155485  0.62817957  0.98500418  1
  H+  H194  1  0.87213464  0.15478380  0.67501429  1
  H+  H195  1  0.71282235  0.34740501  0.20088126  1
  H+  H196  1  0.83829213  0.12658421  0.34376832  1
  H+  H197  1  0.64114752  0.25928805  0.47533733  1
  H+  H198  1  0.61045181  0.39886498  -0.00072085  1
  H+  H199  1  0.28133707  0.65505919  0.03287791  1
  H+  H200  1  0.38673927  0.52693631  0.84054003  1
  H+  H201  1  0.35691093  0.72494524  0.81918052  1
  H+  H202  1  0.42338331  0.06676763  0.99119774  1
  H+  H203  1  -0.00740258  0.87970281  0.48464824  1
  H+  H204  1  0.94056055  0.02536949  0.54031362  1
  H+  H205  1  0.88703380  0.38022531  0.65879577  1
  H+  H206  1  0.64032256  0.11741591  0.84713309  1
  H+  H207  1  0.10825049  0.89494840  0.67078074  1
  H+  H208  1  0.14283613  0.86704203  0.17806951  1
  H+  H209  1  0.61741048  0.73124125  0.32665642  1
  H+  H210  1  0.13315718  0.26855238  0.16663382  1
  H+  H211  1  0.83681667  0.71537724  0.12380567  1
  H+  H212  1  0.14215009  0.64374342  0.65025711  1
  H+  H213  1  0.37112091  0.48165872  0.67157757  1
  H+  H214  1  0.14447087  0.27895120  0.98398459  1
  H+  H215  1  0.62415721  0.52531885  0.48696360  1
  H+  H216  1  0.64954803  0.50381020  0.85836097  1
  H+  H217  1  0.62004944  0.95507902  0.78574794  1
  H+  H218  1  0.37370559  0.24446432  0.00283012  1
  H+  H219  1  0.28925170  0.38668655  0.67052062  1
  H+  H220  1  0.28860747  0.64150282  0.16799402  1
  H+  H221  1  0.36053567  0.89286688  0.67431935  1
  H+  H222  1  0.48938749  0.36880553  0.65719556  1
  H+  H223  1  0.57697123  0.17439372  0.10499540  1
  H+  H224  1  0.27101249  0.38380134  0.15734138  1
  H+  H225  1  0.13541781  0.52312957  0.50229071  1
  H+  H226  1  0.53693694  0.89794582  0.34757524  1
  H+  H227  1  0.76614878  0.89383219  0.01230196  1
  H+  H228  1  0.63550928  0.87621383  -0.00359645  1
  H+  H229  1  0.63444190  0.78606681  1.00077793  1
  H+  H230  1  0.39065922  0.78455211  0.18173938  1
  H+  H231  1  0.38371205  0.74719844  0.33894204  1
  H+  H232  1  0.14296673  0.11943965  0.66193619  1
  H+  H233  1  0.93105091  0.81767097  0.98933962  1
  H+  H234  1  0.38691253  0.77727180  0.50271747  1
  H+  H235  1  0.02284870  0.13505080  0.15769760  1
  H+  H236  1  0.16847462  0.33873421  0.89140499  1
  H+  H237  1  0.62590825  1.04251505  0.33834362  1
  H+  H238  1  0.37716296  0.64240822  0.17212735  1
  H+  H239  1  0.60899571  0.09714529  0.49337160  1
  H+  H240  1  1.02070757  0.41220179  0.66070909  1
  H+  H241  1  0.60793779  -0.02056499  0.50606058  1
  H+  H242  1  0.41008849  0.14735807  0.99077617  1
  H+  H243  1  0.28823539  0.90340842  0.33710068  1
  H+  H244  1  0.88656348  0.40002965  0.32813264  1
  H+  H245  1  0.23130652  0.36523553  0.50571538  1
  H+  H246  1  0.13317069  0.50913284  0.98581139  1
  H+  H247  1  0.05365816  0.92415692  0.00943011  1
  H+  H248  1  0.68963739  0.60529727  0.95569875  1
  H+  H249  1  0.89632914  0.78493726  0.20462884  1
  H+  H250  1  0.63684266  0.52116310  0.33241501  1
  H+  H251  1  0.14557801  0.25996106  0.66220209  1
  H+  H252  1  0.12206880  0.23466781  0.49042243  1
  H+  H253  1  0.24928111  0.85154912  0.51108290  1
  H+  H254  1  0.60334467  0.64279186  0.48782796  1
  H+  H255  1  0.83473594  0.62960104  0.14678442  1
  H+  H256  1  0.58342738  0.92253348  1.06957106  1
  H+  H257  1  0.97513551  0.11315439  0.83573497  1
  H+  H258  1  0.52811061  0.65043171  0.01076766  1
  H+  H259  1  0.13150388  0.75197530  0.33681991  1
  H+  H260  1  0.88541320  0.02554076  0.17593131  1
  H+  H261  1  -0.02309320  0.62390390  0.82311158  1
  H+  H262  1  0.84751518  0.71436790  0.45971989  1
  H+  H263  1  0.85227919  0.37780258  0.47961988  1
  H+  H264  1  0.63132236  0.25078372  0.50869906  1
  H+  H265  1  0.02767060  0.88867762  0.16976265  1
  H+  H266  1  0.17014229  0.02929153  0.98611161  1
  H+  H267  1  0.12268800  0.22250756  0.33863420  1
  H+  H268  1  0.86239101  0.43698131  0.05655843  1
  H+  H269  1  0.28522759  0.14722979  0.67251949  1
  H+  H270  1  0.36457256  0.05295578  0.33465938  1
  H+  H271  1  0.13812897  0.36513644  0.82972319  1
  H+  H272  1  0.69292772  0.08639737  0.71943992  1
  H+  H273  1  0.79321443  0.17041545  0.66729276  1
  H+  H274  1  0.14444381  1.02584914  0.33298863  1
  H+  H275  1  0.63766777  0.36536153  0.66071176  1
  H+  H276  1  0.91340896  0.88095656  0.35020617  1
  H+  H277  1  0.57130955  0.40942999  0.25245024  1
  H+  H278  1  0.91176816  0.60063901  0.87842068  1
  H+  H279  1  0.27329257  0.64719105  0.66685123  1
  H+  H280  1  0.52323790  0.88853399  0.16411149  1
  H+  H281  1  0.22688368  0.34680187  0.32821631  1
  H+  H282  1  0.93181462  0.60317378  0.17592333  1
  H+  H283  1  0.47026817  0.85188955  0.82335782  1
  H+  H284  1  0.74498923  0.10960722  0.16124356  1
  H+  H285  1  0.83418004  0.42285033  0.73130930  1
  H+  H286  1  0.86896842  0.14039923  -0.00099459  1
  H+  H287  1  0.36579444  0.38767913  0.49479446  1
  H+  H288  1  0.34298801  0.93597649  0.39774081  1
  H+  H289  1  0.34027429  0.42260772  0.76714015  1
  H+  H290  1  0.39620705  0.31413465  0.26863416  1
  H+  H291  1  0.78434353  0.89061151  0.42082414  1
  H+  H292  1  0.38956781  0.28051955  0.83918869  1
  H+  H293  1  0.39908235  0.12390877  0.66043695  1
  H+  H294  1  0.89365383  0.81273216  0.54420813  1
  H+  H295  1  0.43216310  0.10141482  0.89231578  1
  H+  H296  1  0.57237843  0.88224400  0.70920216  1
  H+  H297  1  0.36292322  0.20617925  0.33041368  1
  H+  H298  1  0.47388001  0.87758037  1.00841028  1
  H+  H299  1  0.09942252  0.92428516  0.41054288  1
  H+  H300  1  0.83315318  0.42233671  0.37316536  1
  H+  H301  1  0.83561194  0.47020857  0.19515602  1
  H+  H302  1  0.89114617  0.07001224  0.26677168  1
  H+  H303  1  0.42147895  0.33403459  0.56431539  1
  H+  H304  1  0.08938707  0.42467596  0.75409360  1
  H+  H305  1  0.15470970  0.57855723  0.88398706  1
  H+  H306  1  0.33829814  0.67407259  0.43102515  1
  H+  H307  1  0.83122531  0.91535927  0.10608809  1
  H+  H308  1  0.57177981  0.39284867  0.38840809  1
  H+  H309  1  0.41558007  0.58800403  0.89977104  1
  H+  H310  1  0.93183811  0.85427797  0.25433980  1
  H+  H311  1  0.11234317  0.38302384  0.49835669  1
  H+  H312  1  0.54711411  0.13682175  0.41514582  1
  H+  H313  1  0.67269735  0.10312361  0.94793033  1
  H+  H314  1  0.19661590  0.97061108  0.39492792  1
  H+  H315  1  0.91298165  0.07609341  0.93376853  1
  H+  H316  1  0.88005304  0.59411279  0.23675204  1
  H+  H317  1  0.11084833  0.22784909  0.82905350  1
  H+  H318  1  0.83135546  0.16161073  0.77085125  1
  H+  H319  1  0.82290164  0.16657719  0.43896015  1
  H+  H320  1  0.60060603  0.47820708  -0.01735211  1
  H+  H321  1  0.41812735  0.34042078  0.93402104  1
  H+  H322  1  0.40533378  0.83437351  0.59687420  1
  H+  H323  1  0.83030588  0.67418330  0.71596577  1
  H+  H324  1  0.17737395  0.59542887  0.22597853  1
  H+  H325  1  0.41583738  0.58837723  0.60189787  1
  H+  H326  1  0.35581849  0.63503192  0.82326730  1
  H+  H327  1  0.38660738  0.86024794  0.83024415  1
  H+  H328  1  0.66651502  0.83688917  0.90611806  1
  H+  H329  1  0.43056341  0.85233682  0.27241357  1
  H+  H330  1  0.91432294  0.34480574  0.56111030  1
  H+  H331  1  0.16135065  0.83334945  0.89714537  1
  H+  H332  1  0.08598318  0.68107228  0.76008570  1
  H+  H333  1  0.33971309  0.17531044  0.76525086  1
  H+  H334  1  0.61276523  0.12854176  0.66191603  1
  H+  H335  1  0.17243498  0.32899176  0.56535229  1
  H+  H336  1  0.37940771  0.12539496  0.17031424  1
  H+  H337  1  0.23024298  0.11167507  0.32399111  1
  H+  H338  1  0.37097800  0.89415591  0.48808226  1
  H+  H339  1  0.60612510  0.46968444  0.19567117  1
  H+  H340  1  0.13724371  0.55363688  0.65137542  1
  H+  H341  1  0.69216271  0.39745295  0.57174116  1
  H+  H342  1  0.67310186  0.58818540  0.23889816  1
  H+  H343  1  0.40578966  0.08022373  0.56587114  1
  H+  H344  1  0.92929072  0.34059982  0.91730005  1
  H+  H345  1  0.33794346  0.17721842  0.06062046  1
  H+  H346  1  0.16486948  0.59259505  0.55705254  1
  H+  H347  1  0.83627554  0.75228486  0.97771203  1
  H+  H348  1  0.16458606  0.71860610  0.08322749  1
  H+  H349  1  0.47354099  0.60655252  0.18194209  1
  H+  H350  1  0.63961411  0.28230310  0.28486809  1
  H+  H351  1  0.09257462  0.17512573  0.05414140  1
  H+  H352  1  0.88942930  0.54523105  0.31949508  1
  H+  H353  1  0.17526561  0.09453491  0.60177857  1
  H+  H354  1  0.81539647  0.93924486  0.73905965  1
  H+  H355  1  0.07748248  0.39032722  0.40799327  1
  H+  H356  1  0.91811328  0.09612643  0.60758461  1
  H+  H357  1  0.35063329  0.67527031  0.08280924  1
  H+  H358  1  0.87428619  0.04011548  0.66812446  1
  H+  H359  1  0.52603552  0.39081395  0.82589521  1
  H+  H360  1  0.08733734  0.91876121  0.10907499  1
  H+  H361  1  0.58024533  0.67980921  0.07227741  1
  H+  H362  1  0.59144485  0.92548248  0.40947640  1
  H+  H363  1  0.08256798  0.16370518  0.73707019  1
  H+  H364  1  0.60856350  0.15694830  0.33163656  1
  H+  H365  1  0.67255441  0.84579903  0.24023043  1
  H+  H366  1  0.32802479  0.66705219  0.72888516  1
  H+  H367  1  0.79624122  0.94884223  0.32706840  1
  H+  H368  1  0.39272170  0.03053377  0.83836346  1
  H+  H369  1  0.33380836  0.41703574  0.09942799  1
  H+  H370  1  0.80370155  0.33843712  0.05880189  1
  H+  H371  1  0.17763762  0.84251136  0.60577697  1
  H+  H372  1  0.40553677  0.10693175  0.23580003  1
  H+  H373  1  0.92204315  0.58690433  0.59754587  1
  H+  H374  1  0.22776803  0.77463937  0.55517649  1
  H+  H375  1  0.40159320  0.37078888  0.65810906  1
  H+  H376  1  0.59485795  0.14700983  0.76979450  1
  H+  H377  1  0.40438362  0.57251509  0.27180795  1
  H+  H378  1  0.33123123  0.92242279  0.10939890  1
  H+  H379  1  0.08345240  0.92381526  0.76403421  1
  H+  H380  1  0.90843590  0.83103121  0.88838374  1
  H+  H381  1  0.19111701  0.08399609  0.91532264  1
  H+  H382  1  0.22263530  0.58632207  0.96272916  1
  H+  H383  1  0.61314199  0.73111628  0.17285887  1
  O2-  O384  1  0.08210631  0.16603369  0.14062711  1
  O2-  O385  1  0.09237270  0.17372404  0.47438820  1
  O2-  O386  1  0.07887155  0.16527732  0.81648648  1
  O2-  O387  1  0.08502220  0.41836462  0.14152052  1
  O2-  O388  1  0.08283309  0.41216706  0.47963027  1
  O2-  O389  1  0.08933223  0.42012344  0.79883833  1
  O2-  O390  1  0.18725420  0.72010984  0.12365389  1
  O2-  O391  1  0.08783786  0.66955448  0.46805644  1
  O2-  O392  1  0.08449129  0.67876091  0.80577274  1
  O2-  O393  1  0.08773639  0.91733489  0.15400751  1
  O2-  O394  1  0.05795206  0.91508792  0.48068755  1
  O2-  O395  1  0.08639541  0.92596194  0.80983432  1
  O2-  O396  1  0.32734755  0.16895666  0.13634492  1
  O2-  O397  1  0.33212211  0.16897772  0.47386252  1
  O2-  O398  1  0.33618225  0.17234980  0.81097061  1
  O2-  O399  1  0.33278570  0.41515536  0.14513320  1
  O2-  O400  1  0.33283458  0.41585607  0.48057122  1
  O2-  O401  1  0.33721114  0.42262939  0.81242813  1
  O2-  O402  1  0.35077188  0.67671892  0.15710646  1
  O2-  O403  1  0.33448853  0.67059854  0.47627223  1
  O2-  O404  1  0.32385610  0.66195807  0.80581378  1
  O2-  O405  1  0.33785459  0.92942700  0.15458100  1
  O2-  O406  1  0.33367551  0.91807345  0.47462312  1
  O2-  O407  1  0.33808758  0.92762763  0.81576897  1
  O2-  O408  1  0.56761787  0.16975821  0.15116886  1
  O2-  O409  1  0.53559592  0.09778857  0.44987763  1
  O2-  O410  1  0.59102616  0.16176646  0.81207537  1
  O2-  O411  1  0.57391709  0.40756370  0.20791480  1
  O2-  O412  1  0.56750124  0.36862619  0.46578433  1
  O2-  O413  1  0.58621567  0.41975733  0.81025220  1
  O2-  O414  1  0.57765291  0.66883040  0.16188815  1
  O2-  O415  1  0.57291959  0.67526787  0.48111848  1
  O2-  O416  1  0.57686122  0.66508161  0.81397443  1
  O2-  O417  1  0.58000889  0.91039226  0.14404794  1
  O2-  O418  1  0.58120860  0.91994662  0.48894139  1
  O2-  O419  1  0.58269817  0.89657347  0.79984068  1
  O2-  O420  1  0.86079495  0.17702839  0.13629347  1
  O2-  O421  1  0.82351436  0.17053205  0.48487792  1
  O2-  O422  1  0.82917106  0.14613917  0.81471703  1
  O2-  O423  1  0.81824247  0.41038326  0.20770571  1
  O2-  O424  1  0.81215983  0.39314976  0.45885227  1
  O2-  O425  1  0.83558982  0.42320962  0.80710806  1
  O2-  O426  1  0.80184878  0.65295544  0.12373024  1
  O2-  O427  1  0.81571821  0.65603138  0.44015930  1
  O2-  O428  1  0.83040559  0.67661679  0.78863768  1
  O2-  O429  1  0.83027714  0.91680469  0.15164748  1
  O2-  O430  1  0.80297180  0.89703322  0.46440647  1
  O2-  O431  1  0.83299230  0.92411105  0.81584028  1
  O2-  O432  1  0.16571903  0.08537199  0.18759049  1
  O2-  O433  1  0.16981286  0.09185784  0.51800210  1
  O2-  O434  1  0.17731744  0.08519934  0.85357317  1
  O2-  O435  1  0.16365393  0.32912746  0.18292607  1
  O2-  O436  1  0.16971331  0.33306348  0.52034307  1
  O2-  O437  1  0.16650747  0.33345539  0.84578588  1
  O2-  O438  1  0.17981528  0.58589423  0.18195712  1
  O2-  O439  1  0.16401608  0.58564513  0.51160850  1
  O2-  O440  1  0.15889156  0.58400143  0.83924774  1
  O2-  O441  1  0.17713382  0.84136673  0.19383214  1
  O2-  O442  1  0.20064162  0.80412373  0.53600001  1
  O2-  O443  1  0.16609184  0.83942098  0.85246529  1
  O2-  O444  1  0.41198039  0.10051968  0.19145488  1
  O2-  O445  1  0.40031361  0.07512979  0.52051128  1
  O2-  O446  1  0.42735344  0.09410558  0.84757250  1
  O2-  O447  1  0.40021353  0.32312429  0.19217422  1
  O2-  O448  1  0.41570116  0.33187055  0.51870155  1
  O2-  O449  1  0.42068769  0.34033572  0.85509275  1
  O2-  O450  1  0.41221436  0.57525469  0.19572811  1
  O2-  O451  1  0.40722297  0.58123251  0.52605082  1
  O2-  O452  1  0.41689377  0.58833602  0.85406270  1
  O2-  O453  1  0.42047699  0.84522587  0.19596811  1
  O2-  O454  1  0.41372914  0.83704889  0.51888816  1
  O2-  O455  1  0.41062124  0.82226873  0.83825368  1
  O2-  O456  1  0.68669080  0.08796577  0.17707408  1
  O2-  O457  1  0.64409824  0.08838644  0.52563207  1
  O2-  O458  1  0.67259968  0.09019396  0.86595672  1
  O2-  O459  1  0.64888056  0.31059121  0.20669048  1
  O2-  O460  1  0.70220033  0.43015367  0.53296513  1
  O2-  O461  1  0.66892532  0.33483608  0.84930125  1
  O2-  O462  1  0.65818470  0.57989782  0.19478368  1
  O2-  O463  1  0.65968248  0.58460388  0.50001731  1
  O2-  O464  1  0.69471803  0.54784267  0.88570999  1
  O2-  O465  1  0.66679755  0.83508651  0.19569340  1
  O2-  O466  1  0.65384334  0.82492732  0.53335664  1
  O2-  O467  1  0.67075454  0.83482153  0.86040088  1
  O2-  O468  1  0.91765345  0.08441466  0.19349381  1
  O2-  O469  1  0.93101785  0.07080176  0.52473140  1
  O2-  O470  1  0.91256199  0.08160682  0.84854420  1
  O2-  O471  1  0.92281259  0.33602943  0.19049057  1
  O2-  O472  1  0.91600538  0.34018932  0.51594997  1
  O2-  O473  1  0.92353982  0.34394757  0.84730620  1
  O2-  O474  1  0.87285209  0.58258887  0.18995110  1
  O2-  O475  1  0.92320998  0.58997105  0.52084672  1
  O2-  O476  1  0.91450516  0.59259383  0.83429126  1
  O2-  O477  1  0.92777633  0.84725558  0.20858151  1
  O2-  O478  1  0.89191915  0.81325076  0.49789863  1
  O2-  O479  1  0.91563491  0.84053254  0.84389561  1
  O2-  O480  1  0.16704797  0.08426868  0.31479965  1
  O2-  O481  1  0.17687430  0.09313323  0.64681901  1
  O2-  O482  1  0.20005676  0.08605428  0.96446941  1
  O2-  O483  1  0.16543020  0.31052468  0.31381817  1
  O2-  O484  1  0.17882710  0.32087102  0.64606380  1
  O2-  O485  1  0.17564670  0.34050878  0.96892042  1
  O2-  O486  1  0.19267793  0.62183524  0.30851653  1
  O2-  O487  1  0.17132486  0.61220948  0.63375225  1
  O2-  O488  1  0.16229441  0.56967060  0.96717475  1
  O2-  O489  1  0.17530393  0.83583634  0.31283894  1
  O2-  O490  1  0.17018294  0.84964130  0.64962795  1
  O2-  O491  1  0.15091318  0.82186635  0.98351285  1
  O2-  O492  1  0.38004003  0.10848194  0.31367368  1
  O2-  O493  1  0.41999114  0.08662872  0.64237052  1
  O2-  O494  1  0.44724614  0.12407864  0.97405322  1
  O2-  O495  1  0.39921636  0.31043407  0.31421180  1
  O2-  O496  1  0.42828568  0.33787327  0.64169221  1
  O2-  O497  1  0.41680039  0.33897089  0.97954752  1
  O2-  O498  1  0.40516934  0.57561748  0.31760487  1
  O2-  O499  1  0.41808521  0.59027056  0.64783872  1
  O2-  O500  1  0.41863906  0.58903223  0.97801538  1
  O2-  O501  1  0.43260953  0.85179665  0.31817042  1
  O2-  O502  1  0.40538649  0.83677397  0.64239015  1
  O2-  O503  1  0.41056799  0.84348511  1.00116704  1
  O2-  O504  1  0.65264689  0.10349666  0.32723644  1
  O2-  O505  1  0.63171496  0.06564039  0.71582774  1
  O2-  O506  1  0.67430107  0.10367332  0.99295302  1
  O2-  O507  1  0.63362955  0.27848153  0.33013104  1
  O2-  O508  1  0.67450510  0.34470351  0.64060894  1
  O2-  O509  1  0.66799885  0.34349114  0.97484901  1
  O2-  O510  1  0.67001525  0.58160606  0.31940478  1
  O2-  O511  1  0.66541712  0.57362914  0.63240425  1
  O2-  O512  1  0.64231869  0.56744595  0.92750404  1
  O2-  O513  1  0.67647535  0.85059386  0.32164032  1
  O2-  O514  1  0.69695088  0.79012790  0.63994846  1
  O2-  O515  1  0.66657769  0.84584344  0.98261695  1
  O2-  O516  1  0.87538965  0.05770951  0.31150872  1
  O2-  O517  1  0.91685410  0.10034644  0.65233520  1
  O2-  O518  1  0.91660424  0.08196992  0.97837740  1
  O2-  O519  1  0.91477930  0.32282057  0.31317536  1
  O2-  O520  1  0.92181072  0.35405755  0.64164753  1
  O2-  O521  1  0.93097012  0.33638483  0.96423432  1
  O2-  O522  1  0.89970736  0.60131264  0.30382342  1
  O2-  O523  1  0.92336106  0.59083270  0.64305380  1
  O2-  O524  1  0.89847935  0.59569007  0.96127282  1
  O2-  O525  1  0.93125822  0.84412661  0.33020012  1
  O2-  O526  1  0.90577504  0.82436201  0.61811626  1
  O2-  O527  1  0.88121333  0.81403098  0.96907925  1
  O2-  O528  1  0.09342958  0.17874844  0.00931225  1
  O2-  O529  1  0.09168276  0.16068613  0.35825432  1
  O2-  O530  1  0.08351645  0.16371900  0.69153811  1
  O2-  O531  1  0.08725107  0.41766683  0.01581967  1
  O2-  O532  1  0.07418040  0.37739537  0.36250013  1
  O2-  O533  1  0.08430547  0.44490817  0.67182693  1
  O2-  O534  1  0.06811112  0.64251277  0.00810054  1
  O2-  O535  1  0.10212479  0.68728760  0.35318038  1
  O2-  O536  1  0.08552298  0.68245123  0.68318557  1
  O2-  O537  1  0.10978882  0.93689359  0.02454327  1
  O2-  O538  1  0.14040581  0.94291857  0.37515166  1
  O2-  O539  1  0.07522430  0.92251443  0.68525305  1
  O2-  O540  1  0.34578756  0.18061344  0.01502749  1
  O2-  O541  1  0.33234884  0.14443834  0.34577709  1
  O2-  O542  1  0.34527939  0.17578558  0.68832144  1
  O2-  O543  1  0.33687631  0.42409794  0.02106729  1
  O2-  O544  1  0.32650126  0.40503174  0.35517684  1
  O2-  O545  1  0.34803689  0.42194563  0.68712613  1
  O2-  O546  1  0.34212213  0.67373824  0.03703126  1
  O2-  O547  1  0.34663349  0.68517682  0.35119315  1
  O2-  O548  1  0.33264115  0.67072123  0.68317748  1
  O2-  O549  1  0.30751649  0.89133206  0.03483240  1
  O2-  O550  1  0.34621563  0.94443044  0.35253861  1
  O2-  O551  1  0.33371643  0.92546538  0.69167475  1
  O2-  O552  1  0.59974774  0.18921599  0.03483139  1
  O2-  O553  1  0.57185489  0.18617613  0.33876852  1
  O2-  O554  1  0.59717273  0.15837497  0.63061697  1
  O2-  O555  1  0.57843518  0.42832478  0.01046160  1
  O2-  O556  1  0.57269667  0.38929524  0.34301905  1
  O2-  O557  1  0.58948982  0.41989751  0.68412348  1
  O2-  O558  1  0.58627776  0.68718492  0.02790427  1
  O2-  O559  1  0.58513538  0.67062173  0.31269573  1
  O2-  O560  1  0.56918085  0.66188278  0.69475161  1
  O2-  O561  1  0.58284644  0.92766495  0.02387618  1
  O2-  O562  1  0.59663744  0.92712232  0.36413818  1
  O2-  O563  1  0.57360598  0.91255240  0.67173717  1
  O2-  O564  1  0.84364643  0.17610224  0.01276846  1
  O2-  O565  1  0.82025680  0.16477695  0.36333546  1
  O2-  O566  1  0.84290350  0.18581320  0.69322882  1
  O2-  O567  1  0.82743421  0.38729338  0.03092796  1
  O2-  O568  1  0.85850816  0.43579218  0.33203021  1
  O2-  O569  1  0.83640580  0.42419078  0.68543556  1
  O2-  O570  1  0.78462143  0.65096999  -0.00062183  1
  O2-  O571  1  0.82526386  0.67693071  0.37456067  1
  O2-  O572  1  0.83022588  0.67023993  0.66977417  1
  O2-  O573  1  0.82740705  0.91967291  0.02706022  1
  O2-  O574  1  0.76538482  0.88904341  0.34420458  1
  O2-  O575  1  0.80185778  0.95479742  0.69890752  1
