# generated using pymatgen
data_H2O
_symmetry_space_group_name_H-M   'P 1'
_cell_length_a   17.98419816
_cell_length_b   17.99059741
_cell_length_c   21.99942646
_cell_angle_alpha   90.01048534
_cell_angle_beta   90.00083531
_cell_angle_gamma   119.98881512
_symmetry_Int_Tables_number   1
_chemical_formula_structural   H2O
_chemical_formula_sum   'H384 O192'
_cell_volume   6164.92192560
_cell_formula_units_Z   192
loop_
 _symmetry_equiv_pos_site_id
 _symmetry_equiv_pos_as_xyz
  1  'x, y, z'
loop_
 _atom_type_symbol
 _atom_type_oxidation_number
  H+  1.0
  O2-  -2.0
loop_
 _atom_site_type_symbol
 _atom_site_label
 _atom_site_symmetry_multiplicity
 _atom_site_fract_x
 _atom_site_fract_y
 _atom_site_fract_z
 _atom_site_occupancy
  H+  H0  1  0.17232179  0.32842994  0.56258276  1
  H+  H1  1  -0.03806542  0.10099697  0.68209192  1
  H+  H2  1  0.71665375  0.35912324  0.65961643  1
  H+  H3  1  0.39286763  0.53786512  0.16738303  1
  H+  H4  1  0.66603397  0.84174510  0.89685128  1
  H+  H5  1  0.86649709  0.88962814  -0.00247976  1
  H+  H6  1  0.84194287  0.63941427  0.15229561  1
  H+  H7  1  0.85850987  0.54883019  0.08867590  1
  H+  H8  1  0.09905297  0.38703700  0.00307375  1
  H+  H9  1  0.42307412  0.39420736  0.50019210  1
  H+  H10  1  0.13325541  0.61060677  0.33182654  1
  H+  H11  1  0.81525243  0.39322029  0.53577169  1
  H+  H12  1  0.12196707  0.48233976  0.33482167  1
  H+  H13  1  0.52971091  0.64697825  0.83021130  1
  H+  H14  1  0.54211001  0.65397639  0.65469730  1
  H+  H15  1  0.38546064  1.05132998  0.66769977  1
  H+  H16  1  0.39351885  0.87562446  0.17925585  1
  H+  H17  1  0.64619397  0.78904743  0.99661259  1
  H+  H18  1  0.47424708  0.36296647  0.32931564  1
  H+  H19  1  0.92299543  0.83582754  0.59947338  1
  H+  H20  1  0.28310856  0.81138825  0.07350733  1
  H+  H21  1  0.85707037  0.73454361  0.16850272  1
  H+  H22  1  0.58283936  0.16435663  0.76799079  1
  H+  H23  1  0.76612755  0.13363711  0.64562435  1
  H+  H24  1  0.11974983  0.51708682  -0.01221867  1
  H+  H25  1  0.86626579  0.46487733  0.36988459  1
  H+  H26  1  0.98784949  0.60457820  0.15228182  1
  H+  H27  1  0.57299724  -0.07423723  0.40249160  1
  H+  H28  1  0.22685222  0.10883792  0.32943995  1
  H+  H29  1  0.95464429  0.59795604  1.01083872  1
  H+  H30  1  0.91746789  0.67037226  0.84147090  1
  H+  H31  1  0.64099319  0.53209350  0.84078866  1
  H+  H32  1  0.89305663  0.36126850  0.33492961  1
  H+  H33  1  0.13482419  0.76744254  0.51186390  1
  H+  H34  1  0.87593635  0.24635477  0.84405852  1
  H+  H35  1  0.37496778  0.29089757  0.66300192  1
  H+  H36  1  0.80816622  0.13578126  0.17505908  1
  H+  H37  1  0.65062107  0.32647465  0.90645623  1
  H+  H38  1  0.62813644  0.86953103  0.35787640  1
  H+  H39  1  0.27948330  0.12256370  0.83986133  1
  H+  H40  1  0.99206228  0.36378878  0.17616941  1
  H+  H41  1  0.96770368  0.36256290  0.99547593  1
  H+  H42  1  0.47389652  0.86375802  0.17127617  1
  H+  H43  1  0.12993252  0.85626464  0.66449968  1
  H+  H44  1  0.10112331  0.12512880  0.66106033  1
  H+  H45  1  0.64766368  0.88052500  -0.00432593  1
  H+  H46  1  0.11379755  0.96829507  0.34578787  1
  H+  H47  1  0.13948311  0.60456034  0.65491319  1
  H+  H48  1  0.25094183  0.15874355  0.68375582  1
  H+  H49  1  0.76765550  0.89057800  -0.00318717  1
  H+  H50  1  0.38495411  0.23234065  0.00728010  1
  H+  H51  1  0.74194378  0.87142853  0.48743018  1
  H+  H52  1  0.61519714  0.23695478  0.01396457  1
  H+  H53  1  0.57887725  0.35637972  1.00550089  1
  H+  H54  1  0.13746468  0.10747317  0.50556142  1
  H+  H55  1  0.84464750  0.17075568  0.60007275  1
  H+  H56  1  0.85836459  0.21697543  0.46235809  1
  H+  H57  1  0.63596148  0.12241731  0.50216965  1
  H+  H58  1  0.35927598  0.22731668  0.33791134  1
  H+  H59  1  1.01375131  0.62177114  0.35102574  1
  H+  H60  1  0.23790749  0.12141896  1.00388057  1
  H+  H61  1  0.63872890  0.37120521  0.35015461  1
  H+  H62  1  0.61007081  0.13869566  0.67378928  1
  H+  H63  1  0.12946833  0.40029332  0.15121634  1
  H+  H64  1  0.36615292  0.48203404  0.33528730  1
  H+  H65  1  0.08659489  0.90972757  0.40588277  1
  H+  H66  1  0.61136267  0.23998611  0.34891013  1
  H+  H67  1  0.60433407  0.95270864  0.78829589  1
  H+  H68  1  0.96418921  0.35601056  0.69371347  1
  H+  H69  1  0.96711670  0.85802765  0.18286865  1
  H+  H70  1  0.59557308  -0.01736296  0.15123062  1
  H+  H71  1  0.88906344  0.78742043  0.99518531  1
  H+  H72  1  0.43828213  0.53704338  0.64364505  1
  H+  H73  1  0.36135161  0.39281422  0.82545775  1
  H+  H74  1  0.91322021  0.34836382  0.50487143  1
  H+  H75  1  0.37870460  0.85947448  0.50341850  1
  H+  H76  1  0.68717580  0.36989378  0.51443462  1
  H+  H77  1  0.85345192  0.13581738  0.31279770  1
  H+  H78  1  0.37930302  0.76735072  0.82524534  1
  H+  H79  1  0.49993544  0.63218767  -0.01201548  1
  H+  H80  1  0.22129816  0.35935427  0.84362412  1
  H+  H81  1  0.26130527  0.86928863  0.34075381  1
  H+  H82  1  0.15360829  0.36307951  0.50134481  1
  H+  H83  1  0.85541628  0.64983944  0.01420163  1
  H+  H84  1  0.62959649  0.64451266  0.65965040  1
  H+  H85  1  0.02582841  0.88802100  0.67603722  1
  H+  H86  1  0.32348241  0.46490448  0.67476265  1
  H+  H87  1  0.14223315  0.62703948  0.84223906  1
  H+  H88  1  0.52317527  0.63878586  0.34060427  1
  H+  H89  1  0.86067252  0.88818599  0.19475789  1
  H+  H90  1  0.88753626  0.61595890  0.66535665  1
  H+  H91  1  0.76654276  0.62721143  0.34324841  1
  H+  H92  1  0.47880926  0.88525612  -0.00404963  1
  H+  H93  1  0.36526329  0.64203836  0.49210506  1
  H+  H94  1  0.86977123  0.73165518  0.67010583  1
  H+  H95  1  0.13394282  0.76914384  0.66565758  1
  H+  H96  1  0.45533532  0.16185741  0.17455862  1
  H+  H97  1  0.62189648  0.98989957  0.01021682  1
  H+  H98  1  0.61748890  0.26811508  0.84568869  1
  H+  H99  1  0.44683662  1.07035794  0.17913882  1
  H+  H100  1  0.06831383  0.69759035  0.16502776  1
  H+  H101  1  0.40256004  0.79137123  -0.00405931  1
  H+  H102  1  0.04746454  0.68243489  0.83172451  1
  H+  H103  1  0.89422734  0.86448412  0.50213662  1
  H+  H104  1  0.66750518  0.83943009  0.44134799  1
  H+  H105  1  0.14626017  0.52324873  0.50245087  1
  H+  H106  1  0.13584389  0.36638697  0.32053700  1
  H+  H107  1  0.89163502  0.27305242  0.32536829  1
  H+  H108  1  0.34580338  0.40288135  -0.01119181  1
  H+  H109  1  0.97620260  0.11353522  0.49959243  1
  H+  H110  1  -0.02106316  0.87718674  -0.00472978  1
  H+  H111  1  0.61959917  0.72833810  0.48810039  1
  H+  H112  1  0.03358685  0.39137208  0.33971795  1
  H+  H113  1  0.13610320  0.24382669  0.16297176  1
  H+  H114  1  0.56636560  0.37584299  0.50926620  1
  H+  H115  1  0.35244329  0.73119548  0.16446007  1
  H+  H116  1  0.38165750  0.62056839  0.17487767  1
  H+  H117  1  0.73054488  0.62071079  0.83890424  1
  H+  H118  1  0.88143903  0.52275801  0.66372568  1
  H+  H119  1  0.87747022  0.27006720  0.67775022  1
  H+  H120  1  0.35953394  0.12662909  0.48392608  1
  H+  H121  1  0.48145480  0.61934028  0.50224745  1
  H+  H122  1  0.76651027  0.63106718  0.49821851  1
  H+  H123  1  0.78087683  0.14527035  0.84659134  1
  H+  H124  1  0.38734619  0.61413828  0.32689599  1
  H+  H125  1  0.88405372  0.61846566  0.51260296  1
  H+  H126  1  0.81530847  0.41622837  0.73121120  1
  H+  H127  1  0.32331345  0.95451206  0.17724297  1
  H+  H128  1  0.48488708  0.13562837  0.33089950  1
  H+  H129  1  0.11952510  -0.02375030  0.83414282  1
  H+  H130  1  0.15445276  0.23269277  0.81407938  1
  H+  H131  1  0.23080695  0.61592349  0.50423399  1
  H+  H132  1  0.87393334  0.10094705  0.67220275  1
  H+  H133  1  0.71886148  0.62941577  0.17961582  1
  H+  H134  1  0.89477969  0.11394805  -0.00492028  1
  H+  H135  1  0.15743999  0.79438174  0.85580845  1
  H+  H136  1  0.88519810  0.77122401  0.50613318  1
  H+  H137  1  0.56294566  0.42048453  0.40888261  1
  H+  H138  1  0.61931667  0.14437990  0.82999213  1
  H+  H139  1  0.36712877  0.63292609  0.67168485  1
  H+  H140  1  0.28601697  0.89351633  0.84397473  1
  H+  H141  1  0.73703851  0.12810269  0.00939956  1
  H+  H142  1  0.89050042  0.86404948  0.65842672  1
  H+  H143  1  0.34193655  0.16331497  0.16251263  1
  H+  H144  1  0.52384105  0.65162018  0.15872790  1
  H+  H145  1  0.36656916  0.21172793  0.83178916  1
  H+  H146  1  0.84399932  0.43526360  0.15036819  1
  H+  H147  1  0.14960343  0.31065727  0.89387023  1
  H+  H148  1  0.54149229  0.41383137  0.15918327  1
  H+  H149  1  0.12050765  0.22441841  0.49236682  1
  H+  H150  1  0.02603402  0.88080985  0.49596165  1
  H+  H151  1  0.11019543  0.62932844  0.49901170  1
  H+  H152  1  0.47574903  0.11246600  1.00595898  1
  H+  H153  1  0.62782868  0.26889409  0.66547972  1
  H+  H154  1  0.12906883  0.52949420  0.83887328  1
  H+  H155  1  0.63631734  0.61459536  0.33250499  1
  H+  H156  1  0.04685923  0.15989364  0.18067647  1
  H+  H157  1  0.38221968  0.77300085  0.65921762  1
  H+  H158  1  0.15863547  0.11504921  0.84293839  1
  H+  H159  1  0.86963397  0.34568376  0.84417294  1
  H+  H160  1  0.01620348  0.62391156  0.67193885  1
  H+  H161  1  0.26993654  0.88218426  0.49552275  1
  H+  H162  1  0.43303422  0.59647170  0.93041183  1
  H+  H163  1  0.91516171  0.12427994  0.20483664  1
  H+  H164  1  0.38717698  0.36521660  0.32611483  1
  H+  H165  1  0.61025437  0.38801709  0.67323979  1
  H+  H166  1  0.39209228  0.10290373  0.84717281  1
  H+  H167  1  0.85632265  0.38413688  0.68417357  1
  H+  H168  1  0.11650149  0.48193711  0.15861100  1
  H+  H169  1  0.60786181  -0.01578860  0.49884388  1
  H+  H170  1  0.13083487  0.11158652  0.17724402  1
  H+  H171  1  0.63585434  0.77423693  0.84022744  1
  H+  H172  1  0.87331769  0.98270904  0.20055757  1
  H+  H173  1  0.33304129  0.67235763  0.10605373  1
  H+  H174  1  0.71832060  0.86918319  0.34853887  1
  H+  H175  1  0.61075888  0.64908165  0.16276705  1
  H+  H176  1  0.41508261  0.30212115  0.16892487  1
  H+  H177  1  0.41889486  0.58861466  0.26627850  1
  H+  H178  1  0.84467445  0.48869817  0.51480550  1
  H+  H179  1  0.60853430  0.87305187  0.81834263  1
  H+  H180  1  0.09896451  0.71945075  0.00802071  1
  H+  H181  1  0.26568848  0.91313388  0.68485010  1
  H+  H182  1  0.11861565  0.22170502  0.34084557  1
  H+  H183  1  0.75318119  0.35548484  1.00263301  1
  H+  H184  1  0.83850774  0.67841212  0.76615425  1
  H+  H185  1  0.74356632  0.86221993  0.64691388  1
  H+  H186  1  0.35240731  0.87541537  0.34115834  1
  H+  H187  1  0.88971554  0.85607451  0.33189709  1
  H+  H188  1  0.16491828  0.82775059  0.57097955  1
  H+  H189  1  0.71063603  0.22579116  0.26017785  1
  H+  H190  1  0.84831718  0.48868771  0.89772500  1
  H+  H191  1  0.21503472  0.61750526  0.17296140  1
  H+  H192  1  0.60781007  0.89836775  0.16077688  1
  H+  H193  1  0.72696875  0.63456197  -0.00630486  1
  H+  H194  1  0.08957308  0.87059724  0.16600038  1
  H+  H195  1  0.27387743  0.63589337  0.34017290  1
  H+  H196  1  0.61173633  0.89765454  0.49453029  1
  H+  H197  1  0.64267063  0.75089352  0.64591690  1
  H+  H198  1  0.02945709  0.88931924  0.83115331  1
  H+  H199  1  0.12251354  0.84750398  0.33013042  1
  H+  H200  1  0.20595740  0.34512248  0.66044341  1
  H+  H201  1  -0.02334818  0.11410861  0.83555381  1
  H+  H202  1  0.74225980  0.34916355  0.83028199  1
  H+  H203  1  0.02219966  0.40256685  0.82763111  1
  H+  H204  1  0.14740783  0.03184168  1.00487515  1
  H+  H205  1  0.13936652  0.02320890  0.65959769  1
  H+  H206  1  0.39267162  0.52901505  0.50175625  1
  H+  H207  1  0.32444605  0.90824913  0.43340008  1
  H+  H208  1  0.63047960  0.78966696  0.17302552  1
  H+  H209  1  0.97825460  0.85481748  0.33962144  1
  H+  H210  1  0.39666207  0.31465551  0.77534377  1
  H+  H211  1  0.11396141  0.13039114  0.33948735  1
  H+  H212  1  0.71514135  0.87658796  0.18886598  1
  H+  H213  1  0.38192841  0.01733276  0.50586462  1
  H+  H214  1  0.41458592  0.50097976  -0.00275616  1
  H+  H215  1  0.20368387  0.20172768  0.76766323  1
  H+  H216  1  0.21328979  0.84874195  1.01236084  1
  H+  H217  1  0.60991126  0.72885471  0.35434540  1
  H+  H218  1  0.27442038  0.62548775  0.66948450  1
  H+  H219  1  0.25427673  0.38504167  0.15489975  1
  H+  H220  1  0.60833566  0.38911855  0.82997710  1
  H+  H221  1  0.63304883  0.61365589  0.50870376  1
  H+  H222  1  0.38805263  0.61880358  0.83921181  1
  H+  H223  1  0.45343481  0.38446388  0.99757104  1
  H+  H224  1  0.27159682  0.63840285  0.82617157  1
  H+  H225  1  0.35332809  0.86699982  0.02498271  1
  H+  H226  1  0.87228548  0.59630046  0.34171613  1
  H+  H227  1  0.60987711  0.15379155  0.33127838  1
  H+  H228  1  0.28898362  0.38927255  0.49310538  1
  H+  H229  1  0.47714264  0.36562476  0.81800805  1
  H+  H230  1  0.11785387  0.25708584  0.65258007  1
  H+  H231  1  0.32800557  0.66046955  0.76423940  1
  H+  H232  1  0.62086474  0.40062990  0.15109314  1
  H+  H233  1  0.65177133  0.04228629  0.86759459  1
  H+  H234  1  0.88890288  0.87223045  0.83786642  1
  H+  H235  1  0.81170042  0.49692850  0.89231991  1
  H+  H236  1  0.38352566  0.86828813  0.83149275  1
  H+  H237  1  0.27895023  0.39168489  0.33523537  1
  H+  H238  1  0.85641323  -0.02541711  0.82032667  1
  H+  H239  1  0.19688805  0.35169120  0.99264659  1
  H+  H240  1  0.62922006  0.02407713  0.65200973  1
  H+  H241  1  0.38661683  0.77077512  0.32715217  1
  H+  H242  1  0.88488502  0.10694097  0.48943156  1
  H+  H243  1  0.51118669  0.88918453  0.65589509  1
  H+  H244  1  1.11649562  0.60902145  0.98875296  1
  H+  H245  1  0.87410238  0.22585184  0.01287530  1
  H+  H246  1  0.72189336  0.11572311  0.49655193  1
  H+  H247  1  0.81440963  0.14519537  0.41353799  1
  H+  H248  1  0.59793751  0.22768051  0.49543728  1
  H+  H249  1  0.20295919  0.08710728  0.17110502  1
  H+  H250  1  0.85944339  0.71333926  0.34618223  1
  H+  H251  1  0.82291496  0.90944252  0.27775704  1
  H+  H252  1  0.42199262  0.34908086  0.60372733  1
  H+  H253  1  0.35139549  0.39266462  0.67245650  1
  H+  H254  1  0.37919511  0.97896341  0.84044048  1
  H+  H255  1  0.11100228  0.46892453  0.67165524  1
  H+  H256  1  0.11549848  0.88094552  0.49844474  1
  H+  H257  1  0.86338892  0.74145694  0.82414216  1
  H+  H258  1  0.38780019  0.52988783  0.84086536  1
  H+  H259  1  0.64107659  0.52888116  0.66177628  1
  H+  H260  1  0.38425433  0.40760393  0.15558089  1
  H+  H261  1  0.61871923  0.64779879  0.83094464  1
  H+  H262  1  -0.01849307  0.10926968  -0.00390819  1
  H+  H263  1  0.48339464  0.10856859  0.84661993  1
  H+  H264  1  0.61638386  0.26982164  0.13182140  1
  H+  H265  1  0.11900445  0.60396638  0.17389536  1
  H+  H266  1  0.69202488  0.11559548  0.12985367  1
  H+  H267  1  0.77974401  0.64279540  0.67162809  1
  H+  H268  1  0.47012723  0.10674042  0.50442984  1
  H+  H269  1  0.98751834  0.12270602  0.30987543  1
  H+  H270  1  0.40168590  0.65448243  0.01212687  1
  H+  H271  1  0.11888427  0.75574367  0.33120170  1
  H+  H272  1  0.09401640  0.96269583  0.16647585  1
  H+  H273  1  0.72409742  0.36431702  0.35715470  1
  H+  H274  1  0.46929844  0.86284071  0.50797266  1
  H+  H275  1  0.47545476  0.85745523  0.82015215  1
  H+  H276  1  0.11500650  0.26071643  0.99851992  1
  H+  H277  1  0.17899454  0.81906099  0.17842097  1
  H+  H278  1  0.87256274  0.14428014  0.83747307  1
  H+  H279  1  0.90325434  0.36074535  0.43519338  1
  H+  H280  1  0.10265333  0.37643311  0.67443518  1
  H+  H281  1  0.87006794  0.34605777  0.99488493  1
  H+  H282  1  0.17097159  0.57574848  0.59637177  1
  H+  H283  1  0.77396239  0.15398293  0.30676571  1
  H+  H284  1  0.63775456  0.53574615  0.17733236  1
  H+  H285  1  0.04267657  0.38675433  0.47644699  1
  H+  H286  1  0.10905251  0.88825058  0.01272810  1
  H+  H287  1  0.62555682  0.65888265  0.00418426  1
  H+  H288  1  0.60637025  0.47902576  0.34967478  1
  H+  H289  1  0.08332394  0.16524085  0.07331961  1
  H+  H290  1  0.32254089  0.42178066  0.77296620  1
  H+  H291  1  0.06846097  0.61979712  0.72760938  1
  H+  H292  1  0.02072481  0.63067970  0.50133518  1
  H+  H293  1  0.07441838  0.91557146  0.07011097  1
  H+  H294  1  0.96463711  0.37926353  0.58354785  1
  H+  H295  1  0.42923968  0.58969739  0.58892284  1
  H+  H296  1  0.11118192  0.29260843  0.27312152  1
  H+  H297  1  0.27194752  0.12832918  0.48416050  1
  H+  H298  1  0.11146628  0.42466122  0.42620291  1
  H+  H299  1  0.78051150  0.50520574  0.13369407  1
  H+  H300  1  0.45209459  0.73041534  0.05677659  1
  H+  H301  1  0.57997308  0.17133629  0.43467014  1
  H+  H302  1  0.82462525  0.41236325  0.43061359  1
  H+  H303  1  0.61808081  0.51895945  0.51390405  1
  H+  H304  1  0.89564509  0.55155994  0.28856783  1
  H+  H305  1  0.11853553  0.13767797  0.01536019  1
  H+  H306  1  0.36236763  0.73018457  0.49214037  1
  H+  H307  1  0.59014702  0.42474656  0.76768102  1
  H+  H308  1  0.06832392  0.65419029  0.06458675  1
  H+  H309  1  0.31331238  0.17653801  0.74005683  1
  H+  H310  1  0.66229127  0.58384188  0.27230426  1
  H+  H311  1  0.68811557  0.83513492  0.58282946  1
  H+  H312  1  0.34290895  0.42287613  0.43155780  1
  H+  H313  1  0.44152786  0.11718126  0.26049408  1
  H+  H314  1  0.36847862  0.43844465  0.09097300  1
  H+  H315  1  0.64706493  0.13117353  1.01073202  1
  H+  H316  1  0.76931879  0.30151400  0.78253134  1
  H+  H317  1  0.47342728  0.34499442  0.94079315  1
  H+  H318  1  0.63315895  0.32667775  0.57303285  1
  H+  H319  1  0.33423280  0.66660170  0.39914231  1
  H+  H320  1  0.86848140  0.98346669  0.32224172  1
  H+  H321  1  0.38869747  0.13340248  0.32435370  1
  H+  H322  1  0.15252894  0.58258607  0.92126464  1
  H+  H323  1  0.92629293  0.08762384  0.89894107  1
  H+  H324  1  0.41543400  0.83116417  0.26844966  1
  H+  H325  1  0.08682200  0.91764483  0.73535487  1
  H+  H326  1  0.60912035  0.12834947  0.12660855  1
  H+  H327  1  0.15015893  0.87842977  0.85299210  1
  H+  H328  1  0.65834333  0.08827958  0.59581460  1
  H+  H329  1  0.35099840  0.93666769  0.11310171  1
  H+  H330  1  0.59155343  0.68517388  0.06513276  1
  H+  H331  1  0.08535147  0.16299647  0.43425946  1
  H+  H332  1  0.16928311  0.08050975  0.59839362  1
  H+  H333  1  0.12930550  0.80352400  0.24130888  1
  H+  H334  1  0.66844820  0.60221774  0.93453246  1
  H+  H335  1  0.09024682  0.16244399  0.72253273  1
  H+  H336  1  0.76804555  0.88578361  0.82628014  1
  H+  H337  1  0.13772818  0.01840855  0.50646014  1
  H+  H338  1  0.11773785  0.72116160  0.77695068  1
  H+  H339  1  0.32428302  0.94344257  0.74318746  1
  H+  H340  1  0.52058861  0.88847012  0.34131833  1
  H+  H341  1  0.86747345  -0.01546987  0.99702466  1
  H+  H342  1  0.91608678  0.82325440  0.24670850  1
  H+  H343  1  0.58522367  0.92355211  0.06541227  1
  H+  H344  1  0.52565969  0.39651887  0.67484367  1
  H+  H345  1  0.58420726  0.89735329  0.69951410  1
  H+  H346  1  0.08318177  0.43011325  0.76936056  1
  H+  H347  1  0.82184581  0.89762234  0.72821873  1
  H+  H348  1  0.40197748  0.82838625  0.59951679  1
  H+  H349  1  0.08168911  0.42600551  0.06334770  1
  H+  H350  1  0.93504614  0.33686258  0.23824386  1
  H+  H351  1  0.42632761  0.35065267  0.23208427  1
  H+  H352  1  0.37395448  0.13835657  0.01016711  1
  H+  H353  1  0.82516275  0.65765605  0.43867823  1
  H+  H354  1  0.81040461  0.37311481  0.06349213  1
  H+  H355  1  0.16118114  0.07299439  0.27338693  1
  H+  H356  1  0.91094573  0.32924501  0.90672793  1
  H+  H357  1  0.42094458  0.08193327  0.94555497  1
  H+  H358  1  0.82862739  0.68970588  0.06877614  1
  H+  H359  1  0.91866494  0.84375890  0.89794969  1
  H+  H360  1  0.07803782  0.65736763  0.40770912  1
  H+  H361  1  0.68228304  0.10924678  0.92062037  1
  H+  H362  1  0.86593558  0.50824523  1.00361198  1
  H+  H363  1  0.66983849  0.58407599  0.59981315  1
  H+  H364  1  0.17318372  0.08449640  0.90960408  1
  H+  H365  1  0.85815430  -0.02798393  0.68082497  1
  H+  H366  1  0.86133509  0.35775053  0.16341960  1
  H+  H367  1  0.37706489  0.19205063  0.09541970  1
  H+  H368  1  0.92062650  0.37512867  0.58281301  1
  H+  H369  1  0.58174927  0.66021161  0.43446655  1
  H+  H370  1  0.42250259  0.09273459  0.60286434  1
  H+  H371  1  0.87727248  -0.01494161  0.48526659  1
  H+  H372  1  0.89124425  0.22838945  0.17321740  1
  H+  H373  1  0.93901797  0.62112253  0.89163980  1
  H+  H374  1  0.70494453  0.33615554  0.16004406  1
  H+  H375  1  0.52061127  0.14068664  0.67427424  1
  H+  H376  1  0.20351628  0.36563786  0.21737384  1
  H+  H377  1  0.16757653  0.83842752  0.94790109  1
  H+  H378  1  0.66803470  0.13775244  0.22587110  1
  H+  H379  1  0.33165034  0.16180378  0.39691556  1
  H+  H380  1  0.85425254  0.92460459  0.42643369  1
  H+  H381  1  0.91503739  0.58978526  0.57323801  1
  H+  H382  1  0.16230682  0.58607750  0.26917645  1
  H+  H383  1  0.85666035  0.16834439  0.07320498  1
  O2-  O384  1  0.09901120  0.18071771  0.15526455  1
  O2-  O385  1  0.08561208  0.16307341  0.47936115  1
  O2-  O386  1  0.14962805  0.18153582  0.79057422  1
  O2-  O387  1  0.09036724  0.42269815  0.14047322  1
  O2-  O388  1  0.10565104  0.41985925  0.47156886  1
  O2-  O389  1  0.08111963  0.44173579  0.81360688  1
  O2-  O390  1  0.04926602  0.64123170  0.14412463  1
  O2-  O391  1  0.08006280  0.66017343  0.48442690  1
  O2-  O392  1  0.10747185  0.69566290  0.81745657  1
  O2-  O393  1  0.06348384  0.90373472  0.14896037  1
  O2-  O394  1  0.08671073  0.91191520  0.48109748  1
  O2-  O395  1  0.09067062  0.91627427  0.81786937  1
  O2-  O396  1  0.39331246  0.20343204  0.14042430  1
  O2-  O397  1  0.32954557  0.15494746  0.46483587  1
  O2-  O398  1  0.33751484  0.15053791  0.82008275  1
  O2-  O399  1  0.35505930  0.43667319  0.13501828  1
  O2-  O400  1  0.34863967  0.42535064  0.47677731  1
  O2-  O401  1  0.32978350  0.42438716  0.81784875  1
  O2-  O402  1  0.31958795  0.66989368  0.15008942  1
  O2-  O403  1  0.33205800  0.66874164  0.47665393  1
  O2-  O404  1  0.33116339  0.66849595  0.80984637  1
  O2-  O405  1  0.37259058  0.96006536  0.15488734  1
  O2-  O406  1  0.32961579  0.91206796  0.47926430  1
  O2-  O407  1  0.34412029  0.91735631  0.82473247  1
  O2-  O408  1  0.57453413  0.17277121  0.09599959  1
  O2-  O409  1  0.57916229  0.16890389  0.47999704  1
  O2-  O410  1  0.58309044  0.16681315  0.81405261  1
  O2-  O411  1  0.60209527  0.44417040  0.14589022  1
  O2-  O412  1  0.54180704  0.41250981  0.49415074  1
  O2-  O413  1  0.58200734  0.42228392  0.81277115  1
  O2-  O414  1  0.58413650  0.68079543  0.14357240  1
  O2-  O415  1  0.58470404  0.66513123  0.48039103  1
  O2-  O416  1  0.59071451  0.68089169  0.81773009  1
  O2-  O417  1  0.57161466  0.92091410  0.14078571  1
  O2-  O418  1  0.57563938  0.92307529  0.48483900  1
  O2-  O419  1  0.57073212  0.89121494  0.79556866  1
  O2-  O420  1  0.86698147  0.16639450  0.15974539  1
  O2-  O421  1  0.82209896  0.15386089  0.45809958  1
  O2-  O422  1  0.84094981  0.17667599  0.82865929  1
  O2-  O423  1  0.82109280  0.37342886  0.14399794  1
  O2-  O424  1  0.80377210  0.42512266  0.50490073  1
  O2-  O425  1  0.79337851  0.35364774  0.80712307  1
  O2-  O426  1  0.82105221  0.67997756  0.14488722  1
  O2-  O427  1  0.82740756  0.66206931  0.48410485  1
  O2-  O428  1  0.83778410  0.67986448  0.81157870  1
  O2-  O429  1  0.82988887  0.92104167  0.20114041  1
  O2-  O430  1  0.84983834  0.92217621  0.47070823  1
  O2-  O431  1  0.82812476  0.91313915  0.80959289  1
  O2-  O432  1  0.14830233  0.06905903  0.19119959  1
  O2-  O433  1  0.16919446  0.07907877  0.52111067  1
  O2-  O434  1  0.17608629  0.07739236  0.86484912  1
  O2-  O435  1  0.19430519  0.35545811  0.17328360  1
  O2-  O436  1  0.18187318  0.33154533  0.51754811  1
  O2-  O437  1  0.16110001  0.31280976  0.84999287  1
  O2-  O438  1  0.15531516  0.58088780  0.18936786  1
  O2-  O439  1  0.17007714  0.58205608  0.51987003  1
  O2-  O440  1  0.16474701  0.59046622  0.85895099  1
  O2-  O441  1  0.12150199  0.79917336  0.19439580  1
  O2-  O442  1  0.16473647  0.82841344  0.52541218  1
  O2-  O443  1  0.18385979  0.85364824  0.87241387  1
  O2-  O444  1  0.46993731  0.12582859  0.20054571  1
  O2-  O445  1  0.41028187  0.07837198  0.51992700  1
  O2-  O446  1  0.42427501  0.07531588  0.86410757  1
  O2-  O447  1  0.43080869  0.35889748  0.18700668  1
  O2-  O448  1  0.45591394  0.37115605  0.52285883  1
  O2-  O449  1  0.41192844  0.33049038  0.81791193  1
  O2-  O450  1  0.41762116  0.59539703  0.18722705  1
  O2-  O451  1  0.42083553  0.58922838  0.51820481  1
  O2-  O452  1  0.42004341  0.59094430  0.85491536  1
  O2-  O453  1  0.41350976  0.83442597  0.18809428  1
  O2-  O454  1  0.40747166  0.82756099  0.51939189  1
  O2-  O455  1  0.41497896  0.83065382  0.83767497  1
  O2-  O456  1  0.63939218  0.09808402  0.15273453  1
  O2-  O457  1  0.66521552  0.09082614  0.51720940  1
  O2-  O458  1  0.68361030  0.10419505  0.87411117  1
  O2-  O459  1  0.64428288  0.32054788  0.15982170  1
  O2-  O460  1  0.62735702  0.33134995  0.52785390  1
  O2-  O461  1  0.65037212  0.32883685  0.86006852  1
  O2-  O462  1  0.65962505  0.59505907  0.19602174  1
  O2-  O463  1  0.65961866  0.57971849  0.52467349  1
  O2-  O464  1  0.67072463  0.59262955  0.85495852  1
  O2-  O465  1  0.65200553  0.84842701  0.18926897  1
  O2-  O466  1  0.67753438  0.84035341  0.48702285  1
  O2-  O467  1  0.66534973  0.83870067  0.85181751  1
  O2-  O468  1  0.94708459  0.09728888  0.22414394  1
  O2-  O469  1  0.91369733  0.07838423  0.50869878  1
  O2-  O470  1  0.91945167  0.08889038  0.85361481  1
  O2-  O471  1  0.93280649  0.32803778  0.19328015  1
  O2-  O472  1  0.92342522  0.33274105  0.46427216  1
  O2-  O473  1  0.91013434  0.32633813  0.86025888  1
  O2-  O474  1  0.84343791  0.53897179  0.13313801  1
  O2-  O475  1  0.91260554  0.58592216  0.52757352  1
  O2-  O476  1  0.96606225  0.67029989  0.86441596  1
  O2-  O477  1  0.90863218  0.82784545  0.20187813  1
  O2-  O478  1  0.92030691  0.83182730  0.52026097  1
  O2-  O479  1  0.92082064  0.84334101  0.85277503  1
  O2-  O480  1  0.16399001  0.07592039  0.31835102  1
  O2-  O481  1  0.16441771  0.08301094  0.64380921  1
  O2-  O482  1  0.17647131  0.09258337  0.99029292  1
  O2-  O483  1  0.15734782  0.32922796  0.30104774  1
  O2-  O484  1  0.14927709  0.31943895  0.64011745  1
  O2-  O485  1  0.13702631  0.31939496  0.97996088  1
  O2-  O486  1  0.16558891  0.58353003  0.31435829  1
  O2-  O487  1  0.17075216  0.57469005  0.64214745  1
  O2-  O488  1  0.14658838  0.57843350  0.97088633  1
  O2-  O489  1  0.14559463  0.81286051  0.31029141  1
  O2-  O490  1  0.16185940  0.82761448  0.64897203  1
  O2-  O491  1  0.15602908  0.82694470  0.99274577  1
  O2-  O492  1  0.42716728  0.10937453  0.30845559  1
  O2-  O493  1  0.42968767  0.10468291  0.64712464  1
  O2-  O494  1  0.41608154  0.08443045  0.99035997  1
  O2-  O495  1  0.41553648  0.33319291  0.31087513  1
  O2-  O496  1  0.41366700  0.35060988  0.64821552  1
  O2-  O497  1  0.46878337  0.34071414  0.98494355  1
  O2-  O498  1  0.41842726  0.58437746  0.31166976  1
  O2-  O499  1  0.43712672  0.58975876  0.63544384  1
  O2-  O500  1  0.43752746  0.59485030  0.97602085  1
  O2-  O501  1  0.41507864  0.83182884  0.31365783  1
  O2-  O502  1  0.40703101  0.83238729  0.64463181  1
  O2-  O503  1  0.41676243  0.85062099  0.98598263  1
  O2-  O504  1  0.69162401  0.16516470  0.26666555  1
  O2-  O505  1  0.66180341  0.08746376  0.64111839  1
  O2-  O506  1  0.67814243  0.10219734  0.99217393  1
  O2-  O507  1  0.66726122  0.33826510  0.33783884  1
  O2-  O508  1  0.65467254  0.32920193  0.64829571  1
  O2-  O509  1  0.65658097  0.31554944  0.97998803  1
  O2-  O510  1  0.66436578  0.58174384  0.31815721  1
  O2-  O511  1  0.67255367  0.58908389  0.64554919  1
  O2-  O512  1  0.66673905  0.60747750  0.97948913  1
  O2-  O513  1  0.66049847  0.83673058  0.36677012  1
  O2-  O514  1  0.68402592  0.82794044  0.62699429  1
  O2-  O515  1  0.67851582  0.85029439  0.98007061  1
  O2-  O516  1  0.92901480  0.09763986  0.28976947  1
  O2-  O517  1  0.89953346  0.06936741  0.69170323  1
  O2-  O518  1  0.92278372  0.08242888  0.97708195  1
  O2-  O519  1  0.92623909  0.33652250  0.31712085  1
  O2-  O520  1  0.90086453  0.32632518  0.69845963  1
  O2-  O521  1  0.90887186  0.32276667  0.97975214  1
  O2-  O522  1  0.90256347  0.56260363  0.33218817  1
  O2-  O523  1  0.91612732  0.58384967  0.64944911  1
  O2-  O524  1  0.89117403  0.56972187  1.01463407  1
  O2-  O525  1  0.91746013  0.82130220  0.32400152  1
  O2-  O526  1  0.92270443  0.83466535  0.64495868  1
  O2-  O527  1  0.91857614  0.84822361  0.97900941  1
  O2-  O528  1  0.08139542  0.16239923  0.02813071  1
  O2-  O529  1  0.08136594  0.16045962  0.35110751  1
  O2-  O530  1  0.07280799  0.15624658  0.67899757  1
  O2-  O531  1  0.07595646  0.42421479  0.01770068  1
  O2-  O532  1  0.09607953  0.42107254  0.34968889  1
  O2-  O533  1  0.08000615  0.41213613  0.69237439  1
  O2-  O534  1  0.06967150  0.65659083  0.01923044  1
  O2-  O535  1  0.07561012  0.65502583  0.36193616  1
  O2-  O536  1  0.07682644  0.64756871  0.68804320  1
  O2-  O537  1  0.08119389  0.92223827  0.02504034  1
  O2-  O538  1  0.08260102  0.90752523  0.35996919  1
  O2-  O539  1  0.08689172  0.91720092  0.69005614  1
  O2-  O540  1  0.34798935  0.17472954  0.02534856  1
  O2-  O541  1  0.33179274  0.16528657  0.34936588  1
  O2-  O542  1  0.29423076  0.20547658  0.71081389  1
  O2-  O543  1  0.39611672  0.44061496  0.01298683  1
  O2-  O544  1  0.33739323  0.42142982  0.35173236  1
  O2-  O545  1  0.31168633  0.41006092  0.69199335  1
  O2-  O546  1  0.39583050  0.69798845  0.03747524  1
  O2-  O547  1  0.33491758  0.66445628  0.35351083  1
  O2-  O548  1  0.33288261  0.65687992  0.68863490  1
  O2-  O549  1  0.30654045  0.86652884  0.05268555  1
  O2-  O550  1  0.31929442  0.90126679  0.35830160  1
  O2-  O551  1  0.30821757  0.96438982  0.70712576  1
  O2-  O552  1  0.58801964  0.17175699  0.02986163  1
  O2-  O553  1  0.57829329  0.17476399  0.35603508  1
  O2-  O554  1  0.58204461  0.16925545  0.69230212  1
  O2-  O555  1  0.64046545  0.37744471  0.01300560  1
  O2-  O556  1  0.57468361  0.41850887  0.36524680  1
  O2-  O557  1  0.58640123  0.42469338  0.68840498  1
  O2-  O558  1  0.59474641  0.69068450  0.01964489  1
  O2-  O559  1  0.58178444  0.66494344  0.35901849  1
  O2-  O560  1  0.60415725  0.68379482  0.66701323  1
  O2-  O561  1  0.59158969  0.92740658  0.01968932  1
  O2-  O562  1  0.57991993  0.92073831  0.35816879  1
  O2-  O563  1  0.57554578  0.92077325  0.66198099  1
  O2-  O564  1  0.84767715  0.16525412  0.02863412  1
  O2-  O565  1  0.82548812  0.16577847  0.33118955  1
  O2-  O566  1  0.83130944  0.16505684  0.64334312  1
  O2-  O567  1  0.81505738  0.38446501  0.01891898  1
  O2-  O568  1  0.84140878  0.40639265  0.38821965  1
  O2-  O569  1  0.82484120  0.41805405  0.68685590  1
  O2-  O570  1  0.83416568  0.68981823  0.02319969  1
  O2-  O571  1  0.82668484  0.65234360  0.36011479  1
  O2-  O572  1  0.83984145  0.67169541  0.68722547  1
  O2-  O573  1  0.83372746  0.92140319  0.01005166  1
  O2-  O574  1  0.83360535  0.91997191  0.32285109  1
  O2-  O575  1  0.82938385  0.90598464  0.68340316  1
