# generated using pymatgen
data_H2O
_symmetry_space_group_name_H-M   'P 1'
_cell_length_a   17.99980302
_cell_length_b   17.99739226
_cell_length_c   22.01189673
_cell_angle_alpha   90.03330353
_cell_angle_beta   90.00064840
_cell_angle_gamma   119.99999079
_symmetry_Int_Tables_number   1
_chemical_formula_structural   H2O
_chemical_formula_sum   'H384 O192'
_cell_volume   6175.40398534
_cell_formula_units_Z   192
loop_
 _symmetry_equiv_pos_site_id
 _symmetry_equiv_pos_as_xyz
  1  'x, y, z'
loop_
 _atom_type_symbol
 _atom_type_oxidation_number
  H+  1.0
  O2-  -2.0
loop_
 _atom_site_type_symbol
 _atom_site_label
 _atom_site_symmetry_multiplicity
 _atom_site_fract_x
 _atom_site_fract_y
 _atom_site_fract_z
 _atom_site_occupancy
  H+  H0  1  0.61946032  0.26387768  0.17000901  1
  H+  H1  1  0.63485785  0.88589000  0.36327245  1
  H+  H2  1  0.86454577  0.22579563  0.67276520  1
  H+  H3  1  0.40048527  0.52467823  0.84283191  1
  H+  H4  1  0.77702662  0.63127514  0.50510169  1
  H+  H5  1  0.74567649  0.12558254  0.16486706  1
  H+  H6  1  0.61458803  0.62121969  0.35359847  1
  H+  H7  1  0.78431547  0.61999880  0.82857829  1
  H+  H8  1  0.35580020  0.89031708  0.47297635  1
  H+  H9  1  0.46639695  0.11450412  0.50301185  1
  H+  H10  1  0.89623898  0.10552021  0.50172735  1
  H+  H11  1  0.08785298  0.59853661  0.16613989  1
  H+  H12  1  0.88242615  0.11165112  0.66098527  1
  H+  H13  1  0.77099615  0.46637237  0.37976794  1
  H+  H14  1  0.01951890  0.63359703  -0.02113946  1
  H+  H15  1  0.09331401  0.71536876  0.14546322  1
  H+  H16  1  0.78894537  0.90249409  1.02829996  1
  H+  H17  1  0.72109122  0.34893957  0.66278478  1
  H+  H18  1  0.85306410  0.38827401  -0.01118458  1
  H+  H19  1  -0.01853925  0.35871216  0.50441895  1
  H+  H20  1  0.35208517  0.22516156  0.66932573  1
  H+  H21  1  0.57708524  0.16669966  0.05786586  1
  H+  H22  1  0.11044327  0.76500504  0.65866518  1
  H+  H23  1  0.82646164  0.42908847  0.40679688  1
  H+  H24  1  0.77274302  0.37837508  0.82140404  1
  H+  H25  1  0.37117564  0.23840250  0.83244534  1
  H+  H26  1  0.63079036  0.27701220  0.84056538  1
  H+  H27  1  0.62810692  0.26065119  0.32730963  1
  H+  H28  1  0.91904242  0.07101348  0.25509834  1
  H+  H29  1  1.01947328  0.13348986  1.01040145  1
  H+  H30  1  0.36373351  -0.01164078  0.48730262  1
  H+  H31  1  0.22476326  0.60922364  0.84226031  1
  H+  H32  1  0.63621249  0.51371879  -0.00829062  1
  H+  H33  1  0.16819539  0.33019829  0.55626462  1
  H+  H34  1  0.12986488  0.10934988  0.32072437  1
  H+  H35  1  0.38317370  0.76852053  -0.00493062  1
  H+  H36  1  0.02246698  0.64374481  0.34719227  1
  H+  H37  1  0.63376033  0.51747156  0.66617147  1
  H+  H38  1  0.92238674  0.32908676  0.89560108  1
  H+  H39  1  0.35723722  0.22589475  0.33947526  1
  H+  H40  1  0.40954906  0.08267827  0.25761308  1
  H+  H41  1  0.88791806  0.53609954  0.33138983  1
  H+  H42  1  0.21697463  0.35683296  0.17216871  1
  H+  H43  1  0.76379626  0.63378225  0.67147701  1
  H+  H44  1  0.60246744  0.13750540  0.83063403  1
  H+  H45  1  0.47879664  0.60791483  0.16547315  1
  H+  H46  1  0.08855003  -0.03587460  0.48324964  1
  H+  H47  1  0.21727720  0.11039906  0.17207395  1
  H+  H48  1  0.91869766  0.07846233  0.56571324  1
  H+  H49  1  0.98082182  0.10410581  0.31499893  1
  H+  H50  1  0.60707123  0.37881111  0.33877719  1
  H+  H51  1  0.11529234  0.13474877  0.83200780  1
  H+  H52  1  0.10738209  0.47394209  1.00235690  1
  H+  H53  1  0.84314295  0.35013730  0.14723179  1
  H+  H54  1  0.47174338  0.85910598  0.99831871  1
  H+  H55  1  0.62280972  1.02555194  0.83894699  1
  H+  H56  1  0.97438417  0.36070893  0.98504786  1
  H+  H57  1  0.10904503  -0.03522292  0.16193021  1
  H+  H58  1  0.20892894  0.90125232  0.62048488  1
  H+  H59  1  0.47617114  0.61570164  0.50959530  1
  H+  H60  1  0.11562449  0.77601767  0.33930608  1
  H+  H61  1  0.86191576  -0.01732419  0.67166386  1
  H+  H62  1  0.45999828  0.35124908  0.99852971  1
  H+  H63  1  0.62792346  0.60498694  0.66724687  1
  H+  H64  1  0.13055693  0.52688980  0.32593170  1
  H+  H65  1  0.40120308  0.77931683  0.17372933  1
  H+  H66  1  0.88869834  0.24411361  0.82806384  1
  H+  H67  1  0.23799991  0.34401872  0.65929029  1
  H+  H68  1  0.98497959  0.36196877  0.83522365  1
  H+  H69  1  0.37777532  0.01653074  0.16838902  1
  H+  H70  1  0.37866027  0.35611220  0.17473577  1
  H+  H71  1  0.13874774  0.36923290  0.98038685  1
  H+  H72  1  0.22797170  0.37032943  0.98477683  1
  H+  H73  1  0.41000435  0.58450234  0.56520902  1
  H+  H74  1  0.90452797  0.63455308  0.85116809  1
  H+  H75  1  0.51841450  0.38602944  0.16169122  1
  H+  H76  1  0.34635916  0.82155301  0.62836555  1
  H+  H77  1  0.33212344  0.65715560  0.77493781  1
  H+  H78  1  0.34513858  0.98508497  0.33084502  1
  H+  H79  1  0.37288960  0.76679295  0.47963657  1
  H+  H80  1  0.36200016  0.47692457  0.33645832  1
  H+  H81  1  0.54653955  0.40719988  0.82693376  1
  H+  H82  1  0.12406404  0.73261898  0.82960823  1
  H+  H83  1  0.59481623  0.91817899  0.74420371  1
  H+  H84  1  0.85069030  0.66348665  0.63802644  1
  H+  H85  1  0.10590312  0.21046050  0.67723328  1
  H+  H86  1  0.37791887  0.10734930  0.16859068  1
  H+  H87  1  0.27557551  0.63015952  0.67806695  1
  H+  H88  1  0.88820423  0.77630539  0.19558882  1
  H+  H89  1  0.39226476  0.38014327  0.83420750  1
  H+  H90  1  0.01581743  0.87865869  0.83714271  1
  H+  H91  1  0.35396699  0.38116699  1.01278026  1
  H+  H92  1  0.26499444  0.88161377  0.00768781  1
  H+  H93  1  0.40155077  0.40683679  0.51448886  1
  H+  H94  1  0.69545918  0.85223178  0.19774934  1
  H+  H95  1  0.88497761  0.14257104  0.82594167  1
  H+  H96  1  0.88391884  0.27209362  -0.01740218  1
  H+  H97  1  0.45974445  0.85942854  0.48829018  1
  H+  H98  1  0.60631908  0.38512735  0.16087326  1
  H+  H99  1  0.36130291  0.88497913  0.15944918  1
  H+  H100  1  0.32595387  0.08997276  0.48120345  1
  H+  H101  1  0.72099449  0.11185188  0.98844568  1
  H+  H102  1  0.52891352  0.62713825  0.35312117  1
  H+  H103  1  0.38661347  0.85716603  0.84783162  1
  H+  H104  1  0.51928587  0.87950790  0.83135815  1
  H+  H105  1  0.42563223  0.34966292  0.60709183  1
  H+  H106  1  0.57392701  0.40915133  0.06498638  1
  H+  H107  1  0.39455521  0.64215654  0.31887807  1
  H+  H108  1  0.61376751  0.62734764  0.00330890  1
  H+  H109  1  0.88094767  0.39105477  0.48690972  1
  H+  H110  1  0.79246540  0.12138610  0.46729895  1
  H+  H111  1  0.66417735  0.84829021  0.49886723  1
  H+  H112  1  0.91513959  0.83076726  0.57700419  1
  H+  H113  1  0.86032427  0.88933358  0.67468091  1
  H+  H114  1  0.22959753  0.36039438  0.83241324  1
  H+  H115  1  0.38703584  0.36395583  0.32912076  1
  H+  H116  1  0.11370253  0.13452132  0.48986909  1
  H+  H117  1  0.15851706  0.33135307  0.23162928  1
  H+  H118  1  0.60258108  0.37811104  0.00513860  1
  H+  H119  1  0.36225518  0.63825136  0.48594709  1
  H+  H120  1  -0.03321612  0.86909551  0.67567225  1
  H+  H121  1  0.61420043  0.62944880  0.50722737  1
  H+  H122  1  0.09736730  0.96841496  0.68305980  1
  H+  H123  1  0.35839742  0.22055326  0.16337730  1
  H+  H124  1  0.97022577  0.10874364  0.66401255  1
  H+  H125  1  0.38013496  0.60210891  0.66319244  1
  H+  H126  1  0.53068432  0.64222050  0.83415825  1
  H+  H127  1  0.64280425  0.77428715  1.03205617  1
  H+  H128  1  0.37741981  0.11507000  0.65478857  1
  H+  H129  1  0.07798671  0.16340001  0.39547584  1
  H+  H130  1  0.19067036  0.87379125  0.33409351  1
  H+  H131  1  -0.04327103  0.61252469  0.17046882  1
  H+  H132  1  0.16312199  0.58024372  0.93516886  1
  H+  H133  1  0.87277278  0.96740918  0.49424090  1
  H+  H134  1  0.50641685  0.12542955  0.15319645  1
  H+  H135  1  0.45593165  0.32797262  0.87682836  1
  H+  H136  1  0.40298983  0.25998272  0.48498424  1
  H+  H137  1  0.13501682  0.36540881  0.32708675  1
  H+  H138  1  0.58804377  0.86735984  0.35526839  1
  H+  H139  1  0.08695611  0.83897173  0.66665371  1
  H+  H140  1  0.34750766  0.73148273  0.33594260  1
  H+  H141  1  0.33059281  0.91206750  0.09914567  1
  H+  H142  1  0.12986736  0.85960263  0.98977456  1
  H+  H143  1  0.81867158  0.39879641  0.05183623  1
  H+  H144  1  0.10675729  0.12867414  0.16556089  1
  H+  H145  1  0.66651412  0.57779716  0.57413364  1
  H+  H146  1  0.86051821  0.45472503  0.67052496  1
  H+  H147  1  0.10754209  0.37849349  0.66758417  1
  H+  H148  1  0.10790466  0.38349734  0.15747895  1
  H+  H149  1  0.35181401  0.12812331  0.01185082  1
  H+  H150  1  0.26363038  0.63820678  0.33072673  1
  H+  H151  1  0.38017754  0.01762906  0.99936750  1
  H+  H152  1  0.40288872  0.83837799  0.26675322  1
  H+  H153  1  0.32347843  0.40856033  0.10291528  1
  H+  H154  1  0.12384893  0.11003892  0.99735183  1
  H+  H155  1  0.79623546  0.13126517  0.33212517  1
  H+  H156  1  0.34940575  0.21617840  1.01339489  1
  H+  H157  1  0.38020831  0.51370337  0.65849602  1
  H+  H158  1  1.02603466  0.38936753  0.33693299  1
  H+  H159  1  0.59522494  0.14725427  0.49933855  1
  H+  H160  1  0.35496377  0.88149433  0.00586838  1
  H+  H161  1  0.65282148  0.08442643  0.89719893  1
  H+  H162  1  0.36775114  0.38208879  0.67621712  1
  H+  H163  1  0.75120075  0.88444872  0.66562093  1
  H+  H164  1  0.89444512  0.62691315  0.33544746  1
  H+  H165  1  0.89001198  0.02916291  0.83708015  1
  H+  H166  1  0.51429841  0.13835693  0.83610970  1
  H+  H167  1  0.02719759  0.13634210  0.49255685  1
  H+  H168  1  0.72337664  0.61811356  0.17991223  1
  H+  H169  1  0.35024462  0.02061204  0.63614474  1
  H+  H170  1  0.41733199  0.82571441  0.90462266  1
  H+  H171  1  0.87565737  0.78065812  0.67140436  1
  H+  H172  1  0.63168557  0.02254657  0.99350740  1
  H+  H173  1  0.62785929  0.11289465  0.68032067  1
  H+  H174  1  0.88205235  0.73601519  0.35749134  1
  H+  H175  1  0.22485926  0.86448965  0.84731882  1
  H+  H176  1  0.62752617  0.26427200  0.66666673  1
  H+  H177  1  0.06888026  0.85967293  0.34145364  1
  H+  H178  1  0.64982658  0.05654729  0.51545066  1
  H+  H179  1  0.36345746  0.97741189  0.84578819  1
  H+  H180  1  0.98387028  0.11608772  0.83819251  1
  H+  H181  1  0.22420728  0.60856572  0.50497043  1
  H+  H182  1  0.78825888  0.87585266  0.49856587  1
  H+  H183  1  0.02216821  0.87892543  0.17210893  1
  H+  H184  1  0.44609785  0.88232320  0.32971104  1
  H+  H185  1  0.73389787  0.84725312  0.29861027  1
  H+  H186  1  0.85448116  0.63978642  0.17077961  1
  H+  H187  1  0.85793608  0.74190349  0.00413271  1
  H+  H188  1  0.17394135  0.34034145  0.89416731  1
  H+  H189  1  0.33373981  0.89047146  0.33236457  1
  H+  H190  1  0.21911790  0.10661996  0.84810177  1
  H+  H191  1  0.11220791  0.64691792  0.34472094  1
  H+  H192  1  0.19937029  0.07899614  0.49637191  1
  H+  H193  1  0.86710575  0.21734853  0.14949264  1
  H+  H194  1  0.61370409  -0.00488899  0.16431120  1
  H+  H195  1  0.11550871  0.63791076  0.83268841  1
  H+  H196  1  0.61785532  0.47348070  0.34000667  1
  H+  H197  1  0.88567156  0.13317888  0.32492124  1
  H+  H198  1  0.12960088  0.61024988  0.99190568  1
  H+  H199  1  0.89576920  0.26815422  0.49972800  1
  H+  H200  1  0.00925558  0.87044052  0.49468904  1
  H+  H201  1  0.97044527  0.10058680  0.16117691  1
  H+  H202  1  0.85934095  0.37472891  0.82064317  1
  H+  H203  1  0.47569073  0.36324093  0.32954167  1
  H+  H204  1  0.62895713  0.39488818  0.82900013  1
  H+  H205  1  0.77501714  0.89402280  0.83190452  1
  H+  H206  1  0.55232585  0.09247516  0.36058946  1
  H+  H207  1  0.11754319  0.22569086  0.82707130  1
  H+  H208  1  0.36186545  0.71872109  0.83366720  1
  H+  H209  1  0.33590006  0.91921757  0.78674304  1
  H+  H210  1  0.85815215  0.13687402  -0.00559807  1
  H+  H211  1  0.12234331  0.84577455  0.16199181  1
  H+  H212  1  0.13490833  0.52182454  0.83852758  1
  H+  H213  1  -0.01513444  0.61391511  0.51673160  1
  H+  H214  1  0.20896701  0.84156531  0.15879544  1
  H+  H215  1  0.73475797  0.61407830  0.33327556  1
  H+  H216  1  0.89535046  0.85873937  0.98924101  1
  H+  H217  1  0.67332279  0.58470175  0.27380807  1
  H+  H218  1  0.60806026  0.13584263  0.99978820  1
  H+  H219  1  0.89201763  0.60785356  0.51905517  1
  H+  H220  1  0.00911225  0.65213343  0.85125971  1
  H+  H221  1  0.75700969  0.35606854  0.14976105  1
  H+  H222  1  0.59511531  0.12503766  0.14903316  1
  H+  H223  1  0.89561449  0.26682958  0.32069849  1
  H+  H224  1  0.63883807  0.77360212  0.84566023  1
  H+  H225  1  0.26835981  0.63236509  0.00516756  1
  H+  H226  1  0.89298405  0.86704983  0.84607051  1
  H+  H227  1  0.10972610  0.63308798  0.49957478  1
  H+  H228  1  0.88566738  0.48251461  0.49431824  1
  H+  H229  1  0.65368666  0.53892818  0.83725039  1
  H+  H230  1  0.64381154  0.52470644  0.51049212  1
  H+  H231  1  0.60939139  0.88648604  0.02438309  1
  H+  H232  1  0.35663566  0.48666254  0.48979631  1
  H+  H233  1  0.17103434  0.58012754  0.56726394  1
  H+  H234  1  0.62894748  0.36324726  0.51175683  1
  H+  H235  1  0.38802374  0.60795299  0.84341357  1
  H+  H236  1  0.97312734  0.34974254  0.16331015  1
  H+  H237  1  0.88699067  0.03001808  0.99348978  1
  H+  H238  1  0.37906578  0.10833236  0.84977307  1
  H+  H239  1  0.67512645  0.12727876  0.31893612  1
  H+  H240  1  0.36096568  0.47382178  0.01097317  1
  H+  H241  1  0.46341886  0.11419652  0.32073431  1
  H+  H242  1  0.59048359  1.00356945  0.34386007  1
  H+  H243  1  0.11281939  0.47578878  0.49368170  1
  H+  H244  1  0.37019888  0.71415099  0.68379984  1
  H+  H245  1  0.11378661  0.38710031  0.48874956  1
  H+  H246  1  0.71290257  0.35391774  0.33016223  1
  H+  H247  1  0.71849495  0.15452367  0.52942692  1
  H+  H248  1  0.67464623  0.84026246  0.60473116  1
  H+  H249  1  0.67701669  0.84339290  1.08593879  1
  H+  H250  1  0.61143179  0.88605764  0.83583038  1
  H+  H251  1  0.59425928  0.90875943  0.52342232  1
  H+  H252  1  0.51659382  0.62414377  0.67567963  1
  H+  H253  1  0.61345644  0.38016156  0.67452691  1
  H+  H254  1  0.88391184  0.35208505  0.65749615  1
  H+  H255  1  0.09458519  0.46652658  0.15670948  1
  H+  H256  1  0.13201291  0.85884751  0.84467717  1
  H+  H257  1  0.10438806  0.72021237  0.00085427  1
  H+  H258  1  0.50005810  0.85769008  0.67479205  1
  H+  H259  1  0.28516929  0.89371345  0.59853916  1
  H+  H260  1  0.38247835  0.63846451  0.15520364  1
  H+  H261  1  0.84117458  -0.02694364  0.33604629  1
  H+  H262  1  0.17804537  0.60858691  0.16977131  1
  H+  H263  1  0.72473296  0.36639428  0.98766486  1
  H+  H264  1  0.64931077  0.88040040  0.66647536  1
  H+  H265  1  0.48707168  0.68708850  0.29083358  1
  H+  H266  1  0.77459792  0.71203271  0.04571803  1
  H+  H267  1  0.50751504  0.12498370  0.67801178  1
  H+  H268  1  0.47003229  0.10883834  0.99646219  1
  H+  H269  1  0.89672681  0.59120065  0.67156745  1
  H+  H270  1  0.38664401  0.60981678  -0.00498503  1
  H+  H271  1  0.27157579  0.39193294  0.48874028  1
  H+  H272  1  0.21895161  0.11209365  0.32027127  1
  H+  H273  1  0.29946643  0.64444153  0.16308083  1
  H+  H274  1  0.11914257  0.38701265  0.82242372  1
  H+  H275  1  0.62246113  0.64635576  0.83158313  1
  H+  H276  1  0.13697557  0.27080901  0.49733281  1
  H+  H277  1  0.88481208  0.34979610  0.32005563  1
  H+  H278  1  0.21167290  0.10198306  0.65809829  1
  H+  H279  1  0.57818588  0.65632875  0.09955472  1
  H+  H280  1  0.03191311  0.62135546  0.67834353  1
  H+  H281  1  0.48422382  0.87247988  0.17882153  1
  H+  H282  1  0.47923528  0.35904161  0.66689314  1
  H+  H283  1  0.37436691  0.24518191  0.51248728  1
  H+  H284  1  0.21224711  0.10657286  0.99657051  1
  H+  H285  1  0.86646077  0.71910351  0.50706759  1
  H+  H286  1  0.10201893  0.21691733  0.16548553  1
  H+  H287  1  0.10694073  0.22429055  0.33704836  1
  H+  H288  1  0.09857431  -0.03770157  0.98620201  1
  H+  H289  1  0.52650988  0.63169428  0.00502976  1
  H+  H290  1  0.88957065  0.85419545  0.51265496  1
  H+  H291  1  0.77248006  0.14007936  0.68326080  1
  H+  H292  1  0.22171002  0.36162946  0.32566631  1
  H+  H293  1  0.07536269  0.15537197  0.73867773  1
  H+  H294  1  0.33349255  0.66356985  0.06221877  1
  H+  H295  1  0.05446217  0.64835935  0.08863854  1
  H+  H296  1  0.14606341  0.61214261  0.66341684  1
  H+  H297  1  0.85884160  0.12345557  0.14435610  1
  H+  H298  1  0.92428138  0.57214343  0.60586262  1
  H+  H299  1  0.07409510  0.15292881  0.07138035  1
  H+  H300  1  0.47966631  0.46840541  0.55525969  1
  H+  H301  1  0.65471640  0.32076976  0.23035001  1
  H+  H302  1  0.84754085  0.64853731  0.77206099  1
  H+  H303  1  0.63462113  0.52789332  0.17879250  1
  H+  H304  1  0.56309809  0.15931717  0.74034530  1
  H+  H305  1  0.91427947  0.82578602  0.90449716  1
  H+  H306  1  0.58494438  0.65641111  0.44604148  1
  H+  H307  1  0.56437408  0.16589184  0.40547286  1
  H+  H308  1  0.63178443  0.91708259  0.15831528  1
  H+  H309  1  0.14796576  0.06600140  0.56008700  1
  H+  H310  1  0.33908027  0.81696410  0.55844585  1
  H+  H311  1  0.86497118  0.95968306  0.07315828  1
  H+  H312  1  0.86190427  0.16512879  0.41710803  1
  H+  H313  1  0.83987049  0.66652516  0.41146039  1
  H+  H314  1  0.85024444  0.17535085  0.76483781  1
  H+  H315  1  0.57772337  0.65956737  0.73419712  1
  H+  H316  1  0.01957021  0.37878627  0.66778541  1
  H+  H317  1  0.41906461  0.58641498  0.22502833  1
  H+  H318  1  0.91389104  0.59628265  0.23584358  1
  H+  H319  1  0.20645073  0.26532608  0.61611291  1
  H+  H320  1  0.15989151  0.08428823  0.90822050  1
  H+  H321  1  0.58621194  0.42044631  0.43347504  1
  H+  H322  1  0.53200632  0.40828813  0.49476056  1
  H+  H323  1  0.14363214  0.58192295  0.26606863  1
  H+  H324  1  0.81540635  0.91005631  0.39156993  1
  H+  H325  1  0.82818835  0.16619602  0.05294919  1
  H+  H326  1  0.45871478  0.80388990  0.61561359  1
  H+  H327  1  0.91673142  0.32331866  0.59792746  1
  H+  H328  1  0.76495123  0.93066639  0.15803599  1
  H+  H329  1  0.29617719  0.11984710  0.42177724  1
  H+  H330  1  0.60518564  0.91299937  0.45257730  1
  H+  H331  1  0.41839147  0.20315110  0.78901943  1
  H+  H332  1  0.33369608  0.42365908  0.39803087  1
  H+  H333  1  0.82737265  0.39464637  0.72958929  1
  H+  H334  1  0.67849979  0.58992732  0.89945298  1
  H+  H335  1  0.53953491  0.97469538  0.40633544  1
  H+  H336  1  0.57540078  0.92696839  0.07137636  1
  H+  H337  1  0.03653487  0.89242138  0.40663251  1
  H+  H338  1  0.67147941  0.83349227  0.90450556  1
  H+  H339  1  0.82981769  0.92178249  0.77089485  1
  H+  H340  1  0.40418896  0.07645529  0.56195675  1
  H+  H341  1  0.14234812  0.52166525  0.66001920  1
  H+  H342  1  0.70083632  0.16990478  0.19860015  1
  H+  H343  1  0.08319492  0.42065399  0.39756494  1
  H+  H344  1  0.06809954  0.91335531  0.74661211  1
  H+  H345  1  0.63404739  0.27608955  0.98743001  1
  H+  H346  1  0.40725926  0.08010102  0.91197278  1
  H+  H347  1  0.10622384  0.96801348  0.83724534  1
  H+  H348  1  0.07902848  0.66678241  0.44384821  1
  H+  H349  1  0.62261185  -0.01592055  0.68696206  1
  H+  H350  1  0.59075529  0.41603000  0.73415900  1
  H+  H351  1  0.68800636  0.08130472  0.26344602  1
  H+  H352  1  0.32221177  0.16723882  0.72864745  1
  H+  H353  1  0.41830455  0.57934798  0.93752116  1
  H+  H354  1  0.35351337  0.13618206  0.32999169  1
  H+  H355  1  0.32427687  0.93243179  0.41654061  1
  H+  H356  1  0.44665961  0.46123483  0.78962118  1
  H+  H357  1  0.09150723  0.66234197  0.73636169  1
  H+  H358  1  0.30032498  0.90021784  0.71100556  1
  H+  H359  1  0.12108473  0.09710830  0.66135407  1
  H+  H360  1  0.32521329  0.16008290  0.10394043  1
  H+  H361  1  0.38949303  0.31707283  0.94436156  1
  H+  H362  1  0.35625851  0.46843814  0.16138154  1
  H+  H363  1  0.91753336  0.08735072  0.93204624  1
  H+  H364  1  0.32464107  0.65839661  0.42469463  1
  H+  H365  1  0.34680699  0.91190853  0.70745677  1
  H+  H366  1  0.16732975  0.82591692  0.93938936  1
  H+  H367  1  0.66040464  0.09033045  0.62052548  1
  H+  H368  1  0.15812254  0.08017255  0.23175962  1
  H+  H369  1  0.72420584  0.60739554  0.99555443  1
  H+  H370  1  0.66576128  0.33842092  0.89948627  1
  H+  H371  1  1.01023942  0.86771252  0.98220948  1
  H+  H372  1  0.91616634  0.31923353  0.22379587  1
  H+  H373  1  0.08548399  0.41479634  0.76424334  1
  H+  H374  1  0.41161460  0.32934716  0.23394858  1
  H+  H375  1  0.93275253  0.83358205  0.25459413  1
  H+  H376  1  0.60691055  0.63645134  0.16327037  1
  H+  H377  1  0.65164198  0.32547901  0.57082560  1
  H+  H378  1  0.59675270  0.23677959  0.49846948  1
  H+  H379  1  0.64023616  0.75363290  0.51566445  1
  H+  H380  1  0.07735002  0.40949163  0.05855264  1
  H+  H381  1  0.33980004  0.41180672  0.73509129  1
  H+  H382  1  0.82842110  0.67784465  0.11338495  1
  H+  H383  1  0.72529249  0.77125087  0.25866275  1
  O2-  O384  1  0.07209326  0.15640298  0.15130203  1
  O2-  O385  1  0.08654515  0.16924467  0.47583460  1
  O2-  O386  1  0.08525031  0.16423438  0.81373846  1
  O2-  O387  1  0.07400999  0.40850218  0.13920885  1
  O2-  O388  1  0.08180545  0.41631881  0.47555448  1
  O2-  O389  1  0.08656059  0.41614533  0.80943256  1
  O2-  O390  1  0.05548185  0.65126503  0.13390310  1
  O2-  O391  1  0.07724131  0.66219014  0.48887504  1
  O2-  O392  1  0.08810661  0.67050009  0.81607813  1
  O2-  O393  1  0.07860558  0.90349228  0.15081380  1
  O2-  O394  1  0.05987261  0.90385102  0.46779477  1
  O2-  O395  1  0.07806919  0.90893870  0.82053561  1
  O2-  O396  1  0.32813027  0.15950186  0.14956162  1
  O2-  O397  1  0.27574790  0.08433383  0.45917055  1
  O2-  O398  1  0.36110691  0.18342225  0.80545298  1
  O2-  O399  1  0.32368839  0.40707493  0.14867845  1
  O2-  O400  1  0.33281010  0.42620824  0.47482580  1
  O2-  O401  1  0.38949108  0.42936544  0.80749472  1
  O2-  O402  1  0.35451328  0.67380671  0.14237153  1
  O2-  O403  1  0.32859043  0.66450742  0.46998194  1
  O2-  O404  1  0.33163414  0.65719868  0.82046563  1
  O2-  O405  1  0.33029762  0.91401576  0.14471709  1
  O2-  O406  1  0.33135935  0.92893605  0.46388840  1
  O2-  O407  1  0.33498072  0.91569562  0.83119949  1
  O2-  O408  1  0.56755920  0.15798517  0.13714419  1
  O2-  O409  1  0.56533062  0.17460986  0.48040167  1
  O2-  O410  1  0.57182357  0.16949477  0.81657785  1
  O2-  O411  1  0.57852379  0.41779047  0.14603057  1
  O2-  O412  1  0.58999785  0.42559949  0.47892079  1
  O2-  O413  1  0.60443289  0.43124832  0.81078773  1
  O2-  O414  1  0.57157759  0.65861153  0.14431813  1
  O2-  O415  1  0.58424178  0.66076773  0.49238741  1
  O2-  O416  1  0.59030296  0.67540521  0.81749265  1
  O2-  O417  1  0.58675401  0.93513984  0.15120460  1
  O2-  O418  1  0.58442942  0.93311363  0.48662598  1
  O2-  O419  1  0.58024803  0.91257441  0.81657809  1
  O2-  O420  1  0.83063399  0.15768679  0.13232566  1
  O2-  O421  1  0.85364502  0.16136676  0.46310399  1
  O2-  O422  1  0.85762578  0.17838918  0.81073254  1
  O2-  O423  1  0.80516961  0.36421416  0.12381725  1
  O2-  O424  1  0.86434893  0.43052137  0.46823717  1
  O2-  O425  1  0.82879163  0.40079491  0.80068361  1
  O2-  O426  1  0.82353682  0.67215966  0.15829999  1
  O2-  O427  1  0.83777061  0.65878829  0.49110544  1
  O2-  O428  1  0.83369492  0.61703007  0.81042141  1
  O2-  O429  1  0.86733913  0.98582660  0.14848347  1
  O2-  O430  1  0.84521968  0.90695976  0.47932200  1
  O2-  O431  1  0.83445850  0.92705410  0.81561493  1
  O2-  O432  1  0.15653277  0.08123532  0.18540968  1
  O2-  O433  1  0.14254254  0.06699256  0.51531653  1
  O2-  O434  1  0.15958339  0.08133434  0.86098109  1
  O2-  O435  1  0.15601953  0.32967833  0.18630851  1
  O2-  O436  1  0.16688706  0.33290675  0.51150920  1
  O2-  O437  1  0.17038813  0.33313893  0.84652933  1
  O2-  O438  1  0.12111306  0.57079170  0.18600498  1
  O2-  O439  1  0.16535827  0.57591088  0.52199485  1
  O2-  O440  1  0.16334869  0.58126161  0.85538860  1
  O2-  O441  1  0.14772703  0.80707016  0.16875970  1
  O2-  O442  1  0.26900685  0.93847234  0.60594261  1
  O2-  O443  1  0.16321917  0.82811314  0.85777595  1
  O2-  O444  1  0.41056157  0.07807349  0.18260528  1
  O2-  O445  1  0.40595863  0.07286895  0.51636727  1
  O2-  O446  1  0.40831333  0.07798092  0.86573630  1
  O2-  O447  1  0.41135022  0.32770656  0.18863277  1
  O2-  O448  1  0.44979459  0.40982768  0.53966687  1
  O2-  O449  1  0.39754500  0.31434425  0.86743133  1
  O2-  O450  1  0.41562332  0.57858543  0.18040594  1
  O2-  O451  1  0.41354810  0.58809549  0.51967320  1
  O2-  O452  1  0.42407273  0.58386053  0.85905914  1
  O2-  O453  1  0.42276210  0.83726777  0.19161165  1
  O2-  O454  1  0.39694776  0.83036302  0.48815021  1
  O2-  O455  1  0.41657878  0.82505759  0.85878408  1
  O2-  O456  1  0.69058780  0.11248819  0.18907670  1
  O2-  O457  1  0.66053794  0.10798512  0.53835664  1
  O2-  O458  1  0.64837042  0.08590058  0.85216911  1
  O2-  O459  1  0.65302774  0.32369744  0.18530326  1
  O2-  O460  1  0.64918215  0.32388301  0.52565126  1
  O2-  O461  1  0.66528445  0.33849058  0.85320932  1
  O2-  O462  1  0.66231873  0.58670878  0.19630483  1
  O2-  O463  1  0.67030818  0.58366703  0.52870738  1
  O2-  O464  1  0.68227778  0.59813017  0.85401137  1
  O2-  O465  1  0.70080278  0.88667401  0.16046327  1
  O2-  O466  1  0.67566223  0.81695676  0.52998261  1
  O2-  O467  1  0.66875053  0.83545255  0.86032828  1
  O2-  O468  1  0.90692069  0.07364250  0.17273550  1
  O2-  O469  1  0.92267385  0.07420342  0.52074373  1
  O2-  O470  1  0.92208345  0.09090445  0.85084109  1
  O2-  O471  1  0.91272325  0.31394301  0.17896149  1
  O2-  O472  1  0.92066216  0.32483862  0.51962129  1
  O2-  O473  1  0.92358769  0.32654124  0.84880359  1
  O2-  O474  1  0.90086463  0.58975893  0.19189042  1
  O2-  O475  1  0.92392190  0.57957661  0.53443646  1
  O2-  O476  1  0.96093652  0.65300745  0.87757625  1
  O2-  O477  1  0.92559279  0.83573353  0.21011479  1
  O2-  O478  1  0.91424891  0.82102721  0.53243296  1
  O2-  O479  1  0.92046025  0.83375918  0.85738657  1
  O2-  O480  1  0.15986786  0.08070591  0.30360384  1
  O2-  O481  1  0.15074972  0.06757143  0.64452823  1
  O2-  O482  1  0.15503923  0.08179596  0.97706682  1
  O2-  O483  1  0.16138879  0.33172180  0.31125992  1
  O2-  O484  1  0.18607826  0.30094183  0.63518110  1
  O2-  O485  1  0.17437984  0.34822047  0.96058268  1
  O2-  O486  1  0.15853007  0.58704462  0.31004201  1
  O2-  O487  1  0.17650387  0.58218353  0.64647470  1
  O2-  O488  1  0.16322133  0.58100858  0.98052008  1
  O2-  O489  1  0.12969245  0.83453398  0.32500254  1
  O2-  O490  1  0.10836857  0.81218335  0.63753493  1
  O2-  O491  1  0.16604217  0.82900730  0.98437641  1
  O2-  O492  1  0.40478824  0.08269716  0.30339490  1
  O2-  O493  1  0.40283196  0.08043639  0.64025277  1
  O2-  O494  1  0.40777461  0.07859727  0.98452275  1
  O2-  O495  1  0.41550127  0.33239042  0.31402454  1
  O2-  O496  1  0.41880902  0.33313719  0.65077458  1
  O2-  O497  1  0.39690057  0.32080765  0.98988611  1
  O2-  O498  1  0.44017397  0.63049008  0.30241099  1
  O2-  O499  1  0.40959754  0.57366882  0.64294738  1
  O2-  O500  1  0.41820379  0.57960032  0.98293281  1
  O2-  O501  1  0.39139603  0.83805795  0.31159709  1
  O2-  O502  1  0.44366978  0.81553143  0.65555327  1
  O2-  O503  1  0.41268031  0.82942701  0.98052294  1
  O2-  O504  1  0.68669948  0.08092634  0.30910253  1
  O2-  O505  1  0.66347945  0.08735727  0.66520255  1
  O2-  O506  1  0.65863501  0.08183769  0.97679596  1
  O2-  O507  1  0.65511563  0.31945414  0.31081417  1
  O2-  O508  1  0.65928260  0.32397906  0.65058323  1
  O2-  O509  1  0.66131749  0.33654922  0.97328728  1
  O2-  O510  1  0.67407206  0.57955980  0.31932399  1
  O2-  O511  1  0.66262869  0.57817320  0.65146902  1
  O2-  O512  1  0.66611906  0.57343670  0.97532862  1
  O2-  O513  1  0.69855459  0.80597640  0.26591421  1
  O2-  O514  1  0.68177454  0.85157600  0.64959486  1
  O2-  O515  1  0.67073650  0.83683026  1.04075523  1
  O2-  O516  1  0.91994343  0.07584658  0.30010483  1
  O2-  O517  1  0.91097317  0.07967668  0.64573051  1
  O2-  O518  1  0.91382016  0.09051293  0.97679371  1
  O2-  O519  1  0.92134401  0.32773213  0.30562322  1
  O2-  O520  1  0.91776216  0.32380176  0.64348439  1
  O2-  O521  1  0.91620334  0.33161773  0.96558029  1
  O2-  O522  1  0.92399893  0.59637278  0.31828576  1
  O2-  O523  1  0.92499073  0.56325068  0.65196397  1
  O2-  O524  1  0.94157201  0.59284797  0.92812264  1
  O2-  O525  1  0.94148683  0.83637747  0.33784898  1
  O2-  O526  1  0.90652195  0.84101807  0.65665823  1
  O2-  O527  1  0.91098788  0.81746773  0.97351960  1
  O2-  O528  1  0.07808336  0.15477703  0.02637287  1
  O2-  O529  1  0.07601243  0.16314308  0.35019518  1
  O2-  O530  1  0.06935121  0.15144651  0.69292114  1
  O2-  O531  1  0.07713967  0.41161014  0.01334142  1
  O2-  O532  1  0.08610535  0.42211684  0.35200312  1
  O2-  O533  1  0.08059092  0.40984964  0.68350276  1
  O2-  O534  1  0.07043143  0.65667387  0.00800917  1
  O2-  O535  1  0.08293496  0.67563534  0.36327590  1
  O2-  O536  1  0.09273784  0.65776205  0.69130607  1
  O2-  O537  1  0.07602793  0.90003319  -0.01443162  1
  O2-  O538  1  0.03083860  0.88658534  0.35727364  1
  O2-  O539  1  0.05931147  0.91068974  0.70106736  1
  O2-  O540  1  0.31913702  0.15526031  0.02784356  1
  O2-  O541  1  0.32366568  0.16375024  0.34970670  1
  O2-  O542  1  0.31752961  0.16465562  0.68356129  1
  O2-  O543  1  0.32536567  0.41395987  0.02639702  1
  O2-  O544  1  0.33194756  0.41855434  0.35242350  1
  O2-  O545  1  0.33214170  0.40807774  0.69005268  1
  O2-  O546  1  0.33063433  0.66222053  0.01716872  1
  O2-  O547  1  0.32430428  0.66966243  0.34649787  1
  O2-  O548  1  0.33408275  0.65344218  0.69700143  1
  O2-  O549  1  0.32737104  0.91358992  0.02179848  1
  O2-  O550  1  0.31159072  0.92660179  0.35041340  1
  O2-  O551  1  0.30569197  0.81078830  0.59532083  1
  O2-  O552  1  0.57653242  0.16619560  0.01263237  1
  O2-  O553  1  0.56463529  0.15265210  0.36078616  1
  O2-  O554  1  0.56691102  0.15633798  0.69475599  1
  O2-  O555  1  0.56992818  0.40654123  0.01964908  1
  O2-  O556  1  0.58242591  0.41326721  0.35574425  1
  O2-  O557  1  0.58286244  0.41097135  0.68905768  1
  O2-  O558  1  0.58674908  0.65982517  0.02035483  1
  O2-  O559  1  0.58253772  0.64521908  0.37521652  1
  O2-  O560  1  0.57697121  0.65141542  0.68965544  1
  O2-  O561  1  0.57629685  0.91750285  0.02671010  1
  O2-  O562  1  0.53331498  0.98289807  0.36325323  1
  O2-  O563  1  0.59991012  0.92213349  0.69801125  1
  O2-  O564  1  0.82635806  0.16728046  0.00776878  1
  O2-  O565  1  0.85767042  0.16569791  0.34392335  1
  O2-  O566  1  0.83523612  0.16685346  0.69208450  1
  O2-  O567  1  0.81902295  0.41124719  0.00754631  1
  O2-  O568  1  0.80060078  0.43619703  0.36652159  1
  O2-  O569  1  0.82697297  0.39325389  0.68294834  1
  O2-  O570  1  0.80881760  0.68718796  0.03170601  1
  O2-  O571  1  0.84230655  0.67234420  0.36628723  1
  O2-  O572  1  0.82846096  0.66699793  0.67767877  1
  O2-  O573  1  0.85198634  0.94004018  0.02972036  1
  O2-  O574  1  0.79189150  0.92342117  0.35556700  1
  O2-  O575  1  0.82802788  0.92119117  0.68721419  1
