# generated using pymatgen
data_H2O
_symmetry_space_group_name_H-M   'P 1'
_cell_length_a   17.99019203
_cell_length_b   17.99444714
_cell_length_c   21.99846266
_cell_angle_alpha   89.99089663
_cell_angle_beta   90.01620883
_cell_angle_gamma   119.99853698
_symmetry_Int_Tables_number   1
_chemical_formula_structural   H2O
_chemical_formula_sum   'H384 O192'
_cell_volume   6167.42185506
_cell_formula_units_Z   192
loop_
 _symmetry_equiv_pos_site_id
 _symmetry_equiv_pos_as_xyz
  1  'x, y, z'
loop_
 _atom_type_symbol
 _atom_type_oxidation_number
  H+  1.0
  O2-  -2.0
loop_
 _atom_site_type_symbol
 _atom_site_label
 _atom_site_symmetry_multiplicity
 _atom_site_fract_x
 _atom_site_fract_y
 _atom_site_fract_z
 _atom_site_occupancy
  H+  H0  1  0.13966073  0.86610908  -0.01277871  1
  H+  H1  1  0.35281031  0.62890911  0.00754750  1
  H+  H2  1  0.11068568  0.88403255  0.48615710  1
  H+  H3  1  0.24221792  0.62858908  0.84180174  1
  H+  H4  1  0.72485577  0.60217662  0.33186253  1
  H+  H5  1  0.63575007  0.85565507  0.50224779  1
  H+  H6  1  0.15884999  0.81791509  0.22854572  1
  H+  H7  1  0.35566436  0.38132119  0.33579999  1
  H+  H8  1  0.54718651  0.39535681  0.81074154  1
  H+  H9  1  0.11052803  0.00467437  0.50605108  1
  H+  H10  1  0.21748164  0.36656659  -0.00685746  1
  H+  H11  1  0.17039641  0.57799360  0.60030877  1
  H+  H12  1  0.37092033  0.24479518  0.15004285  1
  H+  H13  1  0.01427054  0.13860014  0.83682815  1
  H+  H14  1  0.66464771  0.69122236  0.67389062  1
  H+  H15  1  0.86703180  0.27038450  0.82664675  1
  H+  H16  1  0.37583589  0.26197961  1.01177874  1
  H+  H17  1  0.89767913  0.53299410  -0.00154792  1
  H+  H18  1  0.25525050  0.61068793  0.15729951  1
  H+  H19  1  0.62076102  0.84236464  -0.00886728  1
  H+  H20  1  0.21912242  0.36141266  0.33089765  1
  H+  H21  1  0.36259111  -0.02960582  0.67050997  1
  H+  H22  1  0.49422556  0.45132796  0.65033246  1
  H+  H23  1  0.60257503  0.45182939  0.32490300  1
  H+  H24  1  0.86608552  0.13592992  0.15428379  1
  H+  H25  1  0.11658539  -0.00390962  0.33785243  1
  H+  H26  1  0.87028555  0.64484344  0.99970752  1
  H+  H27  1  0.02407147  0.39916257  -0.01618673  1
  H+  H28  1  0.72870750  0.35805210  0.99378717  1
  H+  H29  1  0.85936816  0.46890874  0.66790400  1
  H+  H30  1  0.43259376  0.32017973  0.86409142  1
  H+  H31  1  0.35560399  0.39271527  0.68587158  1
  H+  H32  1  0.76720593  0.13309124  0.67276573  1
  H+  H33  1  0.86933098  0.22670890  0.15364026  1
  H+  H34  1  0.08259759  0.19262383  0.09762025  1
  H+  H35  1  0.86998771  0.72411008  0.49330339  1
  H+  H36  1  0.72100169  0.85998680  0.17199031  1
  H+  H37  1  0.10753369  0.12559211  0.34033019  1
  H+  H38  1  0.35199179  0.71794515  0.00995789  1
  H+  H39  1  0.35848566  0.62807063  0.68178574  1
  H+  H40  1  0.77472756  0.63569671  0.16212753  1
  H+  H41  1  0.36400087  0.27095973  0.31586281  1
  H+  H42  1  0.88876258  0.76499307  0.66056332  1
  H+  H43  1  0.63555271  0.52018545  0.84652135  1
  H+  H44  1  0.31679980  0.65317772  0.10098527  1
  H+  H45  1  0.61413622  0.58912353  0.67507493  1
  H+  H46  1  0.60158240  0.11303329  0.67202248  1
  H+  H47  1  0.38940473  0.77141766  0.84385311  1
  H+  H48  1  0.25905803  0.86652822  0.15308302  1
  H+  H49  1  0.88730698  0.53303847  0.84101251  1
  H+  H50  1  -0.02582130  0.85781980  0.66456554  1
  H+  H51  1  0.00551654  0.84209493  0.14266893  1
  H+  H52  1  0.25573487  0.13296833  0.33517313  1
  H+  H53  1  0.32574131  0.16914775  0.10254728  1
  H+  H54  1  0.48630717  0.53512431  0.64571770  1
  H+  H55  1  0.27267469  0.88546007  0.00011042  1
  H+  H56  1  0.02018313  0.62277934  0.15946255  1
  H+  H57  1  0.10459519  0.21763832  0.33867401  1
  H+  H58  1  1.03137823  0.89840771  0.33532118  1
  H+  H59  1  0.73038823  0.86667507  0.32877492  1
  H+  H60  1  0.16456479  0.82516306  0.55611849  1
  H+  H61  1  0.08256167  0.91887636  0.42737501  1
  H+  H62  1  0.62654419  0.40867881  0.15428055  1
  H+  H63  1  -0.02468260  0.85912094  0.50331140  1
  H+  H64  1  0.47475636  0.11171539  0.99574424  1
  H+  H65  1  0.85959069  0.15012929  0.82647085  1
  H+  H66  1  0.75162090  0.64704109  0.70018896  1
  H+  H67  1  0.73116375  0.62208039  0.50908445  1
  H+  H68  1  0.97214550  0.36050987  0.50628454  1
  H+  H69  1  0.13668134  0.86651293  0.32316408  1
  H+  H70  1  0.47676089  0.86262940  0.32377055  1
  H+  H71  1  0.77290334  0.90416021  0.83274068  1
  H+  H72  1  0.34351765  0.37522803  0.84400452  1
  H+  H73  1  0.63346477  0.86608039  0.17450032  1
  H+  H74  1  0.37525553  0.85498884  0.99708568  1
  H+  H75  1  0.75707691  0.37337208  0.81938512  1
  H+  H76  1  0.64472434  0.23872203  0.64196612  1
  H+  H77  1  0.39144156  0.23987141  0.48486892  1
  H+  H78  1  0.38754243  1.02089673  -0.00581896  1
  H+  H79  1  0.47167537  0.10961915  0.83827392  1
  H+  H80  1  0.85468051  0.22583854  0.67092817  1
  H+  H81  1  0.96834952  0.60155662  0.32686163  1
  H+  H82  1  0.69927130  0.69672026  0.90274000  1
  H+  H83  1  0.63479001  0.25743431  0.83606794  1
  H+  H84  1  0.35309695  0.87889182  0.15468148  1
  H+  H85  1  0.26655777  0.13296601  0.67145762  1
  H+  H86  1  0.61769661  0.41186377  0.51348263  1
  H+  H87  1  0.60479856  0.37332966  -0.01518552  1
  H+  H88  1  0.35228047  0.38559665  0.01438122  1
  H+  H89  1  0.72171217  0.11042850  0.32719739  1
  H+  H90  1  0.41477727  0.08081988  0.89891067  1
  H+  H91  1  0.86807677  -0.01253417  0.34325249  1
  H+  H92  1  0.87896025  0.76442699  0.16847007  1
  H+  H93  1  0.37728091  0.46673705  0.48480847  1
  H+  H94  1  0.09516252  0.12909805  0.48948815  1
  H+  H95  1  0.60046837  0.71833097  0.01178259  1
  H+  H96  1  0.12815663  0.27136688  0.84316071  1
  H+  H97  1  0.61631290  0.14821336  0.15817425  1
  H+  H98  1  0.56569408  0.67474344  0.10271386  1
  H+  H99  1  0.36090756  0.96599179  0.33730163  1
  H+  H100  1  0.62822602  0.20122010  0.50255588  1
  H+  H101  1  0.59016879  0.35568868  0.63845624  1
  H+  H102  1  0.22387875  0.61390775  0.99176391  1
  H+  H103  1  0.08911865  0.83194223  0.14378082  1
  H+  H104  1  0.16750502  0.99209647  0.13449582  1
  H+  H105  1  0.60497167  0.64723849  0.77286995  1
  H+  H106  1  0.13151280  0.74869642  0.17337378  1
  H+  H107  1  0.63671958  0.02757730  0.17030704  1
  H+  H108  1  0.68448168  0.05880329  1.00874352  1
  H+  H109  1  0.88335484  0.02188764  0.51170228  1
  H+  H110  1  0.33652981  0.91190943  0.73006743  1
  H+  H111  1  0.95912544  0.14829059  1.00320585  1
  H+  H112  1  0.38071595  0.51503571  0.84702594  1
  H+  H113  1  0.86292485  0.13467741  0.49496211  1
  H+  H114  1  0.98435608  0.62272742  0.99362420  1
  H+  H115  1  0.63039226  0.39792971  0.63294221  1
  H+  H116  1  0.59606261  0.36104036  0.32286267  1
  H+  H117  1  0.37720387  0.27628279  0.66079537  1
  H+  H118  1  0.61134943  0.97502250  0.33384598  1
  H+  H119  1  0.80044377  0.66900012  -0.02147678  1
  H+  H120  1  0.88370019  0.01952261  0.16924395  1
  H+  H121  1  0.07264734  0.40981541  0.40183500  1
  H+  H122  1  0.36129143  0.63050100  0.83194018  1
  H+  H123  1  0.85846185  0.13391474  0.34000453  1
  H+  H124  1  0.36165154  0.97064583  0.48669529  1
  H+  H125  1  0.11507221  1.00200909  0.84486738  1
  H+  H126  1  0.88827369  0.80398391  0.84490283  1
  H+  H127  1  0.52429402  0.87567578  0.67708621  1
  H+  H128  1  0.26742384  0.62362744  0.67787924  1
  H+  H129  1  0.30725734  0.15206051  0.47175914  1
  H+  H130  1  0.61478409  -0.02674558  0.83267493  1
  H+  H131  1  0.76224473  0.87132540  0.01023516  1
  H+  H132  1  0.61390072  0.72227070  0.34099445  1
  H+  H133  1  0.50168547  0.64537935  0.16711220  1
  H+  H134  1  0.63819741  0.09174780  0.50789445  1
  H+  H135  1  1.03198485  0.63941504  0.82602128  1
  H+  H136  1  0.83166208  0.80036490  0.29621991  1
  H+  H137  1  0.11016322  0.38504029  0.49435000  1
  H+  H138  1  0.22989636  0.61640705  0.50381111  1
  H+  H139  1  0.11390367  0.64221245  0.00141068  1
  H+  H140  1  0.91902009  0.82613992  0.56474273  1
  H+  H141  1  0.11219271  0.51035873  0.32463584  1
  H+  H142  1  0.87503485  0.75563587  0.32880588  1
  H+  H143  1  0.54571323  0.41644111  0.13788886  1
  H+  H144  1  0.10222472  0.23539667  1.00007061  1
  H+  H145  1  0.63583635  0.00776243  0.66409204  1
  H+  H146  1  0.89049739  0.51686264  0.49754315  1
  H+  H147  1  0.85188313  0.87825022  0.16150171  1
  H+  H148  1  0.62117687  0.14467204  1.01046285  1
  H+  H149  1  0.88724778  0.36065200  -0.01279776  1
  H+  H150  1  0.58380875  0.94431902  -0.00310635  1
  H+  H151  1  0.40178177  0.38515953  0.14675837  1
  H+  H152  1  0.13896704  0.86849560  0.83878486  1
  H+  H153  1  0.10056765  0.38095105  0.82028470  1
  H+  H154  1  0.51712076  0.88282952  0.16173749  1
  H+  H155  1  0.57825811  0.66179266  0.39963685  1
  H+  H156  1  0.01922506  0.13705567  0.67978958  1
  H+  H157  1  0.86272498  0.88357543  0.49924229  1
  H+  H158  1  0.97298491  0.36129160  0.65786030  1
  H+  H159  1  0.85325810  0.37911069  0.33543321  1
  H+  H160  1  0.37568487  0.76457949  0.17238531  1
  H+  H161  1  0.22805358  0.84932703  0.64944954  1
  H+  H162  1  0.88644338  0.11583199  0.66373700  1
  H+  H163  1  0.62421582  0.54009660  0.82060396  1
  H+  H164  1  0.88286231  0.35931423  0.50150408  1
  H+  H165  1  0.61360057  0.88641484  0.33438620  1
  H+  H166  1  0.40600793  0.82299133  0.93832035  1
  H+  H167  1  0.10149678  0.37800938  0.66441317  1
  H+  H168  1  0.49808870  0.85968732  0.00838351  1
  H+  H169  1  0.28305313  0.40426472  0.16498986  1
  H+  H170  1  0.87285088  0.65641552  0.83988741  1
  H+  H171  1  0.90326992  0.61462304  0.64539050  1
  H+  H172  1  0.14241624  0.30193464  0.16963107  1
  H+  H173  1  0.88434298  0.60744607  0.17235042  1
  H+  H174  1  0.13154561  0.52577693  0.98354980  1
  H+  H175  1  0.85122632  0.95906865  0.67093202  1
  H+  H176  1  0.10012065  0.62759216  0.33359641  1
  H+  H177  1  0.22064303  0.85748359  0.32216677  1
  H+  H178  1  0.77496097  0.38775230  0.48416930  1
  H+  H179  1  0.33057816  0.41589408  0.78147897  1
  H+  H180  1  0.48093956  0.10035523  0.50648803  1
  H+  H181  1  0.98126522  0.88480946  0.84496004  1
  H+  H182  1  0.38714751  0.53290097  0.17467974  1
  H+  H183  1  0.57296472  0.33502593  0.84398724  1
  H+  H184  1  0.85145196  0.87393955  0.66000565  1
  H+  H185  1  0.64139207  0.26685082  0.99498583  1
  H+  H186  1  0.61717583  0.30374361  0.48938911  1
  H+  H187  1  0.67746889  0.27696923  0.28278491  1
  H+  H188  1  0.14521925  0.07213068  0.17695752  1
  H+  H189  1  0.61309608  0.49747386  0.51691614  1
  H+  H190  1  0.03167549  0.89555938  -0.00223807  1
  H+  H191  1  0.97188065  0.37545149  0.18027190  1
  H+  H192  1  0.86417765  0.38232652  0.67122312  1
  H+  H193  1  0.38175196  0.64501156  0.34197513  1
  H+  H194  1  0.59473291  0.62729216  1.02761696  1
  H+  H195  1  0.20375635  0.08892113  0.83947518  1
  H+  H196  1  0.37112348  0.73774634  0.49367857  1
  H+  H197  1  0.11065593  0.39921278  0.99618715  1
  H+  H198  1  0.26342223  0.12844445  0.00655365  1
  H+  H199  1  0.97048643  0.11236891  0.50500055  1
  H+  H200  1  0.62609770  0.82931583  0.65955158  1
  H+  H201  1  0.16267287  0.39918485  0.17793756  1
  H+  H202  1  0.11437587  0.73149933  0.00304400  1
  H+  H203  1  0.11745240  0.62403620  0.67318750  1
  H+  H204  1  0.33794028  0.17098604  0.37994338  1
  H+  H205  1  0.01451972  0.38444555  0.81552618  1
  H+  H206  1  0.34687000  0.12266068  0.82767980  1
  H+  H207  1  0.14174772  0.76022428  0.64954614  1
  H+  H208  1  0.72708785  0.11415076  0.16776765  1
  H+  H209  1  0.15393744  0.07842551  0.93795890  1
  H+  H210  1  0.76462622  0.14242346  0.99076181  1
  H+  H211  1  0.37630120  0.61643781  0.17609997  1
  H+  H212  1  0.21585228  0.36239696  0.84254883  1
  H+  H213  1  0.32819533  0.90119192  0.39194129  1
  H+  H214  1  0.40147047  0.11452464  0.49745349  1
  H+  H215  1  0.46756498  0.35014552  -0.00322923  1
  H+  H216  1  0.12950843  0.11542885  0.66948951  1
  H+  H217  1  0.87851346  0.26602194  0.32721555  1
  H+  H218  1  0.02987927  0.82886021  0.80907094  1
  H+  H219  1  0.38464841  0.76528583  0.66167795  1
  H+  H220  1  0.32424135  0.15874740  0.73035317  1
  H+  H221  1  0.11273314  0.72301499  0.48765713  1
  H+  H222  1  0.62825994  0.76611350  0.83095608  1
  H+  H223  1  0.09661918  0.12587853  0.83540823  1
  H+  H224  1  0.87431792  1.04008249  0.84898808  1
  H+  H225  1  0.19247190  0.09335102  0.52170777  1
  H+  H226  1  0.33143182  0.20179385  0.83422431  1
  H+  H227  1  0.47058613  0.60304553  0.83910087  1
  H+  H228  1  0.14007170  0.61389639  0.50365167  1
  H+  H229  1  0.13342677  0.51193009  0.65693817  1
  H+  H230  1  0.46581761  0.60974322  0.99868369  1
  H+  H231  1  0.86340610  0.17382603  0.06046641  1
  H+  H232  1  0.72187861  0.36806460  0.17620654  1
  H+  H233  1  0.38033300  0.74205522  0.34069467  1
  H+  H234  1  0.90037156  0.79131157  0.99203187  1
  H+  H235  1  0.35673159  0.47274724  0.34087757  1
  H+  H236  1  0.61858312  0.96692526  0.49036122  1
  H+  H237  1  0.10344506  0.71925756  0.33611836  1
  H+  H238  1  0.69234733  0.58611036  1.04116532  1
  H+  H239  1  0.91578067  0.82602448  0.22593403  1
  H+  H240  1  0.13136107  0.02539734  0.99895459  1
  H+  H241  1  0.82761163  0.67487283  0.78444422  1
  H+  H242  1  0.42480813  0.34912131  1.08939116  1
  H+  H243  1  0.52442744  0.88536163  0.83464680  1
  H+  H244  1  0.60645188  0.72385787  0.49295963  1
  H+  H245  1  0.45610765  0.35499848  0.31530312  1
  H+  H246  1  0.60719614  0.12642961  0.82546153  1
  H+  H247  1  0.38032615  0.09868060  0.32328017  1
  H+  H248  1  0.14689479  0.63033415  0.83930921  1
  H+  H249  1  0.63052384  0.85438253  0.84160661  1
  H+  H250  1  0.12079034  0.17459404  0.15844989  1
  H+  H251  1  0.47905073  0.61580412  0.32908537  1
  H+  H252  1  0.35260659  0.53583633  0.54012110  1
  H+  H253  1  0.33468899  1.00390953  0.17829469  1
  H+  H254  1  0.63629037  0.60207644  0.32960850  1
  H+  H255  1  0.12496099  0.27051525  0.66020924  1
  H+  H256  1  0.22189804  0.85810278  0.49608319  1
  H+  H257  1  0.36295190  0.88329060  0.49050482  1
  H+  H258  1  0.87273035  0.90131348  0.34907715  1
  H+  H259  1  0.85865220  0.47341901  0.16655205  1
  H+  H260  1  0.59649952  0.45574526  -0.00076118  1
  H+  H261  1  1.02888058  0.62393403  0.67014262  1
  H+  H262  1  0.46968056  0.10870192  0.34545050  1
  H+  H263  1  0.51882048  0.63429132  0.49753885  1
  H+  H264  1  0.60806578  0.13548068  0.34809212  1
  H+  H265  1  0.17793103  -0.01945041  0.16499021  1
  H+  H266  1  0.53465914  0.70187627  0.65991670  1
  H+  H267  1  0.97147779  0.11190847  0.16844494  1
  H+  H268  1  0.72436908  0.85482620  0.50880287  1
  H+  H269  1  0.86199888  0.62634543  0.34016618  1
  H+  H270  1  0.89812346  0.27796648  0.97833100  1
  H+  H271  1  0.86668214  0.91838343  0.83412881  1
  H+  H272  1  0.48206432  0.86398364  0.50510961  1
  H+  H273  1  0.10275520  0.37998184  0.34231421  1
  H+  H274  1  0.53232258  0.66436751  0.75604331  1
  H+  H275  1  0.09508124  0.97569461  0.68485127  1
  H+  H276  1  0.11688293  0.55227155  0.26167557  1
  H+  H277  1  0.76283266  0.66609848  0.87787669  1
  H+  H278  1  0.51637139  0.12209429  0.66974213  1
  H+  H279  1  0.75839590  0.37042508  0.33589351  1
  H+  H280  1  0.73179764  0.32930436  0.64062292  1
  H+  H281  1  0.36780280  -0.02683128  0.82724846  1
  H+  H282  1  0.72547998  0.11553026  0.83749282  1
  H+  H283  1  0.27834783  0.88637202  0.82616890  1
  H+  H284  1  0.96771291  0.35523704  0.32823622  1
  H+  H285  1  0.48251153  0.37140230  0.51417909  1
  H+  H286  1  0.85518404  0.38166439  0.16848262  1
  H+  H287  1  0.13128684  0.26986028  0.49854220  1
  H+  H288  1  0.83198532  0.41203356  0.42421348  1
  H+  H289  1  0.89840072  0.33494532  0.88643606  1
  H+  H290  1  0.65233851  0.53854747  0.17004302  1
  H+  H291  1  0.66440633  0.08554592  0.26702379  1
  H+  H292  1  0.38796807  0.85989513  0.84304641  1
  H+  H293  1  0.91438977  0.08326706  0.26755381  1
  H+  H294  1  0.37215314  0.48805175  0.69459227  1
  H+  H295  1  0.35295141  0.67920859  0.40676643  1
  H+  H296  1  0.38308950  0.85779297  0.32529761  1
  H+  H297  1  0.79666140  0.59119340  0.70409441  1
  H+  H298  1  0.65850482  0.34112063  0.23301608  1
  H+  H299  1  0.92307362  0.57264674  0.58923719  1
  H+  H300  1  0.94290995  0.45873706  0.04861682  1
  H+  H301  1  0.64481355  0.62600645  0.50990459  1
  H+  H302  1  0.38704560  0.35403266  0.50021171  1
  H+  H303  1  0.11241742  0.47536602  0.49512205  1
  H+  H304  1  0.23562489  0.15466442  0.17646688  1
  H+  H305  1  0.65513553  0.44325629  0.74381235  1
  H+  H306  1  0.40947283  0.82479616  0.23064882  1
  H+  H307  1  0.41301229  0.58179354  0.93548720  1
  H+  H308  1  0.16458533  0.33926180  0.27048184  1
  H+  H309  1  0.38075327  0.10840890  0.65717024  1
  H+  H310  1  0.33868398  0.09259393  0.18489832  1
  H+  H311  1  0.66769342  0.31599571  0.55412902  1
  H+  H312  1  0.73060910  0.10023873  0.50839316  1
  H+  H313  1  0.67166905  0.59598176  0.97311326  1
  H+  H314  1  0.61207660  0.23472635  0.15778461  1
  H+  H315  1  0.85398771  0.42215081  0.08036092  1
  H+  H316  1  0.35303144  0.12634092  0.00712240  1
  H+  H317  1  0.85975480  0.22266996  0.49437044  1
  H+  H318  1  0.82782286  0.16182658  0.40008232  1
  H+  H319  1  0.92158881  0.85464679  0.93439573  1
  H+  H320  1  0.82132759  0.40865688  0.75690151  1
  H+  H321  1  0.58996883  0.15685947  0.43727960  1
  H+  H322  1  0.33263091  0.43416515  0.10152582  1
  H+  H323  1  0.83405571  0.91818595  0.44186301  1
  H+  H324  1  0.15577975  0.08956869  0.27900252  1
  H+  H325  1  0.42268473  0.83407252  0.56569222  1
  H+  H326  1  0.14174657  0.07253989  0.60993871  1
  H+  H327  1  0.39973201  0.32885841  0.59912446  1
  H+  H328  1  0.35487175  0.47595726  0.00598648  1
  H+  H329  1  0.60257064  0.74078140  0.16588672  1
  H+  H330  1  0.82650897  0.17166587  0.76286657  1
  H+  H331  1  0.57753811  0.15368955  0.76420403  1
  H+  H332  1  0.07927224  0.89408427  0.05708449  1
  H+  H333  1  0.09174387  0.14157635  0.00278580  1
  H+  H334  1  0.67128164  0.31834813  0.89606763  1
  H+  H335  1  0.85507925  0.37006843  0.82162314  1
  H+  H336  1  0.38712788  0.85529802  0.66050412  1
  H+  H337  1  0.65215510  0.81345648  0.93198858  1
  H+  H338  1  0.41566577  0.59052961  0.27100350  1
  H+  H339  1  0.07469252  0.41092062  0.72492170  1
  H+  H340  1  0.58315528  0.90579479  0.73646427  1
  H+  H341  1  0.81964046  0.90635003  0.10232755  1
  H+  H342  1  0.17003807  0.83484069  0.92862040  1
  H+  H343  1  0.17581604  0.59942547  0.90712891  1
  H+  H344  1  0.14577811  0.78238805  0.83506594  1
  H+  H345  1  0.22226907  0.35689160  0.50146397  1
  H+  H346  1  0.37075849  0.64893543  0.49956204  1
  H+  H347  1  0.57422986  0.90967735  0.10208356  1
  H+  H348  1  0.58365886  0.91112670  0.42881105  1
  H+  H349  1  0.33193337  0.41003742  0.42629823  1
  H+  H350  1  0.07930308  0.65755214  0.10104942  1
  H+  H351  1  0.58763457  0.17390748  0.06891241  1
  H+  H352  1  0.63954665  0.79687231  0.59588794  1
  H+  H353  1  0.08261005  0.66078998  0.42948488  1
  H+  H354  1  0.32666619  0.90963964  0.06228473  1
  H+  H355  1  0.06689294  0.91367577  0.74337788  1
  H+  H356  1  0.07183261  0.16128610  0.42755695  1
  H+  H357  1  0.33109377  0.65995618  0.77151296  1
  H+  H358  1  0.98123486  0.60629058  0.49959360  1
  H+  H359  1  0.91113065  0.57593051  0.23302697  1
  H+  H360  1  0.66423641  0.06456683  0.60319456  1
  H+  H361  1  0.08832913  0.66186766  0.76465492  1
  H+  H362  1  0.87765917  0.51145765  0.32534850  1
  H+  H363  1  0.92295741  0.58773650  0.90206321  1
  H+  H364  1  0.90998384  0.32622928  0.23495961  1
  H+  H365  1  0.68103672  0.58981335  0.23312523  1
  H+  H366  1  0.91044396  0.33161258  0.59926964  1
  H+  H367  1  0.37223861  0.30532791  0.92045722  1
  H+  H368  1  0.07767351  0.16746648  0.73989515  1
  H+  H369  1  0.41112993  0.07816117  0.59778170  1
  H+  H370  1  0.61542974  0.22900468  0.35091944  1
  H+  H371  1  0.42111173  0.59813258  0.58702314  1
  H+  H372  1  0.15124428  0.32396452  0.59792155  1
  H+  H373  1  0.97654652  0.11465642  0.32669136  1
  H+  H374  1  0.83411444  0.66500281  0.10062420  1
  H+  H375  1  0.89994072  0.10690275  0.90542675  1
  H+  H376  1  0.61857548  0.44830583  0.73198763  1
  H+  H377  1  0.83718020  0.65965395  0.40124700  1
  H+  H378  1  0.15937407  0.33800577  0.93190542  1
  H+  H379  1  0.91821565  0.08771053  0.60541712  1
  H+  H380  1  0.67543400  0.08929408  0.90036328  1
  H+  H381  1  0.86862977  0.63365680  0.49341375  1
  H+  H382  1  0.67098407  0.83374756  0.26879000  1
  H+  H383  1  0.85756288  0.88687231  0.01146166  1
  O2-  O384  1  0.08402560  0.19803315  0.14273311  1
  O2-  O385  1  0.07143099  0.16471554  0.47382466  1
  O2-  O386  1  0.07407250  0.16356402  0.82131181  1
  O2-  O387  1  0.14937961  0.49471228  0.16055124  1
  O2-  O388  1  0.07834230  0.41467986  0.48096118  1
  O2-  O389  1  0.07333948  0.41086489  0.80000874  1
  O2-  O390  1  0.08073844  0.65174853  0.14563549  1
  O2-  O391  1  0.08469773  0.66096669  0.47521787  1
  O2-  O392  1  0.09186446  0.66729893  0.81048762  1
  O2-  O393  1  0.04689986  0.83608612  0.11667981  1
  O2-  O394  1  0.07890154  0.91399555  0.47329483  1
  O2-  O395  1  0.06713740  0.88961609  0.81836049  1
  O2-  O396  1  0.32922454  0.18211849  0.14679179  1
  O2-  O397  1  0.36869447  0.18102200  0.46477044  1
  O2-  O398  1  0.31063504  0.14637221  0.81258174  1
  O2-  O399  1  0.34203079  0.43789249  0.14670060  1
  O2-  O400  1  0.33434518  0.40865011  0.47301326  1
  O2-  O401  1  0.32294736  0.41349977  0.82766234  1
  O2-  O402  1  0.31531160  0.65243961  0.14673541  1
  O2-  O403  1  0.34312163  0.67701666  0.47693730  1
  O2-  O404  1  0.33285339  0.66323161  0.81753203  1
  O2-  O405  1  0.31874608  0.90187542  0.13592875  1
  O2-  O406  1  0.33094916  0.90981086  0.47239168  1
  O2-  O407  1  0.33967839  0.91255253  0.81232414  1
  O2-  O408  1  0.58729553  0.17669871  0.13919276  1
  O2-  O409  1  0.58917388  0.14603022  0.48376049  1
  O2-  O410  1  0.57811518  0.15752794  0.80985672  1
  O2-  O411  1  0.60917392  0.44721835  0.13440971  1
  O2-  O412  1  0.57957627  0.43490074  0.50504449  1
  O2-  O413  1  0.52295325  0.33980733  0.83073902  1
  O2-  O414  1  0.56428664  0.67866062  0.14961475  1
  O2-  O415  1  0.57493554  0.66296294  0.47711461  1
  O2-  O416  1  0.56631331  0.66430151  0.79241069  1
  O2-  O417  1  0.57810935  0.91464054  0.14703955  1
  O2-  O418  1  0.58343130  0.90683668  0.47408811  1
  O2-  O419  1  0.58430963  0.91246014  0.81857049  1
  O2-  O420  1  0.84066723  0.16863037  0.13454066  1
  O2-  O421  1  0.83009364  0.16228117  0.47877760  1
  O2-  O422  1  0.82635249  0.17714282  0.80888871  1
  O2-  O423  1  0.82702212  0.41241262  0.15022648  1
  O2-  O424  1  0.83551867  0.41437259  0.47040449  1
  O2-  O425  1  0.81969821  0.40666893  0.80397379  1
  O2-  O426  1  0.83709142  0.66419253  0.14522209  1
  O2-  O427  1  0.83890839  0.66374186  0.47741505  1
  O2-  O428  1  0.84034784  0.68573861  0.82888123  1
  O2-  O429  1  0.82059470  0.90865733  0.14879702  1
  O2-  O430  1  0.83156923  0.91447402  0.48701716  1
  O2-  O431  1  0.83313278  0.94693137  0.82403102  1
  O2-  O432  1  0.17436404  0.13134854  0.19112430  1
  O2-  O433  1  0.13050930  0.06282855  0.52621171  1
  O2-  O434  1  0.14492149  0.06293973  0.85745683  1
  O2-  O435  1  0.18098559  0.35801408  0.19038760  1
  O2-  O436  1  0.16173826  0.32986443  0.51493093  1
  O2-  O437  1  0.15435177  0.33259333  0.85625446  1
  O2-  O438  1  0.07817263  0.48566946  0.18106723  1
  O2-  O439  1  0.17045041  0.58386050  0.51968528  1
  O2-  O440  1  0.18046975  0.60405055  0.85867500  1
  O2-  O441  1  0.16050210  0.81197957  0.18360940  1
  O2-  O442  1  0.16106321  0.82814542  0.51018985  1
  O2-  O443  1  0.17594956  0.84145341  0.85160965  1
  O2-  O444  1  0.32836920  0.04139266  0.20772855  1
  O2-  O445  1  0.41930064  0.07593218  0.51739882  1
  O2-  O446  1  0.41141758  0.07855783  0.85355788  1
  O2-  O447  1  0.43279230  0.35475031  0.13401882  1
  O2-  O448  1  0.41831941  0.32749382  0.51919248  1
  O2-  O449  1  0.37192514  0.30235949  0.87565018  1
  O2-  O450  1  0.41389613  0.59363242  0.19178472  1
  O2-  O451  1  0.40657378  0.59039281  0.54033289  1
  O2-  O452  1  0.41338827  0.57804286  0.85875898  1
  O2-  O453  1  0.41088820  0.82534786  0.18533291  1
  O2-  O454  1  0.42129649  0.83551297  0.52018577  1
  O2-  O455  1  0.41804225  0.83055155  0.86117954  1
  O2-  O456  1  0.66864541  0.08765275  0.18547143  1
  O2-  O457  1  0.67018593  0.06351984  0.52363220  1
  O2-  O458  1  0.66663411  0.08192095  0.85589616  1
  O2-  O459  1  0.66004603  0.34099234  0.18775617  1
  O2-  O460  1  0.66921811  0.34088850  0.51203907  1
  O2-  O461  1  0.66646985  0.31895706  0.85077027  1
  O2-  O462  1  0.68549006  0.59797007  0.18827548  1
  O2-  O463  1  0.67543242  0.60006703  0.53011632  1
  O2-  O464  1  0.72476875  0.66159128  0.91306376  1
  O2-  O465  1  0.65993556  0.83143884  0.18871237  1
  O2-  O466  1  0.66181923  0.82234149  0.51925219  1
  O2-  O467  1  0.65790451  0.82025844  0.85492001  1
  O2-  O468  1  0.91173789  0.08018699  0.18413620  1
  O2-  O469  1  0.91194449  0.08360510  0.52399878  1
  O2-  O470  1  0.90605659  0.10387203  0.86104573  1
  O2-  O471  1  0.91207015  0.33091516  0.18907765  1
  O2-  O472  1  0.91096263  0.32874057  0.52019173  1
  O2-  O473  1  0.89405680  0.33413711  0.84051347  1
  O2-  O474  1  0.91109899  0.57362703  0.18741179  1
  O2-  O475  1  0.92096937  0.57585064  0.51611777  1
  O2-  O476  1  0.92324454  0.59176989  0.85630536  1
  O2-  O477  1  0.90913609  0.82677920  0.18145045  1
  O2-  O478  1  0.91523063  0.82776947  0.51913078  1
  O2-  O479  1  0.91951583  0.86379514  0.85971862  1
  O2-  O480  1  0.15233464  0.08325953  0.32338543  1
  O2-  O481  1  0.15747012  0.08288188  0.65339870  1
  O2-  O482  1  0.15716700  0.08573732  0.98306849  1
  O2-  O483  1  0.15877462  0.33192065  0.31538411  1
  O2-  O484  1  0.14751428  0.32862072  0.64242264  1
  O2-  O485  1  0.15731959  0.33827209  0.97775976  1
  O2-  O486  1  0.13512740  0.56699495  0.30401594  1
  O2-  O487  1  0.16861902  0.57489115  0.64559588  1
  O2-  O488  1  0.16628687  0.58993472  0.97127986  1
  O2-  O489  1  0.15932363  0.82879863  0.30916516  1
  O2-  O490  1  0.17152346  0.81677083  0.62932593  1
  O2-  O491  1  0.16873872  0.83313162  0.97431698  1
  O2-  O492  1  0.40834006  0.06727791  0.33846195  1
  O2-  O493  1  0.41131785  0.07777707  0.64315730  1
  O2-  O494  1  0.41524001  0.08168326  0.97942389  1
  O2-  O495  1  0.39419398  0.33397016  0.30663803  1
  O2-  O496  1  0.39785667  0.33461229  0.64403381  1
  O2-  O497  1  0.40393392  0.32589710  1.00576671  1
  O2-  O498  1  0.41691435  0.59063766  0.31644657  1
  O2-  O499  1  0.42629929  0.58545949  0.65460734  1
  O2-  O500  1  0.40690597  0.57998075  0.98101500  1
  O2-  O501  1  0.41486711  0.82651788  0.31132549  1
  O2-  O502  1  0.41754120  0.82487449  0.64551923  1
  O2-  O503  1  0.40295991  0.82013433  0.98397515  1
  O2-  O504  1  0.66095761  0.08028064  0.31216983  1
  O2-  O505  1  0.66226347  0.06827106  0.64844449  1
  O2-  O506  1  0.70086050  0.10926462  0.98364734  1
  O2-  O507  1  0.66838704  0.31137221  0.31293518  1
  O2-  O508  1  0.68812777  0.28370895  0.61465913  1
  O2-  O509  1  0.67300104  0.32523506  0.97412861  1
  O2-  O510  1  0.66665243  0.57335849  0.31314146  1
  O2-  O511  1  0.66185171  0.64221565  0.69572976  1
  O2-  O512  1  0.64460885  0.57150228  1.01328255  1
  O2-  O513  1  0.66997162  0.83288149  0.31412267  1
  O2-  O514  1  0.62195464  0.77861935  0.63879162  1
  O2-  O515  1  0.65109335  0.81181750  0.97778350  1
  O2-  O516  1  0.91392133  0.08450598  0.31272170  1
  O2-  O517  1  0.91957702  0.08807311  0.65065410  1
  O2-  O518  1  0.89691878  0.12310247  0.99064566  1
  O2-  O519  1  0.90831723  0.32568140  0.31036309  1
  O2-  O520  1  0.91025041  0.33157453  0.64483579  1
  O2-  O521  1  0.91099768  0.33363777  0.95975116  1
  O2-  O522  1  0.90820422  0.57269255  0.31062600  1
  O2-  O523  1  0.92199903  0.57365428  0.63570360  1
  O2-  O524  1  0.92235392  0.58994486  0.97870509  1
  O2-  O525  1  0.88834205  0.81278944  0.30982151  1
  O2-  O526  1  0.91794908  0.82136567  0.64112757  1
  O2-  O527  1  0.92554040  0.85222982  0.98009606  1
  O2-  O528  1  0.06531370  0.17566180  0.01663332  1
  O2-  O529  1  0.07216282  0.15768877  0.35375762  1
  O2-  O530  1  0.08031815  0.16766387  0.69468896  1
  O2-  O531  1  0.08056183  0.43243581  0.00362178  1
  O2-  O532  1  0.06925737  0.40756004  0.35646052  1
  O2-  O533  1  0.07292327  0.41186593  0.67906888  1
  O2-  O534  1  0.08213097  0.67022172  0.01743560  1
  O2-  O535  1  0.07295132  0.65962193  0.35261542  1
  O2-  O536  1  0.08677291  0.65419791  0.68879312  1
  O2-  O537  1  0.09117736  0.91920601  0.01426795  1
  O2-  O538  1  0.08971096  0.92856261  0.35137966  1
  O2-  O539  1  0.06056534  0.91530122  0.69811765  1
  O2-  O540  1  0.32337197  0.15657410  0.02319018  1
  O2-  O541  1  0.32127322  0.16624645  0.33702498  1
  O2-  O542  1  0.32783202  0.16200976  0.68517686  1
  O2-  O543  1  0.32187654  0.41750808  0.02469129  1
  O2-  O544  1  0.32561557  0.41286867  0.35548227  1
  O2-  O545  1  0.34025259  0.42863066  0.71107527  1
  O2-  O546  1  0.32077117  0.65677980  0.02423939  1
  O2-  O547  1  0.35510220  0.68014716  0.35978805  1
  O2-  O548  1  0.32655693  0.65676146  0.69582655  1
  O2-  O549  1  0.33294595  0.91335496  0.01632261  1
  O2-  O550  1  0.33007247  0.90173045  0.34659971  1
  O2-  O551  1  0.33600007  0.90976470  0.68478991  1
  O2-  O552  1  0.58685262  0.17129965  0.02192288  1
  O2-  O553  1  0.58313175  0.16680722  0.36912541  1
  O2-  O554  1  0.57625121  0.14862984  0.68615264  1
  O2-  O555  1  0.56663156  0.39780987  -0.01877468  1
  O2-  O556  1  0.56308476  0.39002793  0.33157362  1
  O2-  O557  1  0.52785985  0.51368255  0.64364597  1
  O2-  O558  1  0.56593131  0.66220163  0.03446897  1
  O2-  O559  1  0.57984441  0.66127668  0.35401692  1
  O2-  O560  1  0.48671939  0.66248187  0.68920113  1
  O2-  O561  1  0.56180699  0.89129752  0.02004797  1
  O2-  O562  1  0.58016560  0.91381013  0.34846854  1
  O2-  O563  1  0.58506943  0.90495128  0.69130800  1
  O2-  O564  1  0.86892210  0.18205592  0.01416301  1
  O2-  O565  1  0.82574840  0.16200681  0.35454482  1
  O2-  O566  1  0.82705371  0.16705740  0.68918269  1
  O2-  O567  1  0.88223718  0.43426357  0.03815174  1
  O2-  O568  1  0.82259036  0.40867213  0.35053073  1
  O2-  O569  1  0.83004781  0.41021043  0.68593563  1
  O2-  O570  1  0.83962417  0.67604610  0.01216936  1
  O2-  O571  1  0.83401658  0.65909129  0.35555853  1
  O2-  O572  1  0.80942191  0.65038249  0.70781050  1
  O2-  O573  1  0.81871352  0.90511567  0.02997011  1
  O2-  O574  1  0.83794585  0.92731624  0.36087827  1
  O2-  O575  1  0.81298160  0.89664423  0.66923488  1
