# generated using pymatgen
data_H2O
_symmetry_space_group_name_H-M   'P 1'
_cell_length_a   17.99075258
_cell_length_b   17.99147719
_cell_length_c   22.00948484
_cell_angle_alpha   89.99561428
_cell_angle_beta   90.00112540
_cell_angle_gamma   119.98527647
_symmetry_Int_Tables_number   1
_chemical_formula_structural   H2O
_chemical_formula_sum   'H384 O192'
_cell_volume   6170.51021840
_cell_formula_units_Z   192
loop_
 _symmetry_equiv_pos_site_id
 _symmetry_equiv_pos_as_xyz
  1  'x, y, z'
loop_
 _atom_type_symbol
 _atom_type_oxidation_number
  H+  1.0
  O2-  -2.0
loop_
 _atom_site_type_symbol
 _atom_site_label
 _atom_site_symmetry_multiplicity
 _atom_site_fract_x
 _atom_site_fract_y
 _atom_site_fract_z
 _atom_site_occupancy
  H+  H0  1  0.36190748  0.13759199  0.32870211  1
  H+  H1  1  0.60829616  0.22730767  0.44053794  1
  H+  H2  1  0.61730712  0.89022177  1.01072924  1
  H+  H3  1  0.91424126  0.14717684  0.95551128  1
  H+  H4  1  0.87865100  0.39646901  0.00909142  1
  H+  H5  1  0.76385950  0.90024422  0.66285468  1
  H+  H6  1  0.89453009  0.62182707  0.17409129  1
  H+  H7  1  0.59495736  0.93458106  0.83699752  1
  H+  H8  1  0.14469850  0.77758313  0.32682128  1
  H+  H9  1  0.04889632  0.88089978  0.01627168  1
  H+  H10  1  0.86604264  0.38811649  0.34305361  1
  H+  H11  1  0.45657972  0.08609434  0.67082689  1
  H+  H12  1  0.35750236  0.38675680  0.48809551  1
  H+  H13  1  0.36094316  0.88418062  0.33763452  1
  H+  H14  1  0.12884496  0.08872249  0.66434530  1
  H+  H15  1  0.15557924  0.98107565  0.82271623  1
  H+  H16  1  0.93385125  0.77433685  0.84942848  1
  H+  H17  1  0.39375753  0.02231855  0.33157756  1
  H+  H18  1  0.78659973  0.63433626  0.01195767  1
  H+  H19  1  0.52304689  0.13293736  0.83433922  1
  H+  H20  1  0.87896956  0.89741350  0.32385603  1
  H+  H21  1  0.36039522  0.38808222  0.33871720  1
  H+  H22  1  0.38295490  0.26834772  0.16932001  1
  H+  H23  1  0.89793424  0.53445935  0.17161033  1
  H+  H24  1  0.77348848  0.13718282  0.34238412  1
  H+  H25  1  0.50203107  0.37528015  0.72539544  1
  H+  H26  1  0.16147973  0.33506983  0.59499132  1
  H+  H27  1  0.69125416  0.83318394  0.49104990  1
  H+  H28  1  0.34770407  0.20264471  0.66524595  1
  H+  H29  1  0.47137128  0.62495547  0.18099322  1
  H+  H30  1  0.12842688  0.85725669  0.66181366  1
  H+  H31  1  0.84839537  0.89748620  0.68536430  1
  H+  H32  1  0.64390294  0.29010675  0.32607346  1
  H+  H33  1  0.25458950  0.87102486  0.16324207  1
  H+  H34  1  0.21332258  0.45894754  0.54923621  1
  H+  H35  1  0.88183380  0.11842157  0.17208608  1
  H+  H36  1  0.88145596  0.51333377  0.69970682  1
  H+  H37  1  0.11465712  0.13429882  0.33956823  1
  H+  H38  1  0.41375945  0.56555002  0.85325290  1
  H+  H39  1  0.54770200  0.63875436  0.82285023  1
  H+  H40  1  0.88684793  0.27955219  0.17715976  1
  H+  H41  1  0.34627002  0.95293310  0.67221488  1
  H+  H42  1  0.39019759  0.01590534  0.84149691  1
  H+  H43  1  0.11239604  0.21248943  0.66458738  1
  H+  H44  1  0.64539964  0.13145762  0.32899026  1
  H+  H45  1  0.43881729  0.66115585  0.84512660  1
  H+  H46  1  0.84197319  0.12548251  0.01740546  1
  H+  H47  1  0.46439679  0.60823874  0.50193542  1
  H+  H48  1  0.83792936  0.66715509  0.62932078  1
  H+  H49  1  0.81229639  0.65960849  0.45698403  1
  H+  H50  1  0.57414728  0.41330320  0.39317595  1
  H+  H51  1  0.47881826  0.34898531  0.69787686  1
  H+  H52  1  0.62943931  0.10836510  0.66467902  1
  H+  H53  1  0.75973941  0.37813692  0.48611668  1
  H+  H54  1  0.27232982  0.38619266  0.15945213  1
  H+  H55  1  0.36289795  0.37173401  0.15481929  1
  H+  H56  1  0.70413339  0.59082619  0.51868490  1
  H+  H57  1  0.85808202  0.22980107  0.83497678  1
  H+  H58  1  0.89786872  0.53165989  0.51214008  1
  H+  H59  1  0.11361671  0.97019073  0.16671122  1
  H+  H60  1  0.46814484  0.85816513  0.65407232  1
  H+  H61  1  0.12013351  0.88988685  0.33511132  1
  H+  H62  1  0.83219006  0.99406129  0.81977987  1
  H+  H63  1  0.38582948  0.61561181  0.33161110  1
  H+  H64  1  0.89235543  0.12199583  0.84174026  1
  H+  H65  1  0.11613220  0.91926946  0.76154897  1
  H+  H66  1  0.40418749  1.03001131  0.50850773  1
  H+  H67  1  0.12051212  0.34216007  0.65607935  1
  H+  H68  1  0.62558004  0.65970436  0.65718676  1
  H+  H69  1  0.22183079  0.10933981  0.31914958  1
  H+  H70  1  0.15894232  0.52514917  0.69378302  1
  H+  H71  1  0.67283683  0.83920492  0.22876319  1
  H+  H72  1  0.14012822  0.61761415  0.49490153  1
  H+  H73  1  0.38436042  0.89823395  0.82763159  1
  H+  H74  1  0.48903298  0.10139587  0.00349898  1
  H+  H75  1  0.37010998  0.09008897  0.66401427  1
  H+  H76  1  1.03259091  0.64669273  0.48066733  1
  H+  H77  1  0.29732032  0.63253784  0.02605851  1
  H+  H78  1  0.76474864  0.65663882  0.35907691  1
  H+  H79  1  0.54992388  0.63742355  0.01631198  1
  H+  H80  1  0.12062070  0.73486585  0.48635576  1
  H+  H81  1  0.92113639  0.83186003  0.26461001  1
  H+  H82  1  0.44646127  0.82158518  0.84035537  1
  H+  H83  1  0.71880018  0.83870317  0.85669983  1
  H+  H84  1  0.74020061  0.36994884  -0.00418147  1
  H+  H85  1  0.02161315  0.12981671  0.67130857  1
  H+  H86  1  0.81875050  0.16937832  0.10747158  1
  H+  H87  1  0.99781724  0.63335896  0.99945007  1
  H+  H88  1  0.88266441  0.27047728  0.32964412  1
  H+  H89  1  1.00523527  0.36654147  0.66982602  1
  H+  H90  1  0.17438597  0.58607549  0.11746553  1
  H+  H91  1  0.15727540  0.38525754  0.17704622  1
  H+  H92  1  0.03679932  0.88234261  0.69817067  1
  H+  H93  1  0.15118320  0.48245303  0.78058626  1
  H+  H94  1  1.02267915  0.38059086  1.01004307  1
  H+  H95  1  0.83021534  0.41851606  0.43368658  1
  H+  H96  1  0.62938643  0.82664035  0.85794164  1
  H+  H97  1  0.63325232  0.47849720  0.83289141  1
  H+  H98  1  0.37272440  0.72393177  0.67399243  1
  H+  H99  1  0.36044070  0.99846771  0.17352356  1
  H+  H100  1  0.61382421  0.46111109  0.00539347  1
  H+  H101  1  0.84777436  0.62199335  0.50691381  1
  H+  H102  1  0.87214517  0.88983168  0.86787782  1
  H+  H103  1  0.88118885  0.27125586  0.99735436  1
  H+  H104  1  0.86613411  -0.01789796  0.15966663  1
  H+  H105  1  0.63379506  0.11007048  0.84713876  1
  H+  H106  1  0.04886927  0.22234225  0.04730225  1
  H+  H107  1  0.87601176  0.88190289  0.83497145  1
  H+  H108  1  0.27573439  0.89086193  0.34004015  1
  H+  H109  1  0.90394388  0.62339142  1.00396319  1
  H+  H110  1  0.16222798  0.83450765  0.56254413  1
  H+  H111  1  0.26514977  0.35538618  0.82218329  1
  H+  H112  1  0.54838368  0.56826307  0.78250341  1
  H+  H113  1  0.13236652  0.99871166  0.66933401  1
  H+  H114  1  0.39266217  0.77162846  1.00302022  1
  H+  H115  1  0.02099459  0.38075946  0.47159940  1
  H+  H116  1  0.37275603  0.84592714  0.65840010  1
  H+  H117  1  0.64166312  0.87161461  0.17169870  1
  H+  H118  1  0.37382513  0.63279125  0.67432721  1
  H+  H119  1  0.91963041  0.58559251  0.91168038  1
  H+  H120  1  0.36330835  0.22159437  0.00299109  1
  H+  H121  1  0.36509771  0.50552138  0.65176426  1
  H+  H122  1  1.02214438  0.37147808  0.33365115  1
  H+  H123  1  0.22961336  0.36049305  0.32666858  1
  H+  H124  1  0.92684215  0.85291237  0.64364730  1
  H+  H125  1  0.06682304  0.56842889  0.85028837  1
  H+  H126  1  0.61440793  0.22210013  0.83071880  1
  H+  H127  1  0.69014188  0.30203891  0.62458450  1
  H+  H128  1  0.71960941  0.10896614  0.66788339  1
  H+  H129  1  0.91276635  0.86581055  0.99508219  1
  H+  H130  1  0.60889903  0.14062369  0.16372734  1
  H+  H131  1  0.37136283  0.14099690  0.50193336  1
  H+  H132  1  0.87504602  0.39754009  0.16353695  1
  H+  H133  1  0.63379852  0.52584670  0.32925665  1
  H+  H134  1  0.15334841  0.62845007  0.30725694  1
  H+  H135  1  0.46766520  0.86892598  0.32975412  1
  H+  H136  1  0.66802140  0.47348672  0.67780502  1
  H+  H137  1  0.11170403  0.36899615  0.33207267  1
  H+  H138  1  0.14284155  0.40076838  0.50188389  1
  H+  H139  1  0.39270870  0.35259308  0.98778941  1
  H+  H140  1  0.12642398  0.65069328  1.00990498  1
  H+  H141  1  0.67463170  0.93067250  0.80965471  1
  H+  H142  1  0.35607249  0.12857585  0.15685776  1
  H+  H143  1  0.62606018  0.02838167  0.17635985  1
  H+  H144  1  0.36163134  0.88301705  0.49527184  1
  H+  H145  1  0.76389891  0.14334245  0.16840247  1
  H+  H146  1  0.60076106  0.88946073  0.66133430  1
  H+  H147  1  0.27328611  0.39924628  0.49536110  1
  H+  H148  1  0.38802820  0.10471187  0.84210570  1
  H+  H149  1  0.75387466  0.40794398  0.69450480  1
  H+  H150  1  -0.01638918  0.86443710  0.32324610  1
  H+  H151  1  0.74750540  0.61640828  0.84615391  1
  H+  H152  1  0.11449944  0.48387885  0.16388874  1
  H+  H153  1  0.88238404  0.03162501  0.65628807  1
  H+  H154  1  0.96496061  0.36191120  0.84752308  1
  H+  H155  1  0.84848359  0.92964804  0.06258785  1
  H+  H156  1  0.81014850  0.93789542  0.46949500  1
  H+  H157  1  0.97772740  0.86298613  0.17265310  1
  H+  H158  1  0.00184933  0.13945134  0.50943050  1
  H+  H159  1  0.48262574  0.35233797  0.98939730  1
  H+  H160  1  0.62662273  0.01840220  0.99636946  1
  H+  H161  1  0.63385725  0.72867416  0.01279935  1
  H+  H162  1  0.20753383  0.83981459  0.65661283  1
  H+  H163  1  0.35720212  0.22418774  0.32390325  1
  H+  H164  1  0.51730890  0.88297506  0.50115278  1
  H+  H165  1  0.52542485  0.88680063  0.00953274  1
  H+  H166  1  0.61717384  0.50163916  0.50774199  1
  H+  H167  1  0.34265659  0.69026171  0.82539571  1
  H+  H168  1  0.59412531  0.10922534  0.00436388  1
  H+  H169  1  0.64559579  0.77524615  0.32093132  1
  H+  H170  1  0.59585019  0.61774378  0.49723721  1
  H+  H171  1  0.23186364  0.67468716  0.85202788  1
  H+  H172  1  0.61157991  0.39060413  0.17388721  1
  H+  H173  1  0.39347031  0.33965093  0.83464427  1
  H+  H174  1  0.11967798  0.13644020  0.49950868  1
  H+  H175  1  1.02672281  0.86052849  0.84927800  1
  H+  H176  1  0.14332312  0.89317105  1.02221487  1
  H+  H177  1  0.89336660  0.12116416  0.32492894  1
  H+  H178  1  0.22080820  0.13132600  -0.01558361  1
  H+  H179  1  0.75486449  0.62454338  0.66862076  1
  H+  H180  1  0.59803509  0.97570092  0.66331133  1
  H+  H181  1  0.36825935  0.00382489  0.99122525  1
  H+  H182  1  0.54329724  0.38881759  0.82635753  1
  H+  H183  1  0.66237103  0.29209836  0.16628892  1
  H+  H184  1  0.52071264  0.89440864  0.16126573  1
  H+  H185  1  0.12796313  0.10044259  0.16794783  1
  H+  H186  1  0.90532401  0.53313591  0.32667978  1
  H+  H187  1  0.61270284  0.85024098  0.49974102  1
  H+  H188  1  0.60642888  0.39077672  0.33197833  1
  H+  H189  1  0.47651585  0.36929424  0.48648097  1
  H+  H190  1  0.60828879  0.72871244  0.16586057  1
  H+  H191  1  0.57921256  0.66157653  0.39810876  1
  H+  H192  1  0.35769764  0.43450253  0.81888483  1
  H+  H193  1  0.13559754  1.01813485  0.50742511  1
  H+  H194  1  0.01742001  0.12376139  0.15551169  1
  H+  H195  1  0.45334033  0.07272327  0.16599019  1
  H+  H196  1  0.87607972  0.37352857  0.50390529  1
  H+  H197  1  0.13542625  0.52800023  0.48645497  1
  H+  H198  1  0.63232511  0.33726081  0.64676794  1
  H+  H199  1  0.27842589  0.64476616  0.32647936  1
  H+  H200  1  0.87628351  0.72612999  0.01326970  1
  H+  H201  1  0.58384408  0.19883110  0.67334918  1
  H+  H202  1  0.46891680  0.36367815  0.32169129  1
  H+  H203  1  0.64986002  0.36059081  0.84208067  1
  H+  H204  1  0.52106221  0.63735471  0.33900730  1
  H+  H205  1  0.63249560  0.61402478  0.32937171  1
  H+  H206  1  0.85621120  0.74032148  0.35271069  1
  H+  H207  1  0.13497294  0.27377579  0.83450449  1
  H+  H208  1  0.99674545  0.62710050  0.65327761  1
  H+  H209  1  0.22063179  0.10705595  0.17111189  1
  H+  H210  1  0.13425829  0.76841138  0.17550717  1
  H+  H211  1  0.72322934  0.11183237  0.85151776  1
  H+  H212  1  0.88397460  0.80027581  0.44339363  1
  H+  H213  1  0.40828477  0.61666938  1.01036690  1
  H+  H214  1  0.19095678  0.79500264  1.01189566  1
  H+  H215  1  0.75577562  0.13064626  0.01186973  1
  H+  H216  1  0.14467998  0.36996189  0.99066418  1
  H+  H217  1  0.26874918  0.64024083  0.48529583  1
  H+  H218  1  0.66254418  0.46626829  0.44830249  1
  H+  H219  1  0.65701870  0.61159847  1.00066113  1
  H+  H220  1  0.72327987  0.61351883  0.17711324  1
  H+  H221  1  0.16354237  0.86142661  0.83720107  1
  H+  H222  1  0.84955180  0.21651389  0.67930801  1
  H+  H223  1  0.03736410  0.64347581  0.33120617  1
  H+  H224  1  0.87833773  0.37131592  0.84651289  1
  H+  H225  1  0.15640518  0.07738827  0.26406846  1
  H+  H226  1  0.38629220  0.77947487  0.17317049  1
  H+  H227  1  0.09506056  0.16978905  0.43984112  1
  H+  H228  1  0.62949479  0.03813399  0.33535128  1
  H+  H229  1  0.37545029  0.52237488  0.49787540  1
  H+  H230  1  0.03136890  0.64246986  0.15909370  1
  H+  H231  1  0.88107886  0.51455011  0.85650660  1
  H+  H232  1  0.11111346  0.88402652  0.48807091  1
  H+  H233  1  0.16223263  0.06779781  0.57100241  1
  H+  H234  1  0.00531885  0.63069235  0.83222569  1
  H+  H235  1  0.52498670  0.14590358  0.34427025  1
  H+  H236  1  0.97996190  0.36638766  0.17956632  1
  H+  H237  1  0.60551662  0.47596511  0.17673554  1
  H+  H238  1  0.86666829  0.23282884  0.49316533  1
  H+  H239  1  0.20323373  0.60146722  0.95797738  1
  H+  H240  1  0.47270153  0.36016534  0.17605941  1
  H+  H241  1  0.28658517  0.88004365  0.82723005  1
  H+  H242  1  0.03079482  0.14325621  0.34013970  1
  H+  H243  1  0.37593015  0.21336123  0.82566564  1
  H+  H244  1  0.61452970  0.37343965  1.00129527  1
  H+  H245  1  0.88749271  0.91713453  0.46419688  1
  H+  H246  1  0.13437008  0.39808648  0.82044678  1
  H+  H247  1  0.34909189  0.12697390  0.00364919  1
  H+  H248  1  -0.02447429  0.86989538  0.47098340  1
  H+  H249  1  0.87258477  0.63067766  0.83595507  1
  H+  H250  1  0.08272687  0.41564595  0.10991121  1
  H+  H251  1  0.36845142  0.64696275  0.17247528  1
  H+  H252  1  0.64382508  0.42185047  0.74043822  1
  H+  H253  1  0.14375061  0.26730771  0.32421172  1
  H+  H254  1  0.12235088  0.63888780  0.15677187  1
  H+  H255  1  0.18400632  0.18875128  0.87063785  1
  H+  H256  1  0.62408598  0.35616759  0.48025289  1
  H+  H257  1  0.58621357  0.52565631  0.66138993  1
  H+  H258  1  0.86112952  0.34713368  0.65796340  1
  H+  H259  1  0.88279087  0.15348834  0.49542830  1
  H+  H260  1  0.87246177  -0.01369231  1.00258801  1
  H+  H261  1  0.59414976  0.70672764  0.49527860  1
  H+  H262  1  0.73528252  0.86279580  0.31624414  1
  H+  H263  1  0.36255791  0.33594907  0.64185436  1
  H+  H264  1  0.51562771  0.98044235  0.38900472  1
  H+  H265  1  0.38590365  0.77266943  0.32392197  1
  H+  H266  1  0.38402875  0.77239300  0.50403948  1
  H+  H267  1  0.88515947  0.48929850  0.01052722  1
  H+  H268  1  0.22746188  0.86682383  0.50533337  1
  H+  H269  1  0.73833544  0.36031821  0.84106877  1
  H+  H270  1  0.36930076  0.47111825  1.00722108  1
  H+  H271  1  0.61443172  0.96886312  0.50234822  1
  H+  H272  1  0.02675707  0.14189793  0.82232917  1
  H+  H273  1  0.13951336  0.14207516  -0.01390995  1
  H+  H274  1  0.10727876  0.47180117  1.00942727  1
  H+  H275  1  0.25734193  0.36708185  0.66476125  1
  H+  H276  1  0.23634464  0.63740367  0.86326439  1
  H+  H277  1  0.73424382  0.87267667  0.00205452  1
  H+  H278  1  0.38397253  0.52471153  0.33165554  1
  H+  H279  1  0.15007303  0.76784556  0.83694945  1
  H+  H280  1  0.28130400  0.13782695  0.50059346  1
  H+  H281  1  0.08058708  0.48711893  0.85062766  1
  H+  H282  1  0.65629036  0.61027481  0.84293609  1
  H+  H283  1  0.37746313  0.85136159  0.99976514  1
  H+  H284  1  0.54906014  0.18526631  0.16698408  1
  H+  H285  1  0.73238675  0.10027099  0.51052464  1
  H+  H286  1  0.63971285  0.78859872  0.65455465  1
  H+  H287  1  0.87141206  0.77919259  0.68832138  1
  H+  H288  1  0.83630190  0.66615838  0.10621158  1
  H+  H289  1  0.96485778  0.40471783  0.53760303  1
  H+  H290  1  0.09066377  0.90976354  0.10778283  1
  H+  H291  1  0.32643279  0.89839763  0.73229285  1
  H+  H292  1  0.78172741  0.39698991  0.33966299  1
  H+  H293  1  0.13869711  0.27974228  0.98652912  1
  H+  H294  1  0.91322630  0.33250209  0.27099239  1
  H+  H295  1  0.42114312  0.07643031  0.27044936  1
  H+  H296  1  0.82828608  0.16598327  0.77724767  1
  H+  H297  1  0.59913181  0.67676264  0.72146723  1
  H+  H298  1  0.67170164  0.07412523  0.56909978  1
  H+  H299  1  0.13262461  0.85860577  0.17736443  1
  H+  H300  1  0.07321194  0.71168202  0.62419040  1
  H+  H301  1  0.65970130  0.83884723  0.59195744  1
  H+  H302  1  0.89006523  0.86708105  0.17162567  1
  H+  H303  1  0.66880533  0.58863632  0.23839927  1
  H+  H304  1  0.89118620  0.31806839  0.59943917  1
  H+  H305  1  0.67772604  0.34592525  0.26513809  1
  H+  H306  1  0.08401284  0.40843046  0.41222196  1
  H+  H307  1  0.44244315  0.60012135  0.94842682  1
  H+  H308  1  0.33445188  0.91475102  0.43559737  1
  H+  H309  1  0.27636411  0.64691249  0.16205385  1
  H+  H310  1  0.39103679  0.27680158  0.49069697  1
  H+  H311  1  0.43886617  0.85506295  0.90481271  1
  H+  H312  1  0.79377511  0.94020543  0.75921096  1
  H+  H313  1  0.87657351  0.59793863  0.69836617  1
  H+  H314  1  0.42880020  0.32288644  0.89630673  1
  H+  H315  1  0.79592562  0.37159476  0.73808076  1
  H+  H316  1  0.17233265  0.33508278  0.89363748  1
  H+  H317  1  0.68570363  0.57952677  0.94271819  1
  H+  H318  1  0.60376065  0.63855803  0.17016059  1
  H+  H319  1  0.92307080  0.08168152  0.89376981  1
  H+  H320  1  0.95130874  0.83067716  0.94364306  1
  H+  H321  1  0.56087102  0.14697186  0.06458770  1
  H+  H322  1  0.99358701  0.14207842  0.99729055  1
  H+  H323  1  0.57157410  0.15374209  0.73943052  1
  H+  H324  1  0.09129884  0.91962432  0.42652055  1
  H+  H325  1  0.09990790  0.67457570  0.38918593  1
  H+  H326  1  0.40688844  0.33467774  0.26350945  1
  H+  H327  1  0.85516357  0.94075600  0.37803310  1
  H+  H328  1  0.92204582  0.09805895  0.59998778  1
  H+  H329  1  0.85261318  0.66752028  0.77541424  1
  H+  H330  1  0.38888530  0.69605302  0.76301156  1
  H+  H331  1  0.86248801  0.72713913  0.16428329  1
  H+  H332  1  0.87353555  0.44758452  0.78853531  1
  H+  H333  1  0.35786658  0.64045588  0.48576400  1
  H+  H334  1  0.56336553  0.93457974  0.41447612  1
  H+  H335  1  0.74696154  0.38224758  0.17198899  1
  H+  H336  1  0.66934097  0.82749239  0.94688688  1
  H+  H337  1  0.93242864  0.59028520  0.26671262  1
  H+  H338  1  0.91967827  0.09494347  0.22975117  1
  H+  H339  1  0.33121957  0.40344741  0.09100898  1
  H+  H340  1  0.91401460  0.79399961  0.56500651  1
  H+  H341  1  0.65588844  0.08185936  0.93646022  1
  H+  H342  1  0.08797269  0.16977141  0.76417119  1
  H+  H343  1  0.91247804  0.32956398  0.93680939  1
  H+  H344  1  0.33805643  0.15235105  0.76795297  1
  H+  H345  1  0.58297575  0.92544324  0.10329667  1
  H+  H346  1  0.18708153  0.34728353  0.23258099  1
  H+  H347  1  0.42408349  0.07761815  0.57050719  1
  H+  H348  1  0.05703542  0.64765111  0.77097142  1
  H+  H349  1  0.25035922  0.60082833  0.71446631  1
  H+  H350  1  0.32844889  0.67126973  0.39218995  1
  H+  H351  1  0.89812782  0.03508591  0.31510785  1
  H+  H352  1  0.32822138  0.41631658  0.39855098  1
  H+  H353  1  0.07450019  0.14815603  0.09603859  1
  H+  H354  1  0.10294139  0.68411890  0.07147182  1
  H+  H355  1  0.92952843  0.76923119  0.58378886  1
  H+  H356  1  0.39929718  0.31289037  0.58391878  1
  H+  H357  1  0.32038215  0.38978287  0.72142761  1
  H+  H358  1  0.91319190  0.05482706  0.50034713  1
  H+  H359  1  0.27749723  0.38435888  0.00104060  1
  H+  H360  1  0.40713302  0.06592164  0.93128815  1
  H+  H361  1  0.40944214  0.82568885  0.56723944  1
  H+  H362  1  0.62849179  0.29420750  0.53175273  1
  H+  H363  1  0.11599039  0.97799933  0.33399421  1
  H+  H364  1  0.26142517  0.11372170  0.67517764  1
  H+  H365  1  0.77825927  0.89281699  0.15673506  1
  H+  H366  1  0.06758592  0.39187713  0.72691567  1
  H+  H367  1  0.18411166  0.60202972  0.24737580  1
  H+  H368  1  0.41038071  0.59263296  0.23907841  1
  H+  H369  1  0.41512342  0.84103364  0.23106848  1
  H+  H370  1  0.32940421  0.16128603  0.09719324  1
  H+  H371  1  0.85778228  0.13293834  0.67915142  1
  H+  H372  1  0.10811051  0.55219051  0.93411348  1
  H+  H373  1  0.63992379  0.55246893  0.59776453  1
  H+  H374  1  0.65551078  0.08772571  0.23701555  1
  H+  H375  1  0.96106826  0.60999889  0.55746377  1
  H+  H376  1  0.83565645  0.16719616  0.40084278  1
  H+  H377  1  0.35274470  0.67614601  0.08489268  1
  H+  H378  1  0.39491507  0.56982654  0.59446608  1
  H+  H379  1  0.84963921  0.42816317  0.10171633  1
  H+  H380  1  0.68222285  0.33077079  0.93736083  1
  H+  H381  1  0.17298573  0.83725831  0.26811315  1
  H+  H382  1  0.30533144  0.89548946  0.07245027  1
  H+  H383  1  0.34901963  0.87628976  0.15988229  1
  O2-  O384  1  0.07640099  0.14291555  0.14070471  1
  O2-  O385  1  0.09429629  0.17153436  0.48486725  1
  O2-  O386  1  0.08778117  0.17657212  0.80916269  1
  O2-  O387  1  0.08416040  0.41942761  0.15496093  1
  O2-  O388  1  0.08133415  0.41585865  0.46015977  1
  O2-  O389  1  0.10677745  0.43004302  0.80277130  1
  O2-  O390  1  0.09249690  0.67438732  0.14485013  1
  O2-  O391  1  0.09359608  0.67608284  0.46762399  1
  O2-  O392  1  0.06472743  0.65305266  0.81487187  1
  O2-  O393  1  0.08322796  0.90821850  0.15385937  1
  O2-  O394  1  0.08281247  0.91587701  0.47176047  1
  O2-  O395  1  0.12268296  0.92121919  0.81046455  1
  O2-  O396  1  0.33013874  0.16276858  0.14300046  1
  O2-  O397  1  0.34103498  0.17008508  0.48538058  1
  O2-  O398  1  0.34389214  0.15238064  0.81293123  1
  O2-  O399  1  0.33294457  0.40387576  0.13759601  1
  O2-  O400  1  0.32928409  0.41995263  0.47445206  1
  O2-  O401  1  0.32372707  0.37686721  0.80270582  1
  O2-  O402  1  0.34028726  0.68002797  0.15234675  1
  O2-  O403  1  0.33052845  0.67366746  0.47084775  1
  O2-  O404  1  0.40001195  0.70987723  0.80897631  1
  O2-  O405  1  0.31472929  0.90260827  0.14377972  1
  O2-  O406  1  0.33238268  0.91459801  0.48080472  1
  O2-  O407  1  0.34614530  0.91837318  0.80979333  1
  O2-  O408  1  0.58554565  0.17387807  0.14035430  1
  O2-  O409  1  0.59110538  0.17014116  0.42064823  1
  O2-  O410  1  0.58204283  0.16107545  0.81617809  1
  O2-  O411  1  0.57185164  0.41287930  0.16908026  1
  O2-  O412  1  0.60527256  0.42648913  0.46403791  1
  O2-  O413  1  0.60495919  0.42062665  0.81312993  1
  O2-  O414  1  0.57014543  0.66642468  0.15908310  1
  O2-  O415  1  0.56748417  0.64766418  0.47824868  1
  O2-  O416  1  0.58492936  0.62787719  0.79473421  1
  O2-  O417  1  0.58243910  0.92798721  0.14866043  1
  O2-  O418  1  0.57711380  0.90936605  0.48324376  1
  O2-  O419  1  0.61216980  0.89645476  0.81808649  1
  O2-  O420  1  0.82387636  0.17302182  0.15271965  1
  O2-  O421  1  0.84297109  0.17350051  0.47926753  1
  O2-  O422  1  0.83058575  0.16785917  0.82258195  1
  O2-  O423  1  0.84683200  0.42941168  0.14739414  1
  O2-  O424  1  0.82328845  0.41335695  0.47935983  1
  O2-  O425  1  0.84294825  0.41970873  0.82569278  1
  O2-  O426  1  0.83322816  0.66548037  0.15171408  1
  O2-  O427  1  0.80495677  0.64070345  0.50009941  1
  O2-  O428  1  0.84927074  0.66827158  0.81953507  1
  O2-  O429  1  0.83983961  0.92248328  0.14319179  1
  O2-  O430  1  0.86896223  0.96245085  0.45565343  1
  O2-  O431  1  0.77953164  0.94518495  0.80211077  1
  O2-  O432  1  0.16100850  0.07386221  0.18681868  1
  O2-  O433  1  0.16525365  0.07648600  0.52591724  1
  O2-  O434  1  0.23071421  0.22796976  0.89840858  1
  O2-  O435  1  0.19473216  0.36119096  0.18806124  1
  O2-  O436  1  0.18751405  0.40177339  0.53123307  1
  O2-  O437  1  0.17148851  0.33585866  0.84817790  1
  O2-  O438  1  0.16973801  0.58974223  0.16139247  1
  O2-  O439  1  0.16830819  0.58411605  0.50695755  1
  O2-  O440  1  0.06088376  0.52009211  0.87595905  1
  O2-  O441  1  0.16527363  0.82940723  0.19174392  1
  O2-  O442  1  0.16514920  0.83574056  0.51674751  1
  O2-  O443  1  0.18909977  0.82629819  0.85175296  1
  O2-  O444  1  0.40033928  0.06007641  0.18674136  1
  O2-  O445  1  0.43296367  0.08827487  0.52612527  1
  O2-  O446  1  0.41816067  0.07457587  0.86111115  1
  O2-  O447  1  0.40779750  0.32875559  0.18396090  1
  O2-  O448  1  0.41742238  0.33965768  0.50195146  1
  O2-  O449  1  0.43634033  0.32555441  0.85085471  1
  O2-  O450  1  0.40953579  0.59919935  0.19428818  1
  O2-  O451  1  0.40290652  0.58229144  0.51445789  1
  O2-  O452  1  0.45838491  0.62261777  0.86533237  1
  O2-  O453  1  0.41418822  0.84211384  0.18552422  1
  O2-  O454  1  0.41569818  0.83197632  0.52142333  1
  O2-  O455  1  0.45254062  0.87244882  0.86182712  1
  O2-  O456  1  0.65321511  0.08950113  0.19150530  1
  O2-  O457  1  0.67298679  0.06314801  0.52485237  1
  O2-  O458  1  0.66323301  0.08194078  0.86721676  1
  O2-  O459  1  0.68590458  0.34755870  0.18719413  1
  O2-  O460  1  0.64590946  0.31285291  0.48958257  1
  O2-  O461  1  0.67655908  0.32591931  0.85430008  1
  O2-  O462  1  0.66352261  0.58485832  0.19310960  1
  O2-  O463  1  0.64093386  0.55968536  0.53034973  1
  O2-  O464  1  0.68678435  0.58258542  0.86103922  1
  O2-  O465  1  0.67400322  0.84240050  0.18277929  1
  O2-  O466  1  0.63896521  0.81365229  0.51436568  1
  O2-  O467  1  0.66282404  0.80082651  0.87585888  1
  O2-  O468  1  0.91300129  0.08822596  0.18448150  1
  O2-  O469  1  0.93818708  0.11069175  0.52209218  1
  O2-  O470  1  0.92090333  0.08707605  0.84872239  1
  O2-  O471  1  0.91853110  0.33942507  0.19329487  1
  O2-  O472  1  0.91551836  0.35253476  0.52204339  1
  O2-  O473  1  0.90567583  0.33178515  0.86185676  1
  O2-  O474  1  0.92948956  0.59494166  0.18656003  1
  O2-  O475  1  0.92846113  0.59434245  0.51780696  1
  O2-  O476  1  0.91060939  0.57857071  0.86649989  1
  O2-  O477  1  0.91671428  0.83361934  0.18738679  1
  O2-  O478  1  0.91221317  0.84933621  0.47104615  1
  O2-  O479  1  0.97351348  0.82506081  0.87327133  1
  O2-  O480  1  0.15803922  0.07765760  0.30960319  1
  O2-  O481  1  0.15994280  0.05968135  0.64961289  1
  O2-  O482  1  0.16564666  0.11404284  0.96320802  1
  O2-  O483  1  0.17129751  0.32731029  0.30753128  1
  O2-  O484  1  0.15482505  0.31741244  0.63840703  1
  O2-  O485  1  0.17507684  0.34133936  0.97320479  1
  O2-  O486  1  0.18863185  0.60410431  0.29170261  1
  O2-  O487  1  0.19000766  0.56193861  0.72830447  1
  O2-  O488  1  0.14498442  0.57371338  0.97391505  1
  O2-  O489  1  0.17486944  0.84010033  0.31361391  1
  O2-  O490  1  0.15060915  0.82202369  0.63823700  1
  O2-  O491  1  0.22339486  0.85824307  1.00111363  1
  O2-  O492  1  0.42780856  0.08248006  0.31511095  1
  O2-  O493  1  0.39919417  0.05726039  0.65102721  1
  O2-  O494  1  0.40497768  0.06428742  0.97833606  1
  O2-  O495  1  0.40710091  0.33459374  0.30885557  1
  O2-  O496  1  0.38842788  0.30150262  0.62786798  1
  O2-  O497  1  0.42066891  0.32033552  0.97365984  1
  O2-  O498  1  0.41747527  0.58584207  0.31800166  1
  O2-  O499  1  0.39308036  0.56677056  0.63955029  1
  O2-  O500  1  0.43193653  0.58251009  0.99156355  1
  O2-  O501  1  0.41222071  0.83386673  0.30842097  1
  O2-  O502  1  0.40557897  0.81887497  0.64138416  1
  O2-  O503  1  0.41683381  0.83093905  0.98653081  1
  O2-  O504  1  0.66780049  0.09399893  0.31453239  1
  O2-  O505  1  0.66330458  0.08363587  0.64652119  1
  O2-  O506  1  0.65125700  0.08043047  0.98356194  1
  O2-  O507  1  0.67520737  0.34968473  0.31039965  1
  O2-  O508  1  0.63083727  0.28968268  0.62287931  1
  O2-  O509  1  0.68025468  0.33287901  0.98230626  1
  O2-  O510  1  0.66801639  0.58759776  0.31737975  1
  O2-  O511  1  0.64463924  0.55392370  0.64550201  1
  O2-  O512  1  0.68579318  0.57794809  0.98773180  1
  O2-  O513  1  0.67434803  0.83383815  0.30342327  1
  O2-  O514  1  0.66634394  0.84791411  0.63653937  1
  O2-  O515  1  0.67176429  0.84034440  0.99209445  1
  O2-  O516  1  0.92860281  0.09839856  0.30640093  1
  O2-  O517  1  0.91710224  0.09407542  0.64532454  1
  O2-  O518  1  0.92005398  0.10125185  0.97422575  1
  O2-  O519  1  0.91355198  0.33197127  0.31648784  1
  O2-  O520  1  0.89225979  0.31783116  0.64459957  1
  O2-  O521  1  0.91788955  0.33080619  0.98266523  1
  O2-  O522  1  0.93868167  0.59273076  0.31165328  1
  O2-  O523  1  0.91394687  0.57489287  0.70999841  1
  O2-  O524  1  0.93706483  0.59632195  0.98686776  1
  O2-  O525  1  0.92202193  0.83575528  0.31011394  1
  O2-  O526  1  0.90628607  0.84227118  0.68549076  1
  O2-  O527  1  0.94013021  0.83058852  0.98879200  1
  O2-  O528  1  0.06171937  0.18662391  0.02091367  1
  O2-  O529  1  0.09038665  0.16962571  0.35647849  1
  O2-  O530  1  0.08257349  0.15522484  0.68469056  1
  O2-  O531  1  0.08308685  0.41254415  0.02555511  1
  O2-  O532  1  0.08241314  0.39978949  0.34821857  1
  O2-  O533  1  0.06600123  0.39085722  0.68179988  1
  O2-  O534  1  0.11072246  0.69278930  0.02572368  1
  O2-  O535  1  0.10027798  0.67673055  0.34384608  1
  O2-  O536  1  0.03057307  0.65037530  0.61570447  1
  O2-  O537  1  0.10517862  0.91352949  0.03715735  1
  O2-  O538  1  0.08663149  0.91718869  0.34994808  1
  O2-  O539  1  0.09933465  0.91135163  0.69809061  1
  O2-  O540  1  0.32601205  0.16219041  0.02036942  1
  O2-  O541  1  0.32277361  0.16081976  0.32805214  1
  O2-  O542  1  0.32369644  0.14688178  0.68742469  1
  O2-  O543  1  0.33634708  0.40946323  0.01941505  1
  O2-  O544  1  0.32974050  0.41863267  0.35303305  1
  O2-  O545  1  0.31935973  0.39731889  0.67680603  1
  O2-  O546  1  0.35645976  0.67194857  0.03769504  1
  O2-  O547  1  0.33706923  0.67322767  0.34717139  1
  O2-  O548  1  0.35624881  0.67007378  0.69812789  1
  O2-  O549  1  0.31046194  0.89419850  0.02572939  1
  O2-  O550  1  0.33682983  0.91919961  0.35511994  1
  O2-  O551  1  0.31842095  0.89205215  0.68718731  1
  O2-  O552  1  0.55354851  0.13251108  0.02030512  1
  O2-  O553  1  0.58807100  0.18387819  0.35525083  1
  O2-  O554  1  0.56422464  0.14338551  0.69438447  1
  O2-  O555  1  0.57782445  0.39868909  0.01234656  1
  O2-  O556  1  0.57114531  0.41546002  0.34694168  1
  O2-  O557  1  0.67025850  0.42639111  0.69938805  1
  O2-  O558  1  0.61278462  0.66688873  0.01979269  1
  O2-  O559  1  0.58252077  0.66685733  0.35309405  1
  O2-  O560  1  0.60066868  0.69020794  0.67774276  1
  O2-  O561  1  0.58593111  0.92118187  0.02388274  1
  O2-  O562  1  0.54856767  0.95392725  0.37516354  1
  O2-  O563  1  0.56407110  0.91362454  0.67331589  1
  O2-  O564  1  0.81523369  0.16017440  0.02913639  1
  O2-  O565  1  0.83476665  0.16647525  0.35536661  1
  O2-  O566  1  0.82418006  0.15829339  0.69743253  1
  O2-  O567  1  0.85173404  0.42904642  0.02574632  1
  O2-  O568  1  0.83993559  0.42253172  0.35824320  1
  O2-  O569  1  0.80050886  0.39262182  0.69610158  1
  O2-  O570  1  0.84689048  0.66573555  0.02894260  1
  O2-  O571  1  0.81740062  0.69630697  0.38229761  1
  O2-  O572  1  0.81841010  0.65837247  0.67164228  1
  O2-  O573  1  0.84728701  0.92670293  0.01723310  1
  O2-  O574  1  0.84874044  0.93053710  0.33347215  1
  O2-  O575  1  0.82106347  0.93356887  0.68405604  1
