# generated using pymatgen
data_H2O
_symmetry_space_group_name_H-M   'P 1'
_cell_length_a   17.98077259
_cell_length_b   17.97281310
_cell_length_c   22.01318975
_cell_angle_alpha   90.04975935
_cell_angle_beta   89.98470192
_cell_angle_gamma   119.95811154
_symmetry_Int_Tables_number   1
_chemical_formula_structural   H2O
_chemical_formula_sum   'H384 O192'
_cell_volume   6163.40920446
_cell_formula_units_Z   192
loop_
 _symmetry_equiv_pos_site_id
 _symmetry_equiv_pos_as_xyz
  1  'x, y, z'
loop_
 _atom_type_symbol
 _atom_type_oxidation_number
  H+  1.0
  O2-  -2.0
loop_
 _atom_site_type_symbol
 _atom_site_label
 _atom_site_symmetry_multiplicity
 _atom_site_fract_x
 _atom_site_fract_y
 _atom_site_fract_z
 _atom_site_occupancy
  H+  H0  1  0.61281546  0.98932779  0.65319352  1
  H+  H1  1  0.51705723  0.65958530  0.82592504  1
  H+  H2  1  0.47534614  0.35998942  0.50767903  1
  H+  H3  1  0.60733849  0.37702853  0.49120353  1
  H+  H4  1  0.18247026  0.07182800  0.56786010  1
  H+  H5  1  0.85382730  0.21360586  0.33017087  1
  H+  H6  1  0.22358074  0.59172525  0.51981933  1
  H+  H7  1  0.65281542  0.79499221  0.97390675  1
  H+  H8  1  0.52366844  0.15331121  0.81517046  1
  H+  H9  1  0.29107990  0.61914618  0.83713220  1
  H+  H10  1  0.86378223  0.88179271  0.49402160  1
  H+  H11  1  0.09825284  0.23344028  0.85648282  1
  H+  H12  1  0.38403993  0.82633727  0.50289099  1
  H+  H13  1  0.51705534  0.37618400  0.66868486  1
  H+  H14  1  0.35899056  0.97886904  0.33159753  1
  H+  H15  1  0.60327273  0.73242688  0.48941718  1
  H+  H16  1  0.38172286  0.35141359  0.32863462  1
  H+  H17  1  0.60213838  0.37504555  0.33868929  1
  H+  H18  1  0.93299608  0.17479079  0.15590289  1
  H+  H19  1  0.01545754  0.12847589  0.02941418  1
  H+  H20  1  0.17209661  0.61811269  0.30870329  1
  H+  H21  1  0.29236361  0.40392376  0.34432315  1
  H+  H22  1  0.56020367  0.61418925  0.05768638  1
  H+  H23  1  0.13481435  0.35410621  0.49953758  1
  H+  H24  1  0.28212640  0.40652407  0.16182171  1
  H+  H25  1  0.35883134  0.47149571  0.80565691  1
  H+  H26  1  -0.02080510  0.86608151  0.32779672  1
  H+  H27  1  0.85426619  0.22922428  0.67074596  1
  H+  H28  1  0.17795847  0.41471179  0.82434784  1
  H+  H29  1  0.85416560  0.07985267  0.30978622  1
  H+  H30  1  0.63886815  0.26670848  0.65534389  1
  H+  H31  1  0.86888278  0.48257601  0.66650402  1
  H+  H32  1  0.27121953  0.13117237  0.15465200  1
  H+  H33  1  0.14711004  0.75915391  0.49875983  1
  H+  H34  1  0.49623066  0.57514323  1.00191071  1
  H+  H35  1  -0.07398124  0.33333011  0.88991150  1
  H+  H36  1  0.22269312  0.86644792  0.31745221  1
  H+  H37  1  0.86049556  0.63137720  0.82043937  1
  H+  H38  1  0.36457232  0.38263464  0.50052052  1
  H+  H39  1  0.61713575  -0.00614304  1.00454873  1
  H+  H40  1  0.88264119  0.37948824  0.64987979  1
  H+  H41  1  0.52143569  0.86603444  0.49955299  1
  H+  H42  1  0.47535867  0.86853779  0.99405019  1
  H+  H43  1  0.14026625  0.87539911  0.98819814  1
  H+  H44  1  0.84958906  0.45395969  -0.00420520  1
  H+  H45  1  0.63596877  0.61036024  0.97999714  1
  H+  H46  1  0.13950113  0.88675329  0.83275461  1
  H+  H47  1  0.52162059  0.14286819  0.15659897  1
  H+  H48  1  0.37159927  0.12624916  0.17083628  1
  H+  H49  1  0.85559268  0.63194920  0.48774206  1
  H+  H50  1  0.52316232  0.89844786  0.83922889  1
  H+  H51  1  0.60483446  0.48324036  0.19362369  1
  H+  H52  1  0.60163491  0.89074939  0.86030793  1
  H+  H53  1  0.11986630  0.96699674  0.49539437  1
  H+  H54  1  0.35782828  0.88482589  0.82526192  1
  H+  H55  1  0.64350806  0.86107132  0.50629338  1
  H+  H56  1  0.63109523  0.50825960  0.49688053  1
  H+  H57  1  0.61483039  0.90605650  -0.00796034  1
  H+  H58  1  0.64694873  0.12348108  0.16559837  1
  H+  H59  1  0.71761270  0.10390907  0.49984782  1
  H+  H60  1  0.87419672  0.47870529  0.81789045  1
  H+  H61  1  0.77608027  0.64894614  -0.00797801  1
  H+  H62  1  0.85284950  0.38254702  0.48266131  1
  H+  H63  1  0.56094010  0.48652381  0.03444899  1
  H+  H64  1  0.47014452  0.11256581  0.32218537  1
  H+  H65  1  0.63778917  0.60148759  0.65020613  1
  H+  H66  1  0.10173939  0.47471683  0.66439223  1
  H+  H67  1  0.86929831  0.35453892  0.32128582  1
  H+  H68  1  0.82317895  0.15822089  0.42591885  1
  H+  H69  1  0.11392204  0.48643230  0.15399777  1
  H+  H70  1  0.18815097  0.38026781  0.26660938  1
  H+  H71  1  0.19104662  0.31182640  0.86063954  1
  H+  H72  1  0.96981689  0.86538836  0.17706158  1
  H+  H73  1  0.62738964  0.26986674  0.17212421  1
  H+  H74  1  0.72199719  0.35414579  0.32115461  1
  H+  H75  1  0.27964086  0.86165822  0.48132723  1
  H+  H76  1  0.88210076  0.86001828  0.84291417  1
  H+  H77  1  0.27854068  0.89851913  0.00102141  1
  H+  H78  1  0.02376499  0.39879985  0.16107537  1
  H+  H79  1  0.73975731  0.83123825  0.80026128  1
  H+  H80  1  0.98622672  0.13157896  0.65318351  1
  H+  H81  1  -0.02754003  0.87237625  0.65919264  1
  H+  H82  1  0.46303323  0.36491363  1.01061149  1
  H+  H83  1  0.83692367  0.46675369  0.15018787  1
  H+  H84  1  0.44555910  0.59623169  0.22234411  1
  H+  H85  1  0.87677908  0.59897506  0.98592151  1
  H+  H86  1  0.28205731  0.14219449  0.83206220  1
  H+  H87  1  0.37514778  0.86855034  0.31049180  1
  H+  H88  1  0.53031598  0.66663083  0.13528338  1
  H+  H89  1  0.89634428  0.77702453  0.99434590  1
  H+  H90  1  0.35782860  0.60731476  0.51448848  1
  H+  H91  1  0.88837049  0.35570827  -0.01448849  1
  H+  H92  1  -0.01787685  0.89064812  0.84928994  1
  H+  H93  1  0.24802487  0.11006866  0.66649593  1
  H+  H94  1  0.87291962  0.64547941  0.67091170  1
  H+  H95  1  0.60245960  0.23878441  0.00465178  1
  H+  H96  1  0.51918101  0.13201100  0.48874450  1
  H+  H97  1  0.11980013  0.98310623  0.67755997  1
  H+  H98  1  0.62982509  0.01258303  0.50204966  1
  H+  H99  1  0.76317314  0.12902134  0.33063224  1
  H+  H100  1  0.90072416  0.28751910  0.16662290  1
  H+  H101  1  0.25908133  0.37857996  0.01076558  1
  H+  H102  1  0.34168422  0.67708260  0.10142581  1
  H+  H103  1  0.63703638  0.71606197  0.66914906  1
  H+  H104  1  0.11028387  0.21411151  0.52212376  1
  H+  H105  1  0.55081679  0.63264809  0.68126177  1
  H+  H106  1  0.66401155  0.08635504  0.25563575  1
  H+  H107  1  0.83764193  0.94813045  0.33992077  1
  H+  H108  1  0.87682178  0.01588189  0.50246491  1
  H+  H109  1  0.12285979  0.34884453  0.99733354  1
  H+  H110  1  0.80648832  -0.07002179  0.81852038  1
  H+  H111  1  0.88497007  0.85373159  0.33061603  1
  H+  H112  1  0.52592989  0.57795747  0.30287259  1
  H+  H113  1  0.18706469  0.82558413  0.55382387  1
  H+  H114  1  0.17220395  0.15810439  0.86502016  1
  H+  H115  1  0.37821123  0.93775207  0.48220211  1
  H+  H116  1  0.10579241  0.40577160  0.33659256  1
  H+  H117  1  0.23296505  0.46753948  0.30147792  1
  H+  H118  1  0.37050031  0.21687335  0.67569304  1
  H+  H119  1  0.62235503  0.74931596  0.13887557  1
  H+  H120  1  0.12505996  0.78625584  0.31165950  1
  H+  H121  1  0.92940458  0.61302903  0.30889502  1
  H+  H122  1  0.37754390  0.90771579  0.15151264  1
  H+  H123  1  0.51207536  0.37045391  0.33915898  1
  H+  H124  1  -0.02157839  0.37500792  0.64419905  1
  H+  H125  1  0.61901620  0.77301820  0.32508294  1
  H+  H126  1  0.37468968  0.49077777  0.15574124  1
  H+  H127  1  0.37013398  0.88203922  0.67215106  1
  H+  H128  1  -0.03576348  0.10389642  0.51591193  1
  H+  H129  1  0.36614566  0.14958423  0.49241653  1
  H+  H130  1  0.60825382  0.37900287  0.66613271  1
  H+  H131  1  0.25046191  0.87167507  0.65242087  1
  H+  H132  1  0.37915168  0.11211713  0.32449926  1
  H+  H133  1  0.02126414  0.38337380  0.00326220  1
  H+  H134  1  0.44299820  0.70675539  0.38089075  1
  H+  H135  1  0.78054758  0.87379566  0.02960652  1
  H+  H136  1  0.33882344  0.91517942  0.73016131  1
  H+  H137  1  0.52974169  0.13448031  0.66540697  1
  H+  H138  1  0.12086435  0.00810614  0.83646978  1
  H+  H139  1  0.52483705  0.14409806  1.00506933  1
  H+  H140  1  -0.03458504  0.35444434  0.49858011  1
  H+  H141  1  0.39240131  0.02608744  0.83653392  1
  H+  H142  1  0.39141807  0.10846688  0.66438363  1
  H+  H143  1  0.73090812  0.85632743  0.50603806  1
  H+  H144  1  0.54845058  0.30558627  0.94431123  1
  H+  H145  1  0.14721433  0.79127525  0.97624441  1
  H+  H146  1  0.38117873  0.61010604  -0.00922352  1
  H+  H147  1  0.39257645  0.03021236  0.99110317  1
  H+  H148  1  0.26140143  0.35371065  0.68063621  1
  H+  H149  1  0.34288643  0.41889668  0.44089142  1
  H+  H150  1  0.87438189  0.26526389  0.49831938  1
  H+  H151  1  0.35822259  0.21843338  0.33393408  1
  H+  H152  1  0.83301329  0.14363602  0.16112075  1
  H+  H153  1  0.37252003  0.64223751  0.68304799  1
  H+  H154  1  -0.00867801  0.10187364  0.30483131  1
  H+  H155  1  0.72154075  0.35828744  0.17332897  1
  H+  H156  1  0.10954896  0.59037976  0.25503781  1
  H+  H157  1  0.28234723  0.89511126  0.15612593  1
  H+  H158  1  0.87048250  0.13040675  0.99926364  1
  H+  H159  1  0.88111364  0.86555308  0.65268285  1
  H+  H160  1  0.14374142  0.62299747  0.66961884  1
  H+  H161  1  0.36491481  0.51525598  -0.01714700  1
  H+  H162  1  0.10187894  0.21894613  0.01973863  1
  H+  H163  1  0.69754811  0.85692579  0.89068423  1
  H+  H164  1  0.47153577  0.60596446  0.51229556  1
  H+  H165  1  0.91388178  0.05785067  0.83136269  1
  H+  H166  1  0.87477590  0.38934522  0.81843454  1
  H+  H167  1  0.08681638  0.60767075  0.03973321  1
  H+  H168  1  0.49048969  0.88329631  0.15854506  1
  H+  H169  1  0.76165447  0.85113865  0.34201751  1
  H+  H170  1  0.11566441  0.61785394  0.50752754  1
  H+  H171  1  0.27229879  0.13754033  0.49065433  1
  H+  H172  1  0.11661304  0.27654561  0.64956156  1
  H+  H173  1  0.02547693  0.37483003  0.81588573  1
  H+  H174  1  0.37455141  0.27593760  0.84558844  1
  H+  H175  1  0.38385478  0.27397749  0.50465739  1
  H+  H176  1  0.88758831  0.27163296  0.83193381  1
  H+  H177  1  0.73624368  0.88173401  0.17953074  1
  H+  H178  1  0.95875525  0.35671746  0.32399127  1
  H+  H179  1  0.39953532  0.62899224  0.17462654  1
  H+  H180  1  0.07394397  0.15357015  0.57866439  1
  H+  H181  1  0.17172093  0.58617667  0.76722852  1
  H+  H182  1  0.23769602  0.63870800  0.16362322  1
  H+  H183  1  0.85978192  0.11120524  0.65670057  1
  H+  H184  1  0.36109272  0.22786190  1.01030602  1
  H+  H185  1  0.38870379  0.77337717  0.84689643  1
  H+  H186  1  0.16438511  0.33967464  0.59514931  1
  H+  H187  1  0.62751140  0.02509600  0.31542785  1
  H+  H188  1  -0.02005545  0.61890397  0.65322359  1
  H+  H189  1  0.77082370  0.64170848  0.81574521  1
  H+  H190  1  0.64164206  0.03298676  0.85052655  1
  H+  H191  1  0.16806869  0.76861696  0.17485854  1
  H+  H192  1  0.21359000  0.11450219  0.31887142  1
  H+  H193  1  0.84760492  -0.02522481  0.66572243  1
  H+  H194  1  1.02758456  0.88656251  1.00612507  1
  H+  H195  1  0.38558094  0.86636659  -0.00387801  1
  H+  H196  1  0.50236283  0.89155007  0.33787344  1
  H+  H197  1  0.66250451  0.32222783  0.24921444  1
  H+  H198  1  0.34396272  0.66188535  0.74667951  1
  H+  H199  1  0.37364183  0.74558826  0.15526206  1
  H+  H200  1  0.64760545  1.03552085  0.16457991  1
  H+  H201  1  0.47018356  0.36504262  0.17815672  1
  H+  H202  1  0.85317951  0.13076265  0.48614092  1
  H+  H203  1  0.63386735  0.26586747  0.50164385  1
  H+  H204  1  0.62173506  0.89665607  0.15594035  1
  H+  H205  1  0.87307119  0.88673753  1.02200398  1
  H+  H206  1  0.72434534  0.35903035  0.65565897  1
  H+  H207  1  0.61312927  0.76985510  0.87242888  1
  H+  H208  1  0.66020007  0.72253076  0.29515871  1
  H+  H209  1  0.39413432  0.02039792  0.65822733  1
  H+  H210  1  0.06367047  0.15033771  0.69817472  1
  H+  H211  1  0.84290093  0.13014367  0.81978907  1
  H+  H212  1  0.36491944  0.22615952  0.16537436  1
  H+  H213  1  0.87373768  0.91372916  0.18814303  1
  H+  H214  1  0.22694196  0.35883104  0.50384858  1
  H+  H215  1  0.14324523  0.38163458  0.17491484  1
  H+  H216  1  0.83585362  0.61350947  0.16564322  1
  H+  H217  1  0.60529480  0.12637202  0.48707119  1
  H+  H218  1  0.70743457  0.63220860  0.21813641  1
  H+  H219  1  0.37245928  0.35890384  1.00169287  1
  H+  H220  1  0.16317548  0.11656797  0.65636160  1
  H+  H221  1  0.12824156  0.51597016  1.00727438  1
  H+  H222  1  0.08887257  0.12107618  0.29542890  1
  H+  H223  1  0.62242703  0.09719456  0.65590527  1
  H+  H224  1  0.14188371  1.02379323  0.15489044  1
  H+  H225  1  0.37139078  0.77913973  0.29915128  1
  H+  H226  1  0.95700637  0.58748104  0.99829907  1
  H+  H227  1  0.64734042  0.54735757  0.82654788  1
  H+  H228  1  0.73494514  0.12651373  1.00340643  1
  H+  H229  1  0.07944216  0.47763718  0.33650759  1
  H+  H230  1  0.27361924  0.89425339  0.81902644  1
  H+  H231  1  0.73740296  0.37386493  0.83664692  1
  H+  H232  1  0.85437923  0.71981886  0.48915898  1
  H+  H233  1  0.66987988  0.35017063  0.89172066  1
  H+  H234  1  0.11973715  0.87800233  0.48937820  1
  H+  H235  1  0.09714859  0.88761826  0.69686850  1
  H+  H236  1  0.61107373  0.87989239  0.66157639  1
  H+  H237  1  0.11311600  0.74375957  0.81994351  1
  H+  H238  1  0.80001491  0.60346047  0.33395114  1
  H+  H239  1  0.40826193  0.08342185  0.23509731  1
  H+  H240  1  0.18070194  0.89356257  0.62763172  1
  H+  H241  1  0.06522566  0.64445457  0.32661889  1
  H+  H242  1  0.02877568  0.14769212  0.22816423  1
  H+  H243  1  0.35977024  0.64272453  0.34579699  1
  H+  H244  1  0.46144154  0.60426616  0.33174886  1
  H+  H245  1  0.36449450  0.03863212  0.51412349  1
  H+  H246  1  0.13669592  0.10019348  0.52038805  1
  H+  H247  1  0.85295079  0.38614672  0.15738648  1
  H+  H248  1  0.89762324  0.27167515  -0.01505633  1
  H+  H249  1  0.27352065  0.64011708  1.01491784  1
  H+  H250  1  0.10314131  0.46404837  0.49844012  1
  H+  H251  1  0.91889776  0.84147742  0.24195817  1
  H+  H252  1  0.51858348  0.87597068  0.66617416  1
  H+  H253  1  0.71964192  0.85607547  0.65582509  1
  H+  H254  1  0.60210272  0.37447990  -0.00762696  1
  H+  H255  1  0.90641823  0.33775182  0.58368067  1
  H+  H256  1  0.72033683  0.60088225  0.50008749  1
  H+  H257  1  0.07733628  0.41072947  1.06571842  1
  H+  H258  1  0.36293087  0.72853506  1.00787921  1
  H+  H259  1  0.11601027  0.89765137  0.33418776  1
  H+  H260  1  0.61021369  0.24456256  0.81249812  1
  H+  H261  1  0.84458672  0.74884629  0.17740962  1
  H+  H262  1  0.61232221  0.39990810  0.17995135  1
  H+  H263  1  0.68681643  0.61544940  0.31996536  1
  H+  H264  1  0.22825790  0.11320691  1.00599537  1
  H+  H265  1  0.49239602  0.69542597  0.63589796  1
  H+  H266  1  0.63406547  0.41632665  0.82006120  1
  H+  H267  1  0.10931153  0.87808648  0.15871137  1
  H+  H268  1  0.76292371  0.14275598  0.82813580  1
  H+  H269  1  -0.02923116  0.60262623  0.50354962  1
  H+  H270  1  0.38118814  0.36355577  0.17025708  1
  H+  H271  1  0.61445862  0.61546851  0.46479424  1
  H+  H272  1  0.39221664  0.47171846  0.34061430  1
  H+  H273  1  0.87760049  0.99646009  -0.00515184  1
  H+  H274  1  0.82140343  0.90734672  0.72160507  1
  H+  H275  1  0.38256573  0.76340116  0.66928278  1
  H+  H276  1  0.87211633  0.73542656  0.67358365  1
  H+  H277  1  0.83822716  0.46970110  0.32938676  1
  H+  H278  1  0.37175451  0.33014988  0.66617982  1
  H+  H279  1  0.06747153  0.68108888  0.05952567  1
  H+  H280  1  0.60610534  0.65958992  0.82344712  1
  H+  H281  1  0.87901029  0.51761198  0.50064019  1
  H+  H282  1  0.38566854  0.73999703  0.51448535  1
  H+  H283  1  0.14981575  0.29668366  0.18194690  1
  H+  H284  1  0.12015228  0.73711910  0.66351352  1
  H+  H285  1  0.11418849  0.65431371  0.81505559  1
  H+  H286  1  0.63756268  0.75628552  1.04238491  1
  H+  H287  1  0.60743663  0.13258815  0.33052551  1
  H+  H288  1  0.59543628  0.43745894  0.76247814  1
  H+  H289  1  0.16580970  0.57047808  0.57967267  1
  H+  H290  1  0.09946024  0.38356114  0.65420059  1
  H+  H291  1  0.88330768  0.07534589  0.59499851  1
  H+  H292  1  0.12793917  0.02611272  0.32237483  1
  H+  H293  1  0.36917361  0.13810968  0.82873782  1
  H+  H294  1  0.03169182  0.68674386  0.37631190  1
  H+  H295  1  0.33573378  0.63276596  0.45178075  1
  H+  H296  1  0.33363962  0.38565232  0.73340645  1
  H+  H297  1  0.76443132  0.38256076  0.48685259  1
  H+  H298  1  0.92247401  0.84527994  0.94000000  1
  H+  H299  1  0.57351604  0.40300754  0.43132935  1
  H+  H300  1  0.42315416  0.08540811  0.89649043  1
  H+  H301  1  0.11699168  0.97676122  0.01054005  1
  H+  H302  1  0.12182910  0.20917239  0.38692321  1
  H+  H303  1  0.68094626  0.61861555  0.88123312  1
  H+  H304  1  0.82308646  0.17141780  0.73039513  1
  H+  H305  1  0.76610211  0.69326452  0.13268151  1
  H+  H306  1  0.69952869  0.70536920  0.97131261  1
  H+  H307  1  0.08311483  0.94908278  0.77660802  1
  H+  H308  1  0.42756956  0.85546752  0.21625975  1
  H+  H309  1  0.13711921  0.10979533  1.00920319  1
  H+  H310  1  0.12924882  0.52059276  0.81774135  1
  H+  H311  1  0.41252836  0.31875485  0.60323043  1
  H+  H312  1  0.17067398  0.85358705  0.88830640  1
  H+  H313  1  0.67752420  0.09946622  0.90511368  1
  H+  H314  1  0.40778797  0.83388140  0.90387285  1
  H+  H315  1  0.38907165  0.51008835  0.51999987  1
  H+  H316  1  0.57378471  0.90331150  0.43823492  1
  H+  H317  1  0.81716840  0.41388508  0.39147390  1
  H+  H318  1  0.43695295  0.60327389  0.60893364  1
  H+  H319  1  0.13574763  0.16279032  0.76269940  1
  H+  H320  1  0.82111352  0.39633955  0.05471850  1
  H+  H321  1  0.59504541  0.92666467  0.09449206  1
  H+  H322  1  0.57243765  0.43199665  0.08598619  1
  H+  H323  1  -0.02339884  0.85457690  0.50312621  1
  H+  H324  1  0.14873636  0.58881648  0.95860348  1
  H+  H325  1  0.39611068  0.32999706  0.90663280  1
  H+  H326  1  0.14721436  0.11567260  0.16261812  1
  H+  H327  1  0.91737330  0.82951326  0.56221691  1
  H+  H328  1  0.86202665  0.02113023  0.25651750  1
  H+  H329  1  0.40911753  0.81124019  0.60413973  1
  H+  H330  1  0.66143800  0.82053747  0.59711183  1
  H+  H331  1  0.32874655  0.16102201  0.39395886  1
  H+  H332  1  0.62194840  0.49779734  0.64677944  1
  H+  H333  1  0.09140290  0.13224556  0.77513464  1
  H+  H334  1  0.58075579  0.17879245  0.09666408  1
  H+  H335  1  0.82417040  0.65384101  0.05392103  1
  H+  H336  1  0.09175171  0.63430085  0.44288555  1
  H+  H337  1  0.14769573  0.29637952  0.94744227  1
  H+  H338  1  0.39555337  0.41048976  0.81681079  1
  H+  H339  1  0.17837851  0.83737347  0.22412111  1
  H+  H340  1  0.09088382  0.18133702  0.11174405  1
  H+  H341  1  0.65331381  0.56229670  0.58146287  1
  H+  H342  1  0.58793815  0.17017478  0.72472562  1
  H+  H343  1  0.39421325  0.60362220  0.89023168  1
  H+  H344  1  0.23028863  0.61454885  0.67572851  1
  H+  H345  1  0.07257793  0.41596288  0.43401944  1
  H+  H346  1  0.33947091  0.16083542  0.73806139  1
  H+  H347  1  0.34042802  0.16567933  0.06715821  1
  H+  H348  1  0.84370932  0.41930481  0.72529770  1
  H+  H349  1  0.66342449  0.82289412  0.22550160  1
  H+  H350  1  0.41792171  0.09026879  0.57152294  1
  H+  H351  1  0.91087319  0.33791044  0.22833897  1
  H+  H352  1  0.08737200  0.91795238  0.39832918  1
  H+  H353  1  0.57865610  0.16180779  0.39209870  1
  H+  H354  1  0.66390805  0.32494802  0.56175145  1
  H+  H355  1  0.62978056  0.25828376  0.32012023  1
  H+  H356  1  0.86510164  0.03896357  0.89311180  1
  H+  H357  1  0.33577683  0.92823771  0.06217357  1
  H+  H358  1  0.86552128  0.57047847  0.25357952  1
  H+  H359  1  0.39080569  0.11830215  0.99111378  1
  H+  H360  1  0.84066113  0.66919191  0.75195068  1
  H+  H361  1  0.32677362  0.42252053  0.06512737  1
  H+  H362  1  0.91628034  0.58254806  0.89205857  1
  H+  H363  1  0.78173371  0.63878702  0.39523848  1
  H+  H364  1  0.14577584  0.22093331  0.41660195  1
  H+  H365  1  0.64836498  0.13344180  1.00231220  1
  H+  H366  1  0.40544697  0.32442578  0.26500423  1
  H+  H367  1  0.07693023  0.40088133  0.75309674  1
  H+  H368  1  0.33213993  0.90862048  0.38615434  1
  H+  H369  1  0.37990647  1.02515076  0.17100829  1
  H+  H370  1  0.91535430  0.58391919  0.59615733  1
  H+  H371  1  0.92318736  0.61477196  0.15765940  1
  H+  H372  1  0.86465009  0.17174920  0.06166309  1
  H+  H373  1  0.52771836  0.96729065  0.38250672  1
  H+  H374  1  0.17969665  0.09898666  0.91413808  1
  H+  H375  1  0.07902397  0.90622098  0.10033329  1
  H+  H376  1  0.24198820  0.45040543  0.87957681  1
  H+  H377  1  0.86450365  -0.02321246  0.14356879  1
  H+  H378  1  0.82576126  0.90377976  0.43541566  1
  H+  H379  1  0.64872909  0.06683002  0.59132613  1
  H+  H380  1  0.95927755  0.05436282  0.95298916  1
  H+  H381  1  -0.02334333  0.62244171  0.83332212  1
  H+  H382  1  0.09158935  0.62592338  0.14216193  1
  H+  H383  1  0.08493827  0.68462636  0.72558585  1
  O2-  O384  1  0.10209616  0.19193793  0.15666248  1
  O2-  O385  1  0.07808961  0.15213238  0.53387550  1
  O2-  O386  1  0.15246791  0.25240102  0.87756374  1
  O2-  O387  1  0.08331552  0.42424444  0.14415014  1
  O2-  O388  1  0.07143656  0.40649045  0.47873946  1
  O2-  O389  1  0.08467278  0.40753179  0.79763578  1
  O2-  O390  1  0.13110421  0.64830622  0.17784840  1
  O2-  O391  1  0.08812222  0.64759542  0.48536601  1
  O2-  O392  1  0.08165363  0.68347034  0.80377831  1
  O2-  O393  1  0.07889436  0.90831393  0.14573373  1
  O2-  O394  1  0.08770563  0.90751887  0.47828578  1
  O2-  O395  1  0.08879547  0.94751820  0.82132466  1
  O2-  O396  1  0.33942569  0.16434221  0.15111659  1
  O2-  O397  1  0.33166969  0.17263528  0.47362693  1
  O2-  O398  1  0.33916647  0.16810744  0.81197616  1
  O2-  O399  1  0.34040239  0.42903361  0.14357649  1
  O2-  O400  1  0.33521592  0.41475141  0.48591367  1
  O2-  O401  1  0.39518357  0.45195722  0.78670705  1
  O2-  O402  1  0.34059015  0.68246223  0.14690175  1
  O2-  O403  1  0.32613771  0.63562661  0.49564061  1
  O2-  O404  1  0.35310113  0.65842606  0.82922126  1
  O2-  O405  1  0.34223997  0.93531996  0.14072486  1
  O2-  O406  1  0.33887155  0.88322210  0.46271962  1
  O2-  O407  1  0.33456593  0.91930786  0.80565127  1
  O2-  O408  1  0.58176224  0.17699949  0.14274478  1
  O2-  O409  1  0.57745985  0.15859968  0.47068319  1
  O2-  O410  1  0.57672191  0.18877727  0.79161844  1
  O2-  O411  1  0.58072485  0.42987811  0.16913547  1
  O2-  O412  1  0.57648512  0.40717906  0.47744695  1
  O2-  O413  1  0.60743985  0.45016607  0.80610812  1
  O2-  O414  1  0.58512063  0.69905661  0.11244746  1
  O2-  O415  1  0.55323232  0.67925630  0.47125629  1
  O2-  O416  1  0.58007011  0.69687262  0.82373316  1
  O2-  O417  1  0.59349706  0.92862357  0.13971878  1
  O2-  O418  1  0.58045776  0.90391854  0.48289031  1
  O2-  O419  1  0.58607891  0.92574702  0.83478012  1
  O2-  O420  1  0.88643913  0.18540714  0.14112369  1
  O2-  O421  1  0.82253410  0.16106040  0.47138696  1
  O2-  O422  1  0.82320177  0.17022938  0.80812514  1
  O2-  O423  1  0.81256899  0.40491681  0.14133719  1
  O2-  O424  1  0.82399932  0.41467310  0.46906188  1
  O2-  O425  1  0.84458228  0.41902582  0.80156725  1
  O2-  O426  1  0.79862649  0.68691963  0.16569007  1
  O2-  O427  1  0.82172576  0.65902617  0.47479360  1
  O2-  O428  1  0.83377341  0.66403885  0.80174949  1
  O2-  O429  1  0.84610159  0.95029752  0.18355972  1
  O2-  O430  1  0.83068417  0.91024078  0.48097258  1
  O2-  O431  1  0.79983456  0.87683894  0.79892394  1
  O2-  O432  1  0.17899723  0.08688384  0.14927788  1
  O2-  O433  1  0.17287093  0.07221559  0.52329472  1
  O2-  O434  1  0.18249142  0.10924088  0.86920063  1
  O2-  O435  1  0.17887619  0.35889330  0.19315687  1
  O2-  O436  1  0.16604232  0.32773996  0.51874735  1
  O2-  O437  1  0.22917145  0.41568822  0.84295517  1
  O2-  O438  1  0.17447535  0.59733489  0.17352922  1
  O2-  O439  1  0.16273455  0.56661447  0.53461401  1
  O2-  O440  1  0.16487750  0.58381157  0.81150668  1
  O2-  O441  1  0.18288490  0.82918426  0.17923248  1
  O2-  O442  1  0.18235631  0.82156974  0.50856709  1
  O2-  O443  1  0.16652063  0.85130311  0.84310393  1
  O2-  O444  1  0.40833770  0.08667302  0.18853378  1
  O2-  O445  1  0.41492012  0.09282058  0.52512407  1
  O2-  O446  1  0.42107933  0.08650777  0.85127948  1
  O2-  O447  1  0.40708219  0.32897764  0.18564247  1
  O2-  O448  1  0.41533107  0.33178368  0.52436564  1
  O2-  O449  1  0.37818494  0.32769656  0.86410429  1
  O2-  O450  1  0.43423537  0.60009800  0.17870379  1
  O2-  O451  1  0.41738905  0.57064095  0.53626749  1
  O2-  O452  1  0.39615971  0.60895603  0.84456045  1
  O2-  O453  1  0.42816491  0.85533616  0.17114547  1
  O2-  O454  1  0.41594486  0.80302949  0.52501477  1
  O2-  O455  1  0.40640751  0.83297749  0.85836016  1
  O2-  O456  1  0.67744360  0.09481700  0.18195334  1
  O2-  O457  1  0.65700551  0.07388218  0.51540347  1
  O2-  O458  1  0.67598115  0.09560503  0.86043221  1
  O2-  O459  1  0.66134430  0.32903407  0.19248959  1
  O2-  O460  1  0.66419859  0.32644177  0.51616826  1
  O2-  O461  1  0.67613517  0.35111995  0.84724674  1
  O2-  O462  1  0.64858223  0.58949507  0.23194455  1
  O2-  O463  1  0.65810054  0.56940092  0.51259230  1
  O2-  O464  1  0.67879594  0.61178326  0.83637184  1
  O2-  O465  1  0.67254038  0.84313720  0.18268057  1
  O2-  O466  1  0.66938588  0.82649396  0.52085592  1
  O2-  O467  1  0.63725231  0.82162911  0.90166720  1
  O2-  O468  1  1.01337502  0.14983456  0.18049508  1
  O2-  O469  1  0.90057529  0.07627176  0.51777441  1
  O2-  O470  1  0.85623765  0.03469181  0.84815916  1
  O2-  O471  1  0.91672213  0.34528146  0.18301516  1
  O2-  O472  1  0.90424072  0.32652170  0.51330267  1
  O2-  O473  1  0.92519535  0.33349747  0.84447503  1
  O2-  O474  1  0.86441193  0.57840493  0.17186338  1
  O2-  O475  1  0.91065371  0.57749486  0.51735653  1
  O2-  O476  1  0.91572918  0.58658232  0.84677449  1
  O2-  O477  1  0.91196893  0.84380995  0.19519730  1
  O2-  O478  1  0.91584036  0.82677036  0.51685779  1
  O2-  O479  1  0.92456194  0.85464396  0.86776317  1
  O2-  O480  1  0.15539809  0.08268180  0.30154628  1
  O2-  O481  1  0.18670480  0.07890925  0.64802232  1
  O2-  O482  1  0.16741463  0.08183249  0.99082803  1
  O2-  O483  1  0.19903221  0.40592385  0.30903037  1
  O2-  O484  1  0.15420241  0.33848672  0.64008233  1
  O2-  O485  1  0.15098492  0.31322732  0.99100847  1
  O2-  O486  1  0.11073637  0.58562121  0.29981544  1
  O2-  O487  1  0.16840733  0.58446659  0.66311113  1
  O2-  O488  1  0.15378523  0.58055331  1.00189863  1
  O2-  O489  1  0.16565899  0.84563524  0.29780507  1
  O2-  O490  1  0.19166146  0.84582956  0.63131509  1
  O2-  O491  1  0.17611055  0.85256682  0.96758734  1
  O2-  O492  1  0.40961450  0.08115472  0.30710323  1
  O2-  O493  1  0.42145137  0.08093829  0.64317123  1
  O2-  O494  1  0.42409880  0.09096868  0.97624065  1
  O2-  O495  1  0.40825468  0.31939150  0.30997292  1
  O2-  O496  1  0.41479417  0.31444404  0.64831511  1
  O2-  O497  1  0.40571066  0.32951254  0.99123031  1
  O2-  O498  1  0.46546161  0.56568005  0.30190920  1
  O2-  O499  1  0.45353777  0.63614224  0.64826695  1
  O2-  O500  1  0.40109788  0.57548615  0.96774879  1
  O2-  O501  1  0.40906963  0.84091387  0.29469843  1
  O2-  O502  1  0.41237918  0.82094106  0.64898732  1
  O2-  O503  1  0.41399498  0.83373965  0.98178842  1
  O2-  O504  1  0.65944588  0.08549378  0.30176124  1
  O2-  O505  1  0.64313011  0.05892449  0.63670606  1
  O2-  O506  1  0.67424993  0.09806909  0.98979887  1
  O2-  O507  1  0.66134142  0.31924250  0.30238188  1
  O2-  O508  1  0.66483128  0.32754169  0.64007906  1
  O2-  O509  1  0.60331373  0.33055424  0.96567424  1
  O2-  O510  1  0.64040782  0.61955970  0.29284751  1
  O2-  O511  1  0.65478550  0.55975486  0.62852530  1
  O2-  O512  1  0.69287543  0.64856959  0.96025263  1
  O2-  O513  1  0.66653168  0.78134629  0.29919951  1
  O2-  O514  1  0.65817065  0.82024230  0.64271202  1
  O2-  O515  1  0.68040574  0.78409522  1.00953049  1
  O2-  O516  1  0.87482558  0.03935368  0.29939292  1
  O2-  O517  1  0.88683899  0.07680362  0.64047734  1
  O2-  O518  1  0.90704505  0.05169503  0.96837070  1
  O2-  O519  1  0.90006924  0.32513889  0.30590755  1
  O2-  O520  1  0.91298400  0.34635772  0.63037203  1
  O2-  O521  1  0.92552070  0.33197636  0.97002788  1
  O2-  O522  1  0.86976334  0.56884512  0.29852083  1
  O2-  O523  1  0.91807600  0.58549699  0.64165770  1
  O2-  O524  1  0.90667454  0.56807797  0.97150908  1
  O2-  O525  1  0.92033332  0.83254029  0.31041170  1
  O2-  O526  1  0.91460496  0.83664138  0.64127474  1
  O2-  O527  1  0.92498079  0.83944892  0.98585385  1
  O2-  O528  1  0.07709777  0.15923494  0.03805781  1
  O2-  O529  1  0.04870219  0.14444485  0.28930718  1
  O2-  O530  1  0.05191004  0.16338792  0.65731601  1
  O2-  O531  1  0.08165450  0.41268645  0.02031940  1
  O2-  O532  1  0.06297415  0.42044933  0.35327710  1
  O2-  O533  1  0.06446584  0.41113565  0.66850169  1
  O2-  O534  1  0.04513441  0.61935519  0.06248750  1
  O2-  O535  1  0.04022002  0.68275453  0.33292262  1
  O2-  O536  1  0.08797767  0.67833650  0.68042623  1
  O2-  O537  1  0.08869095  0.91408939  0.02124480  1
  O2-  O538  1  0.08365285  0.92276456  0.35353375  1
  O2-  O539  1  0.07517051  0.92741376  0.69669477  1
  O2-  O540  1  0.33482054  0.16533174  0.02252530  1
  O2-  O541  1  0.32915350  0.15725679  0.34877487  1
  O2-  O542  1  0.33981264  0.15589982  0.69205016  1
  O2-  O543  1  0.32136604  0.41592529  0.01985937  1
  O2-  O544  1  0.34897714  0.41730020  0.36086775  1
  O2-  O545  1  0.30109257  0.33991456  0.70161536  1
  O2-  O546  1  0.33553978  0.66871976  0.02471360  1
  O2-  O547  1  0.39803216  0.64638706  0.37856024  1
  O2-  O548  1  0.33439941  0.66178026  0.70213584  1
  O2-  O549  1  0.33836603  0.92576225  0.01688379  1
  O2-  O550  1  0.32891265  0.91553379  0.34148244  1
  O2-  O551  1  0.34114144  0.91524095  0.68419818  1
  O2-  O552  1  0.58444375  0.18116882  0.02190183  1
  O2-  O553  1  0.57759175  0.16370072  0.34647878  1
  O2-  O554  1  0.59084030  0.16196841  0.67862729  1
  O2-  O555  1  0.56468655  0.43379187  0.04153483  1
  O2-  O556  1  0.57039035  0.40001566  0.35766991  1
  O2-  O557  1  0.58030801  0.41280457  0.67816190  1
  O2-  O558  1  0.54504667  0.57444240  0.02272522  1
  O2-  O559  1  0.59316431  0.64134680  0.43373886  1
  O2-  O560  1  0.61340786  0.65617423  0.68424255  1
  O2-  O561  1  0.58583671  0.93049119  0.01513626  1
  O2-  O562  1  0.55063812  0.93351470  0.36399345  1
  O2-  O563  1  0.58167776  0.91267412  0.67386341  1
  O2-  O564  1  0.85014192  0.16695940  0.01761459  1
  O2-  O565  1  0.82348220  0.15336768  0.34525166  1
  O2-  O566  1  0.82544282  0.16986726  0.68500150  1
  O2-  O567  1  0.82780299  0.39460568  0.01039200  1
  O2-  O568  1  0.81421499  0.40987654  0.34580438  1
  O2-  O569  1  0.84178675  0.42043842  0.67922605  1
  O2-  O570  1  0.83298369  0.66114053  0.01013040  1
  O2-  O571  1  0.76042319  0.61916021  0.35360367  1
  O2-  O572  1  0.84585185  0.67602529  0.69063900  1
  O2-  O573  1  0.84214811  0.91693154  0.03625963  1
  O2-  O574  1  0.81819995  0.89149283  0.36026849  1
  O2-  O575  1  0.82390337  0.91264330  0.67660475  1
