# generated using pymatgen
data_H2O
_symmetry_space_group_name_H-M   'P 1'
_cell_length_a   17.99402557
_cell_length_b   17.99102087
_cell_length_c   21.99917691
_cell_angle_alpha   90.01408259
_cell_angle_beta   89.99892858
_cell_angle_gamma   120.01663077
_symmetry_Int_Tables_number   1
_chemical_formula_structural   H2O
_chemical_formula_sum   'H384 O192'
_cell_volume   6166.63698971
_cell_formula_units_Z   192
loop_
 _symmetry_equiv_pos_site_id
 _symmetry_equiv_pos_as_xyz
  1  'x, y, z'
loop_
 _atom_type_symbol
 _atom_type_oxidation_number
  H+  1.0
  O2-  -2.0
loop_
 _atom_site_type_symbol
 _atom_site_label
 _atom_site_symmetry_multiplicity
 _atom_site_fract_x
 _atom_site_fract_y
 _atom_site_fract_z
 _atom_site_occupancy
  H+  H0  1  0.57700782  0.40929782  0.39724041  1
  H+  H1  1  0.26084800  0.08309763  0.19045694  1
  H+  H2  1  0.76213653  0.63468850  0.34781156  1
  H+  H3  1  0.27549082  0.12872697  0.67028478  1
  H+  H4  1  0.25569624  0.87823161  0.82122692  1
  H+  H5  1  0.89313873  0.03294441  0.33047670  1
  H+  H6  1  0.27744179  0.63808897  0.49551299  1
  H+  H7  1  0.39446220  0.86407553  0.99282572  1
  H+  H8  1  0.60060122  0.20026339  0.41437136  1
  H+  H9  1  0.61088330  0.39016356  0.33519873  1
  H+  H10  1  0.23060670  0.12861264  0.98869131  1
  H+  H11  1  1.01260806  0.64434700  0.34172194  1
  H+  H12  1  0.02604591  0.87885087  0.10376623  1
  H+  H13  1  0.98491437  0.85624917  0.19193786  1
  H+  H14  1  0.27451065  0.64872720  1.00454649  1
  H+  H15  1  0.09413122  0.08284523  0.17863439  1
  H+  H16  1  0.62584255  0.15775384  0.35886271  1
  H+  H17  1  0.86499966  0.23104442  0.67267742  1
  H+  H18  1  0.12790427  0.88852361  0.50690566  1
  H+  H19  1  0.16723206  0.84747648  0.54983948  1
  H+  H20  1  0.70955756  0.16640363  0.98525898  1
  H+  H21  1  0.38126466  0.86121362  0.65707115  1
  H+  H22  1  0.34376756  0.17389334  0.05828488  1
  H+  H23  1  0.75088354  0.96892911  0.62007476  1
  H+  H24  1  0.86027512  0.63321073  0.82364867  1
  H+  H25  1  0.89357783  0.27360698  0.51036717  1
  H+  H26  1  0.28774296  0.89510726  0.15668437  1
  H+  H27  1  -0.03935541  0.58810231  0.50541025  1
  H+  H28  1  0.78539877  0.14954695  0.32120712  1
  H+  H29  1  0.13810647  0.36738689  1.00540749  1
  H+  H30  1  0.63482013  0.27844992  0.32567687  1
  H+  H31  1  0.13634108  0.51157786  0.16634460  1
  H+  H32  1  0.82462215  0.35443236  0.36130505  1
  H+  H33  1  0.28464622  0.92782196  0.48065046  1
  H+  H34  1  0.13836292  0.52146671  0.64675335  1
  H+  H35  1  0.48352971  0.35817909  0.84866248  1
  H+  H36  1  0.13661150  0.35073036  0.63237981  1
  H+  H37  1  0.33605299  0.16245297  0.72995670  1
  H+  H38  1  0.76064036  0.37796137  0.32842012  1
  H+  H39  1  0.62542363  0.24134428  0.82892850  1
  H+  H40  1  0.46210201  0.03428481  0.86457605  1
  H+  H41  1  0.62746705  0.61684983  0.33469129  1
  H+  H42  1  0.52721675  0.63983418  0.49872335  1
  H+  H43  1  0.71184114  0.85668296  0.98517750  1
  H+  H44  1  0.90571337  0.04322318  0.18093144  1
  H+  H45  1  0.71900149  0.34438143  0.00462234  1
  H+  H46  1  0.41667380  0.58647737  0.26966537  1
  H+  H47  1  0.72599508  0.86342090  0.31991352  1
  H+  H48  1  0.37350640  0.12756010  0.34259508  1
  H+  H49  1  0.60409550  0.45712858  0.49365371  1
  H+  H50  1  0.77616209  0.38944706  0.16208276  1
  H+  H51  1  0.53074040  0.13326892  0.14612996  1
  H+  H52  1  0.63674107  0.36404126  0.16793402  1
  H+  H53  1  0.94878230  0.57817498  0.98045097  1
  H+  H54  1  0.10236835  0.14296313  0.83389957  1
  H+  H55  1  0.47000483  0.59101847  0.69467044  1
  H+  H56  1  0.98125009  0.85314156  0.33952265  1
  H+  H57  1  0.36845603  0.39207188  0.16270917  1
  H+  H58  1  0.61372968  0.73244574  0.34052330  1
  H+  H59  1  0.27445465  0.63216927  0.15835198  1
  H+  H60  1  0.23072156  0.61796939  0.84027234  1
  H+  H61  1  0.38822936  0.12053644  0.99381998  1
  H+  H62  1  0.99192403  0.88919720  0.49909033  1
  H+  H63  1  0.38912848  0.77439307  0.17102225  1
  H+  H64  1  0.64348443  0.14476523  0.50807211  1
  H+  H65  1  0.01643863  0.38088373  0.65633967  1
  H+  H66  1  1.03437303  0.13890741  0.33915399  1
  H+  H67  1  0.37334083  0.14090320  0.49467831  1
  H+  H68  1  0.22937718  0.85248021  0.64937049  1
  H+  H69  1  0.14885334  0.26974259  0.32566099  1
  H+  H70  1  0.18676152  0.78691705  -0.00705980  1
  H+  H71  1  0.38529192  0.77315010  0.66102374  1
  H+  H72  1  0.31244870  0.40837048  0.75944736  1
  H+  H73  1  0.88017095  0.02660185  0.49809516  1
  H+  H74  1  0.59291228  0.11763765  0.05073754  1
  H+  H75  1  0.26167033  0.36371345  0.65794791  1
  H+  H76  1  0.01867249  0.13410041  0.49162393  1
  H+  H77  1  0.86309028  0.48078432  0.16124234  1
  H+  H78  1  0.36180489  0.73176253  0.82715648  1
  H+  H79  1  0.25158815  0.37015531  0.17456248  1
  H+  H80  1  0.47585446  0.36974419  0.31913822  1
  H+  H81  1  0.88652583  0.86319788  0.84092661  1
  H+  H82  1  0.84780428  0.60797317  0.67073325  1
  H+  H83  1  0.02899288  0.38530949  0.49482394  1
  H+  H84  1  0.61828351  0.47826599  0.16188673  1
  H+  H85  1  0.36432137  0.48346405  0.33822646  1
  H+  H86  1  0.61296372  -0.03045128  0.18070708  1
  H+  H87  1  0.87741596  0.59930737  0.51013025  1
  H+  H88  1  0.14531330  1.01544597  0.33575161  1
  H+  H89  1  0.14562005  0.52251597  0.50152536  1
  H+  H90  1  0.73867629  0.09906900  0.00024696  1
  H+  H91  1  0.53609211  0.15327848  0.82624230  1
  H+  H92  1  0.62888238  0.25760647  1.00994132  1
  H+  H93  1  0.22689669  0.61124956  0.65765560  1
  H+  H94  1  0.60692144  0.67925815  0.68526185  1
  H+  H95  1  0.02251292  0.38836136  0.83653910  1
  H+  H96  1  0.78054028  0.65244147  0.15440655  1
  H+  H97  1  0.10320130  0.72880698  0.34076651  1
  H+  H98  1  0.38222642  0.51344409  0.50750528  1
  H+  H99  1  0.47946479  0.61369659  0.83867856  1
  H+  H100  1  0.93153674  0.34005869  0.71407833  1
  H+  H101  1  0.47480130  0.61342269  0.17825178  1
  H+  H102  1  0.87276067  0.23950270  0.32556922  1
  H+  H103  1  0.14298974  0.60397216  0.18055079  1
  H+  H104  1  0.15889296  0.52255044  0.32626083  1
  H+  H105  1  0.88146896  0.11639968  0.49800014  1
  H+  H106  1  0.27414661  0.38357858  0.48534943  1
  H+  H107  1  0.97435659  0.12442003  0.85255474  1
  H+  H108  1  0.72635257  0.12696090  0.65990849  1
  H+  H109  1  0.13601437  0.61748880  0.99056695  1
  H+  H110  1  0.46552066  0.87296265  0.83716872  1
  H+  H111  1  0.11701948  0.14940479  1.01419974  1
  H+  H112  1  0.52461858  0.38166840  1.00980277  1
  H+  H113  1  0.08963787  0.17467751  0.10717698  1
  H+  H114  1  0.38769076  0.98819925  0.01056823  1
  H+  H115  1  0.02043532  0.63417906  0.16784709  1
  H+  H116  1  0.63109355  0.59980609  0.51017896  1
  H+  H117  1  0.12954961  0.85479529  0.85298352  1
  H+  H118  1  0.66917678  0.30741060  0.58102147  1
  H+  H119  1  0.36495608  0.88336781  0.31622193  1
  H+  H120  1  1.03245128  0.15566066  0.16864842  1
  H+  H121  1  0.37926358  0.34565522  0.65390206  1
  H+  H122  1  0.50204359  0.15459145  0.51287404  1
  H+  H123  1  0.14169278  0.77486709  0.16313110  1
  H+  H124  1  0.37830211  0.53038754  0.98956941  1
  H+  H125  1  0.23576489  0.36375989  0.32599552  1
  H+  H126  1  0.51682718  0.90110459  0.66838247  1
  H+  H127  1  0.49188757  0.12902518  0.33903465  1
  H+  H128  1  0.51287815  0.36232515  0.68082705  1
  H+  H129  1  1.01142554  0.89489064  0.98640231  1
  H+  H130  1  0.86267665  0.22753490  0.16407240  1
  H+  H131  1  0.87013513  0.76931686  0.51079747  1
  H+  H132  1  0.59958780  0.98586442  0.82792321  1
  H+  H133  1  0.13683289  0.04599754  0.97975102  1
  H+  H134  1  -0.00344219  0.40196987  -0.01571818  1
  H+  H135  1  0.60763691  0.73839321  0.17380805  1
  H+  H136  1  0.82946658  0.17559394  0.42817101  1
  H+  H137  1  0.38457104  0.61071659  0.17338342  1
  H+  H138  1  0.90279202  0.39188217  0.98616078  1
  H+  H139  1  0.85161418  0.08094257  1.02617157  1
  H+  H140  1  0.46746295  0.35138623  0.50193908  1
  H+  H141  1  0.06328052  0.69274806  -0.04984643  1
  H+  H142  1  0.55883114  0.62176704  0.08473960  1
  H+  H143  1  0.11209348  0.63065781  0.66819000  1
  H+  H144  1  0.52334471  0.64332402  0.34169528  1
  H+  H145  1  0.09674357  0.61864831  0.49243716  1
  H+  H146  1  0.74418502  0.35397434  0.64345788  1
  H+  H147  1  0.36286905  0.38263476  0.49050291  1
  H+  H148  1  0.83908322  0.45917692  0.00546706  1
  H+  H149  1  0.22927664  0.86152712  0.30793399  1
  H+  H150  1  0.62794105  0.86287230  0.99016787  1
  H+  H151  1  0.73026369  0.55574737  0.21499169  1
  H+  H152  1  0.60491901  0.44298284  0.67765786  1
  H+  H153  1  0.39432122  0.27072121  0.84791991  1
  H+  H154  1  0.77672004  0.14654186  0.82567741  1
  H+  H155  1  0.76597049  0.62422777  0.50131029  1
  H+  H156  1  0.80606508  0.88580755  0.06329571  1
  H+  H157  1  0.48097101  0.11533431  0.66368760  1
  H+  H158  1  0.99671847  0.86905779  0.64677392  1
  H+  H159  1  0.35961267  0.12922260  0.82493466  1
  H+  H160  1  0.27057347  0.12514036  0.20440159  1
  H+  H161  1  0.48133217  0.37695263  0.17074973  1
  H+  H162  1  0.69104473  0.86962442  0.63766167  1
  H+  H163  1  0.36005411  -0.03333676  0.33220562  1
  H+  H164  1  0.12855981  0.87543655  0.66224771  1
  H+  H165  1  0.64650036  0.51458472  0.99775719  1
  H+  H166  1  0.62361728  0.57000130  0.66466687  1
  H+  H167  1  0.88065478  0.51653423  0.82680167  1
  H+  H168  1  0.56740458  0.76517718  0.66353879  1
  H+  H169  1  0.13860442  0.36149926  0.49299091  1
  H+  H170  1  0.61888796  0.14912905  0.67242358  1
  H+  H171  1  0.36343333  0.63812013  0.68226039  1
  H+  H172  1  0.08785445  0.92339310  0.90495989  1
  H+  H173  1  0.86540893  0.14217659  0.17556234  1
  H+  H174  1  0.90033926  0.24970952  1.01108632  1
  H+  H175  1  0.88866388  0.62151685  0.17079231  1
  H+  H176  1  0.08996271  0.16509191  0.39926765  1
  H+  H177  1  0.08329331  0.09111209  0.66507020  1
  H+  H178  1  0.86231628  0.96253475  0.01586741  1
  H+  H179  1  0.35085588  0.45093366  0.66971597  1
  H+  H180  1  0.59664711  0.90665757  0.48165352  1
  H+  H181  1  0.38307080  0.54544439  0.73107073  1
  H+  H182  1  0.91414409  0.38494421  0.30272443  1
  H+  H183  1  0.40287749  0.25110874  0.15211294  1
  H+  H184  1  0.70664631  0.85454667  0.17552405  1
  H+  H185  1  0.48055591  0.86336849  0.17480256  1
  H+  H186  1  0.86508548  0.14632275  0.82605849  1
  H+  H187  1  0.38910752  0.37269187  0.31814299  1
  H+  H188  1  0.62554498  0.89884875  0.32155776  1
  H+  H189  1  0.97104552  0.59772555  0.65614072  1
  H+  H190  1  0.37403049  0.75531472  -0.00920425  1
  H+  H191  1  0.13861946  0.76331273  0.65106322  1
  H+  H192  1  0.38869508  0.76571508  0.50805714  1
  H+  H193  1  0.12431272  0.48254653  1.01120731  1
  H+  H194  1  0.70469899  0.33545792  0.49120015  1
  H+  H195  1  0.67152342  0.58288851  0.24705454  1
  H+  H196  1  0.39222631  0.61977809  0.33057796  1
  H+  H197  1  0.85589244  0.71954367  0.34889677  1
  H+  H198  1  0.36689045  0.23239809  0.00003902  1
  H+  H199  1  0.99449885  0.37467923  0.15976111  1
  H+  H200  1  0.57944918  0.40396470  0.77216597  1
  H+  H201  1  0.41645536  0.12345671  0.17320480  1
  H+  H202  1  0.91941583  0.97438161  0.10917720  1
  H+  H203  1  0.72609869  0.60491880  0.84245099  1
  H+  H204  1  0.38394327  0.53147528  0.83174712  1
  H+  H205  1  0.22571918  0.11011669  0.50171684  1
  H+  H206  1  0.14120883  0.86242669  0.15338187  1
  H+  H207  1  0.61013732  0.87769187  0.17407459  1
  H+  H208  1  0.14020077  0.36595688  0.86138022  1
  H+  H209  1  0.12950065  1.02865195  0.50629240  1
  H+  H210  1  0.15114701  0.26957683  0.17505954  1
  H+  H211  1  0.03466524  0.38814889  0.33085169  1
  H+  H212  1  0.36390156  0.48098593  0.16597912  1
  H+  H213  1  0.85833761  0.72125370  0.82330098  1
  H+  H214  1  0.61736395  0.38453603  0.83270644  1
  H+  H215  1  0.36586192  0.97596884  0.66676899  1
  H+  H216  1  0.80419270  0.87997138  0.68565012  1
  H+  H217  1  0.64712507  0.02154884  0.30127958  1
  H+  H218  1  0.37692040  0.00635432  0.48680852  1
  H+  H219  1  0.36985287  0.85960963  0.83737101  1
  H+  H220  1  0.10818424  0.71924756  0.82619454  1
  H+  H221  1  0.87012966  0.89483123  0.34058582  1
  H+  H222  1  0.27424663  0.13566244  0.82402509  1
  H+  H223  1  0.13259520  0.27496735  1.00807617  1
  H+  H224  1  0.38953936  0.10991074  0.66188416  1
  H+  H225  1  0.60948589  0.64816173  0.17672575  1
  H+  H226  1  0.11890191  0.38120050  0.33789290  1
  H+  H227  1  0.86923016  0.60515847  0.32950898  1
  H+  H228  1  0.26573404  0.39930883  0.82355404  1
  H+  H229  1  1.05168967  0.15584125  0.67301085  1
  H+  H230  1  0.08891813  -0.03979808  0.14423646  1
  H+  H231  1  0.72237151  0.84656531  0.83834418  1
  H+  H232  1  0.36078259  0.22257063  0.48790573  1
  H+  H233  1  0.60938007  0.37247400  0.01137155  1
  H+  H234  1  0.63142694  1.04239151  0.65893113  1
  H+  H235  1  0.26666850  0.87923349  -0.00867395  1
  H+  H236  1  0.10778894  0.23229586  0.84763567  1
  H+  H237  1  0.83049414  0.16756451  0.72931662  1
  H+  H238  1  0.11108347  0.63228525  0.82639946  1
  H+  H239  1  0.91842452  0.88307767  0.65989281  1
  H+  H240  1  0.89624334  0.12463808  0.32990328  1
  H+  H241  1  0.61937759  0.98075078  0.02095288  1
  H+  H242  1  0.36577116  0.63598106  0.49886826  1
  H+  H243  1  0.61427600  0.92409439  0.66233792  1
  H+  H244  1  0.28696567  0.63931475  0.33977707  1
  H+  H245  1  0.86868068  0.97824418  0.67505179  1
  H+  H246  1  0.86355894  -0.01996455  0.83786093  1
  H+  H247  1  0.65988164  0.32906410  0.26087633  1
  H+  H248  1  0.59327102  0.18486704  0.73194429  1
  H+  H249  1  0.76406071  0.89347301  0.48187243  1
  H+  H250  1  0.87117581  0.84989265  0.99512323  1
  H+  H251  1  0.13569145  0.26983213  0.48995861  1
  H+  H252  1  0.66119818  0.82868025  0.26060818  1
  H+  H253  1  0.62656943  0.52530295  0.33476947  1
  H+  H254  1  0.13875005  0.03226190  0.84432394  1
  H+  H255  1  0.88319255  0.76611600  -0.00657781  1
  H+  H256  1  0.89326024  0.77629059  0.17700030  1
  H+  H257  1  0.89844278  0.90992552  0.16394109  1
  H+  H258  1  0.06385920  0.65452386  0.43924691  1
  H+  H259  1  0.36073873  0.64017447  -0.00255336  1
  H+  H260  1  0.62777390  0.78900342  0.49714198  1
  H+  H261  1  0.57678634  0.75020833  0.63383167  1
  H+  H262  1  0.59704661  0.36390464  0.48949666  1
  H+  H263  1  0.97093786  0.60424509  0.83396736  1
  H+  H264  1  0.86356118  0.38762332  0.81475017  1
  H+  H265  1  0.37460526  0.89106990  0.16201288  1
  H+  H266  1  0.64061287  0.27735821  0.16098357  1
  H+  H267  1  0.40030767  0.77904553  0.32732854  1
  H+  H268  1  0.39218116  0.36517228  0.99652431  1
  H+  H269  1  0.76803748  0.14525406  0.48684325  1
  H+  H270  1  0.12720184  0.87962964  0.33461574  1
  H+  H271  1  0.84527512  0.09401446  0.64997566  1
  H+  H272  1  0.15169603  0.01622341  0.65322527  1
  H+  H273  1  0.64137082  0.26590476  0.65239110  1
  H+  H274  1  0.90890257  0.58705538  0.23294579  1
  H+  H275  1  0.61321964  0.62228455  0.83762159  1
  H+  H276  1  0.34347322  0.96806438  0.82253267  1
  H+  H277  1  0.10972440  0.13581536  0.49445254  1
  H+  H278  1  0.27542785  0.38656331  1.01051984  1
  H+  H279  1  0.89954857  0.36884006  0.16411306  1
  H+  H280  1  0.83077234  0.46245741  0.49345956  1
  H+  H281  1  0.27280882  0.11921356  0.34284014  1
  H+  H282  1  0.64628604  0.12696295  0.84148760  1
  H+  H283  1  0.87803101  0.52110340  0.32453419  1
  H+  H284  1  0.63782099  0.51402055  0.84352587  1
  H+  H285  1  0.89294536  0.23598375  -0.02167478  1
  H+  H286  1  0.73490226  0.36601228  0.84392399  1
  H+  H287  1  0.86016869  0.62816067  0.00204521  1
  H+  H288  1  0.67629816  0.33038945  0.90568760  1
  H+  H289  1  0.14184422  0.52780428  0.84642122  1
  H+  H290  1  0.88998248  0.28181604  0.83880952  1
  H+  H291  1  0.40134074  0.58521228  0.92749400  1
  H+  H292  1  0.17575882  0.08266048  0.59810184  1
  H+  H293  1  0.47661379  0.12280479  1.00847356  1
  H+  H294  1  0.82268406  0.40691935  0.75586477  1
  H+  H295  1  0.08562602  0.42329024  0.07207427  1
  H+  H296  1  0.42338637  0.83137155  0.26467750  1
  H+  H297  1  0.66437575  0.86983020  0.54328637  1
  H+  H298  1  0.17380627  0.32151810  0.58001239  1
  H+  H299  1  0.87573077  0.06416695  0.58975831  1
  H+  H300  1  0.92298908  0.82834408  0.28034441  1
  H+  H301  1  0.77307043  0.62988936  0.00555313  1
  H+  H302  1  0.10029765  0.92082662  0.01967246  1
  H+  H303  1  0.67186017  0.57373102  0.93842134  1
  H+  H304  1  0.40567364  1.02935585  0.17599061  1
  H+  H305  1  0.90188006  0.09787939  0.90482103  1
  H+  H306  1  0.82746071  0.41130899  0.06972987  1
  H+  H307  1  0.08358449  0.41440407  0.43203498  1
  H+  H308  1  0.93556181  0.34266571  0.24685306  1
  H+  H309  1  0.41946897  0.34208754  0.22985794  1
  H+  H310  1  0.85789154  0.46134276  0.66126566  1
  H+  H311  1  0.34241786  0.42514932  0.06421731  1
  H+  H312  1  0.71602706  0.57822823  0.65828839  1
  H+  H313  1  0.92879746  0.32677854  0.57095937  1
  H+  H314  1  0.59086985  0.99147820  0.49479223  1
  H+  H315  1  0.46179310  0.23247940  0.11046245  1
  H+  H316  1  0.90928255  0.56533816  0.59725281  1
  H+  H317  1  0.02009308  0.88460282  0.85235631  1
  H+  H318  1  0.86490475  0.37298357  0.66807804  1
  H+  H319  1  0.17301192  0.58432632  0.55983919  1
  H+  H320  1  0.67745026  0.09527079  0.89997615  1
  H+  H321  1  0.17594661  0.10592195  0.89332496  1
  H+  H322  1  0.94025175  0.04685561  0.96446015  1
  H+  H323  1  0.56584302  0.93290857  0.76621671  1
  H+  H324  1  0.17718360  0.33760946  0.91617136  1
  H+  H325  1  0.65604455  0.81940180  0.89285950  1
  H+  H326  1  0.40428524  0.82748305  0.92481852  1
  H+  H327  1  0.93007478  0.09880695  0.24224528  1
  H+  H328  1  0.73436618  0.11503679  0.20362057  1
  H+  H329  1  0.18992163  0.57591692  0.26486692  1
  H+  H330  1  0.04789228  0.92529538  0.43900977  1
  H+  H331  1  0.16115283  0.83363650  0.25463482  1
  H+  H332  1  0.58953512  0.92038521  0.07775943  1
  H+  H333  1  0.32727060  0.91413914  0.72481649  1
  H+  H334  1  0.80383411  0.41668384  0.42859676  1
  H+  H335  1  0.01866625  0.12585697  0.02472840  1
  H+  H336  1  0.11904823  0.04073193  0.23200981  1
  H+  H337  1  0.82463922  0.65963410  0.44246185  1
  H+  H338  1  0.53891049  0.90319854  0.32290801  1
  H+  H339  1  0.43967771  0.09727345  0.27604563  1
  H+  H340  1  0.43061754  0.08080399  0.90881368  1
  H+  H341  1  0.17298617  0.59245203  0.93358190  1
  H+  H342  1  0.66686704  0.10281296  0.56319154  1
  H+  H343  1  0.14354095  0.10438852  0.33328275  1
  H+  H344  1  0.33488088  0.15281314  0.40873383  1
  H+  H345  1  0.33737247  0.42089830  0.39634639  1
  H+  H346  1  0.11065414  0.39208207  0.15297201  1
  H+  H347  1  0.58148301  0.67337801  0.43776018  1
  H+  H348  1  0.38321010  0.25909720  0.65410405  1
  H+  H349  1  0.83830425  0.67422015  0.09389944  1
  H+  H350  1  0.18094745  0.82981059  0.89979411  1
  H+  H351  1  0.18307848  0.33052340  0.23943841  1
  H+  H352  1  0.41404371  0.82809354  0.57111540  1
  H+  H353  1  0.32996021  0.67266800  0.73470901  1
  H+  H354  1  0.58219469  0.63544494  0.75099395  1
  H+  H355  1  0.81709594  0.64190213  0.72698637  1
  H+  H356  1  0.35895263  0.92707356  0.07000045  1
  H+  H357  1  0.12999310  0.90582698  0.40267398  1
  H+  H358  1  0.83404432  0.92354722  0.39583150  1
  H+  H359  1  0.58741370  0.42038392  0.10031010  1
  H+  H360  1  0.04865211  0.70236769  0.01833632  1
  H+  H361  1  0.34393894  0.67344714  0.40129053  1
  H+  H362  1  0.09863700  0.90699013  0.72126628  1
  H+  H363  1  0.33625896  0.66889262  0.10013138  1
  H+  H364  1  0.47800501  0.87344438  0.50632220  1
  H+  H365  1  0.65058262  0.55685813  0.56783558  1
  H+  H366  1  0.40960137  0.56908674  0.56852046  1
  H+  H367  1  0.90763434  0.83525432  0.56798094  1
  H+  H368  1  0.10153621  0.40696611  0.69495127  1
  H+  H369  1  0.61773093  0.71538995  0.83055380  1
  H+  H370  1  0.84908511  0.92877971  0.77602817  1
  H+  H371  1  0.92497143  0.35739916  0.89249599  1
  H+  H372  1  0.89164816  0.55824043  0.92217849  1
  H+  H373  1  0.09727136  0.41117390  0.78911229  1
  H+  H374  1  0.07943450  0.64120957  0.11268279  1
  H+  H375  1  0.42360252  0.33313851  0.93783409  1
  H+  H376  1  0.40884979  0.32082082  0.56188987  1
  H+  H377  1  0.81546123  0.11601893  0.07977553  1
  H+  H378  1  0.59134853  0.59374850  1.02813752  1
  H+  H379  1  0.08114963  0.66011226  0.72718483  1
  H+  H380  1  0.43557687  0.10660222  0.56904365  1
  H+  H381  1  0.90362017  0.82268523  0.89970626  1
  H+  H382  1  0.36701140  0.64458070  0.82583874  1
  H+  H383  1  0.84886747  0.88566676  0.49226796  1
  O2-  O384  1  0.09290227  0.17776324  0.15369053  1
  O2-  O385  1  0.07857251  0.16282641  0.47525236  1
  O2-  O386  1  0.06879156  0.17271335  0.83278232  1
  O2-  O387  1  0.08309180  0.42419965  0.13949568  1
  O2-  O388  1  0.08883144  0.41640645  0.47728643  1
  O2-  O389  1  0.08767527  0.41888365  0.83151300  1
  O2-  O390  1  0.08191880  0.66149771  0.15399772  1
  O2-  O391  1  0.05631509  0.63904332  0.48328381  1
  O2-  O392  1  0.07767933  0.65903006  0.81072370  1
  O2-  O393  1  0.08458610  0.91086145  0.11909117  1
  O2-  O394  1  0.05303417  0.92700102  0.48323501  1
  O2-  O395  1  0.08413743  0.91661584  0.86000420  1
  O2-  O396  1  0.40484264  0.20340551  0.12890667  1
  O2-  O397  1  0.33512141  0.16088534  0.47424472  1
  O2-  O398  1  0.33553567  0.16351569  0.80939786  1
  O2-  O399  1  0.33249075  0.41894066  0.15093394  1
  O2-  O400  1  0.33728002  0.41751046  0.47519726  1
  O2-  O401  1  0.31396894  0.43953635  0.79699596  1
  O2-  O402  1  0.33637643  0.66678577  0.14507407  1
  O2-  O403  1  0.34081765  0.67117640  0.48419802  1
  O2-  O404  1  0.33232201  0.67127863  0.81169418  1
  O2-  O405  1  0.34943158  0.92619820  0.14503461  1
  O2-  O406  1  0.34248288  0.95450449  0.46245742  1
  O2-  O407  1  0.31625834  0.91003222  0.80485835  1
  O2-  O408  1  0.58824510  0.17166867  0.12542165  1
  O2-  O409  1  0.60382133  0.20942829  0.48713667  1
  O2-  O410  1  0.59524425  0.18184296  0.81025776  1
  O2-  O411  1  0.58623068  0.41862967  0.14630859  1
  O2-  O412  1  0.57115450  0.39838371  0.47534780  1
  O2-  O413  1  0.58539392  0.41270582  0.81811082  1
  O2-  O414  1  0.57563744  0.67205960  0.16055965  1
  O2-  O415  1  0.58645788  0.67549905  0.48329324  1
  O2-  O416  1  0.58368154  0.65118186  0.81830028  1
  O2-  O417  1  0.58261750  0.91406320  0.15930913  1
  O2-  O418  1  0.55740180  0.93044790  0.48142798  1
  O2-  O419  1  0.55586195  0.93008655  0.81059084  1
  O2-  O420  1  0.82686834  0.16364491  0.16108553  1
  O2-  O421  1  0.82891890  0.17040613  0.47305892  1
  O2-  O422  1  0.83707062  0.17825720  0.80974719  1
  O2-  O423  1  0.83609360  0.42065095  0.14608718  1
  O2-  O424  1  0.79243944  0.40642496  0.47236749  1
  O2-  O425  1  0.82826071  0.41341762  0.80106229  1
  O2-  O426  1  0.84052274  0.68049851  0.13979531  1
  O2-  O427  1  0.82665547  0.66059355  0.48776854  1
  O2-  O428  1  0.82672502  0.66025742  0.80960214  1
  O2-  O429  1  0.88020115  0.94720547  0.14328407  1
  O2-  O430  1  0.82692934  0.92142951  0.47288017  1
  O2-  O431  1  0.84035303  0.92138647  0.82082695  1
  O2-  O432  1  0.08547920  0.02711261  0.19414691  1
  O2-  O433  1  0.16790787  0.08909171  0.51986614  1
  O2-  O434  1  0.17249871  0.09573358  0.84829242  1
  O2-  O435  1  0.18578293  0.33187755  0.19208573  1
  O2-  O436  1  0.17132294  0.33107186  0.50306125  1
  O2-  O437  1  0.17439748  0.33797820  0.87047044  1
  O2-  O438  1  0.17497349  0.57322917  0.18521903  1
  O2-  O439  1  0.17649090  0.58413592  0.51459569  1
  O2-  O440  1  0.17086594  0.58992180  0.85744620  1
  O2-  O441  1  0.17252170  0.83700500  0.17354388  1
  O2-  O442  1  0.17137496  0.87064899  0.50864834  1
  O2-  O443  1  0.16208428  0.82283985  0.85615664  1
  O2-  O444  1  0.44233909  0.09027987  0.18995697  1
  O2-  O445  1  0.43955378  0.11837260  0.52458773  1
  O2-  O446  1  0.43401793  0.06877491  0.86439598  1
  O2-  O447  1  0.41969458  0.34287360  0.18298729  1
  O2-  O448  1  0.40636036  0.32214793  0.51597941  1
  O2-  O449  1  0.42488222  0.32799071  0.86689750  1
  O2-  O450  1  0.41208775  0.57892881  0.19081752  1
  O2-  O451  1  0.41213282  0.57416343  0.52433121  1
  O2-  O452  1  0.41722695  0.59123433  0.84829580  1
  O2-  O453  1  0.41756625  0.83446134  0.18665216  1
  O2-  O454  1  0.41558116  0.82739033  0.52462061  1
  O2-  O455  1  0.40436603  0.83492916  0.85401585  1
  O2-  O456  1  0.67371312  0.08096542  0.21956077  1
  O2-  O457  1  0.66364384  0.10289736  0.51792040  1
  O2-  O458  1  0.67377271  0.09334413  0.85456533  1
  O2-  O459  1  0.66732167  0.33340220  0.18238834  1
  O2-  O460  1  0.64449135  0.29900782  0.51138167  1
  O2-  O461  1  0.67526333  0.33497267  0.86078128  1
  O2-  O462  1  0.69013201  0.57531919  0.20479189  1
  O2-  O463  1  0.65410980  0.56214130  0.52196411  1
  O2-  O464  1  0.66747361  0.57375760  0.86106993  1
  O2-  O465  1  0.64980456  0.82592266  0.19372277  1
  O2-  O466  1  0.65710982  0.85300622  0.49965493  1
  O2-  O467  1  0.66105185  0.81008697  0.84826638  1
  O2-  O468  1  0.93130327  0.10306912  0.19649630  1
  O2-  O469  1  0.91048022  0.08605397  0.51545069  1
  O2-  O470  1  0.90908679  0.09128893  0.86151650  1
  O2-  O471  1  0.93046975  0.33888901  0.17702275  1
  O2-  O472  1  0.93187470  0.33193742  0.52681030  1
  O2-  O473  1  0.92145834  0.34513802  0.84703265  1
  O2-  O474  1  0.91507989  0.58857155  0.18732457  1
  O2-  O475  1  0.89933964  0.56055535  0.52235089  1
  O2-  O476  1  0.90957826  0.57395576  0.84752790  1
  O2-  O477  1  0.92356243  0.83240508  0.19958683  1
  O2-  O478  1  0.89608815  0.83115473  0.52217296  1
  O2-  O479  1  0.91211407  0.82743790  0.85462735  1
  O2-  O480  1  0.17377224  0.07416086  0.31771345  1
  O2-  O481  1  0.17752635  0.07834392  0.64328841  1
  O2-  O482  1  0.17204344  0.10856854  0.97149505  1
  O2-  O483  1  0.17602914  0.32906915  0.30794863  1
  O2-  O484  1  0.16866482  0.32023792  0.62529741  1
  O2-  O485  1  0.16782063  0.33491163  0.99241401  1
  O2-  O486  1  0.19583545  0.58089353  0.30979408  1
  O2-  O487  1  0.16861179  0.58493702  0.63918274  1
  O2-  O488  1  0.17338612  0.59461669  0.97940353  1
  O2-  O489  1  0.16480595  0.83311046  0.29967344  1
  O2-  O490  1  0.16874491  0.82343586  0.63499796  1
  O2-  O491  1  0.20728884  0.84284902  0.97407662  1
  O2-  O492  1  0.43318024  0.09891660  0.32071424  1
  O2-  O493  1  0.42182290  0.08115542  0.64679684  1
  O2-  O494  1  0.42357872  0.09232513  0.98406687  1
  O2-  O495  1  0.41804580  0.34304607  0.30024473  1
  O2-  O496  1  0.41306030  0.31930385  0.63800313  1
  O2-  O497  1  0.42167713  0.33265212  0.98444887  1
  O2-  O498  1  0.42016607  0.58659967  0.31511527  1
  O2-  O499  1  0.40633968  0.56888394  0.69073620  1
  O2-  O500  1  0.38934926  0.58547436  0.97154911  1
  O2-  O501  1  0.42884438  0.83820948  0.30989610  1
  O2-  O502  1  0.41385057  0.83221253  0.64265844  1
  O2-  O503  1  0.40701888  0.82222504  0.97108620  1
  O2-  O504  1  0.68225032  0.08754188  0.28641454  1
  O2-  O505  1  0.66641026  0.10251493  0.64317300  1
  O2-  O506  1  0.69105462  0.10603995  0.97907367  1
  O2-  O507  1  0.66344077  0.33662951  0.30603279  1
  O2-  O508  1  0.67963769  0.31987630  0.62666962  1
  O2-  O509  1  0.65832669  0.31284080  0.98805720  1
  O2-  O510  1  0.65852492  0.58630531  0.32005767  1
  O2-  O511  1  0.65405662  0.54527530  0.64254032  1
  O2-  O512  1  0.67792668  0.57538924  0.98377920  1
  O2-  O513  1  0.66474092  0.83052213  0.30847736  1
  O2-  O514  1  0.68992748  0.91626477  0.61610755  1
  O2-  O515  1  0.65354542  0.83269357  0.96829314  1
  O2-  O516  1  0.92773752  0.09449150  0.31724262  1
  O2-  O517  1  0.84364151  0.04348500  0.62916411  1
  O2-  O518  1  0.92727069  0.05503646  1.00602764  1
  O2-  O519  1  0.93494183  0.34513617  0.29395757  1
  O2-  O520  1  0.92285760  0.33491067  0.67006951  1
  O2-  O521  1  0.95016743  0.40107321  0.95872852  1
  O2-  O522  1  0.90095299  0.57966491  0.30864799  1
  O2-  O523  1  0.91001610  0.56329194  0.64316112  1
  O2-  O524  1  0.88893626  0.55645865  0.96812405  1
  O2-  O525  1  0.92131523  0.82818805  0.32556768  1
  O2-  O526  1  0.93573637  0.84739257  0.63652088  1
  O2-  O527  1  0.90811339  0.82649458  0.97835049  1
  O2-  O528  1  0.08216921  0.17054824  0.03535826  1
  O2-  O529  1  0.09510133  0.16543000  0.35369094  1
  O2-  O530  1  0.03081431  0.09441820  0.67187979  1
  O2-  O531  1  0.08888815  0.42217575  0.02409127  1
  O2-  O532  1  0.09032481  0.41256923  0.35302987  1
  O2-  O533  1  0.08467914  0.41309860  0.65418562  1
  O2-  O534  1  0.06423068  0.67014947  -0.00960191  1
  O2-  O535  1  0.06835528  0.67418144  0.36257718  1
  O2-  O536  1  0.08085572  0.66065987  0.68202180  1
  O2-  O537  1  0.07584865  0.93410505  -0.01557918  1
  O2-  O538  1  0.10493452  0.90950005  0.36402057  1
  O2-  O539  1  0.10233726  0.91132504  0.67717628  1
  O2-  O540  1  0.33458344  0.16944821  0.01354627  1
  O2-  O541  1  0.33345851  0.14899813  0.36046655  1
  O2-  O542  1  0.33716172  0.15948094  0.68472938  1
  O2-  O543  1  0.33837698  0.41902479  0.01957202  1
  O2-  O544  1  0.33399194  0.42133579  0.35094853  1
  O2-  O545  1  0.31983323  0.38896618  0.67880531  1
  O2-  O546  1  0.33703101  0.67913466  0.01586821  1
  O2-  O547  1  0.34805517  0.67451841  0.35634021  1
  O2-  O548  1  0.33268667  0.67058848  0.68901687  1
  O2-  O549  1  0.36206275  0.92734178  0.02394991  1
  O2-  O550  1  0.32976834  0.91171263  0.31085929  1
  O2-  O551  1  0.33316793  0.91398609  0.67983257  1
  O2-  O552  1  0.57134126  0.15724646  0.05952030  1
  O2-  O553  1  0.59523079  0.18851335  0.36820627  1
  O2-  O554  1  0.58882312  0.18116367  0.68658106  1
  O2-  O555  1  0.58511733  0.40848113  0.02572988  1
  O2-  O556  1  0.58033429  0.41880957  0.35225196  1
  O2-  O557  1  0.57037302  0.38805804  0.69999087  1
  O2-  O558  1  0.54046120  0.57698989  0.05331772  1
  O2-  O559  1  0.58300684  0.67295146  0.35891192  1
  O2-  O560  1  0.57385354  0.62317361  0.70442397  1
  O2-  O561  1  0.58619116  0.92055708  0.03261336  1
  O2-  O562  1  0.60233530  0.93840256  0.32889014  1
  O2-  O563  1  0.57593050  0.93986585  0.68439353  1
  O2-  O564  1  0.80177555  0.08707399  0.03994426  1
  O2-  O565  1  0.84088317  0.18087484  0.34356987  1
  O2-  O566  1  0.82744163  0.16766024  0.68400468  1
  O2-  O567  1  0.81864198  0.40195707  0.02465420  1
  O2-  O568  1  0.82092727  0.40350926  0.34629411  1
  O2-  O569  1  0.82449951  0.39899617  0.67438732  1
  O2-  O570  1  0.83612301  0.66281794  0.01933341  1
  O2-  O571  1  0.82276258  0.65843023  0.36211836  1
  O2-  O572  1  0.81027960  0.63133284  0.68268964  1
  O2-  O573  1  0.81955389  0.89578490  0.01998525  1
  O2-  O574  1  0.83978391  0.92648332  0.35037141  1
  O2-  O575  1  0.85980410  0.92667771  0.69843818  1
