# generated using pymatgen
data_H2O
_symmetry_space_group_name_H-M   'P 1'
_cell_length_a   17.99636852
_cell_length_b   17.98694711
_cell_length_c   22.00570930
_cell_angle_alpha   89.98762156
_cell_angle_beta   89.99526869
_cell_angle_gamma   120.03637269
_symmetry_Int_Tables_number   1
_chemical_formula_structural   H2O
_chemical_formula_sum   'H384 O192'
_cell_volume   6166.64610734
_cell_formula_units_Z   192
loop_
 _symmetry_equiv_pos_site_id
 _symmetry_equiv_pos_as_xyz
  1  'x, y, z'
loop_
 _atom_type_symbol
 _atom_type_oxidation_number
  H+  1.0
  O2-  -2.0
loop_
 _atom_site_type_symbol
 _atom_site_label
 _atom_site_symmetry_multiplicity
 _atom_site_fract_x
 _atom_site_fract_y
 _atom_site_fract_z
 _atom_site_occupancy
  H+  H0  1  0.74021050  0.59897698  0.60810185  1
  H+  H1  1  0.41324821  0.87296808  0.33383834  1
  H+  H2  1  0.53382181  0.88758780  0.49469344  1
  H+  H3  1  0.27269953  0.12682201  0.49638163  1
  H+  H4  1  0.13389200  0.07273110  0.90040604  1
  H+  H5  1  0.75267486  0.11663265  0.33501680  1
  H+  H6  1  0.82683866  0.92581121  0.43686913  1
  H+  H7  1  0.38031268  0.61634087  0.17050459  1
  H+  H8  1  0.42180204  0.59006002  0.22672798  1
  H+  H9  1  0.33889743  0.12479252  0.86324680  1
  H+  H10  1  0.63557557  0.52612790  0.97085803  1
  H+  H11  1  0.27338719  0.89151983  0.06414860  1
  H+  H12  1  0.12843725  0.71928170  0.49523714  1
  H+  H13  1  0.40057406  0.97681149  0.67459825  1
  H+  H14  1  0.52370665  0.37902912  0.16715729  1
  H+  H15  1  0.10109801  0.13551268  0.82148129  1
  H+  H16  1  0.63150137  0.63866869  0.35403091  1
  H+  H17  1  0.08473087  0.39619932  0.13726798  1
  H+  H18  1  0.93088385  0.30669293  0.66020710  1
  H+  H19  1  0.96740616  0.11635300  0.17009601  1
  H+  H20  1  0.89258956  0.03823870  0.50607602  1
  H+  H21  1  0.72961948  0.36465168  0.50906530  1
  H+  H22  1  0.64361296  0.26926466  0.51140536  1
  H+  H23  1  0.49504697  0.86467490  -0.00134341  1
  H+  H24  1  0.89238000  0.49334922  0.67485165  1
  H+  H25  1  0.31221189  0.87907782  0.30873500  1
  H+  H26  1  0.14540962  0.62169093  0.49783779  1
  H+  H27  1  0.28324467  0.38884270  0.34421362  1
  H+  H28  1  0.71123611  0.34431382  0.98339870  1
  H+  H29  1  0.76624679  0.22243443  0.77047950  1
  H+  H30  1  0.51721182  0.37015094  0.34880041  1
  H+  H31  1  -0.00001239  0.89442832  0.48398890  1
  H+  H32  1  0.62816335  0.84682472  0.82660901  1
  H+  H33  1  0.28439527  0.87730157  0.49676154  1
  H+  H34  1  0.62039977  0.38145157  0.00355422  1
  H+  H35  1  0.50624055  0.60396330  0.32630435  1
  H+  H36  1  0.11071003  0.09769760  0.65394114  1
  H+  H37  1  0.38597881  0.77733398  0.17279036  1
  H+  H38  1  0.67378459  0.07307677  0.57062043  1
  H+  H39  1  0.27166297  0.64153372  0.15753510  1
  H+  H40  1  0.84939862  0.72765852  0.17289154  1
  H+  H41  1  0.04869981  0.41740666  0.66697292  1
  H+  H42  1  0.13033176  0.47943176  0.33786007  1
  H+  H43  1  0.27749349  0.39016333  0.66979960  1
  H+  H44  1  0.74572135  0.51368644  0.76762694  1
  H+  H45  1  0.71747084  0.10228333  0.82672870  1
  H+  H46  1  0.72907194  0.85652558  0.32865768  1
  H+  H47  1  0.12823792  0.36851842  0.82872432  1
  H+  H48  1  0.26745349  0.13591118  0.34015994  1
  H+  H49  1  0.03322532  0.14884214  0.49506521  1
  H+  H50  1  0.63027402  0.47468539  0.64420191  1
  H+  H51  1  0.36991757  0.99155041  0.84454190  1
  H+  H52  1  0.13852756  0.28892279  0.65634732  1
  H+  H53  1  -0.03280407  0.37556410  0.18089159  1
  H+  H54  1  0.88129432  0.83768619  0.82681577  1
  H+  H55  1  0.63652439  0.77082023  0.51630915  1
  H+  H56  1  0.11100846  -0.02780598  0.17302356  1
  H+  H57  1  0.36808220  0.10921477  0.32176359  1
  H+  H58  1  0.35824328  0.38696369  0.82781872  1
  H+  H59  1  0.44318402  0.11189683  0.65333421  1
  H+  H60  1  0.63158572  0.10008880  0.83637651  1
  H+  H61  1  0.20703496  0.57148639  0.66137234  1
  H+  H62  1  0.84161614  0.15945843  0.05237841  1
  H+  H63  1  0.87373886  0.54068808  0.48488084  1
  H+  H64  1  0.47540332  0.60929809  0.65127458  1
  H+  H65  1  0.78600980  0.84233397  0.01455436  1
  H+  H66  1  0.35159442  0.61886387  0.66892324  1
  H+  H67  1  0.13500502  0.61888313  0.17391758  1
  H+  H68  1  0.59719583  0.70787769  0.80833967  1
  H+  H69  1  -0.03222114  0.83063958  0.82946082  1
  H+  H70  1  0.14212159  0.12668779  0.32295788  1
  H+  H71  1  0.27453205  0.64289181  -0.00036067  1
  H+  H72  1  0.91650532  0.60941269  0.79943947  1
  H+  H73  1  0.42436685  0.82248300  0.90118311  1
  H+  H74  1  -0.07563531  0.08916698  0.59819030  1
  H+  H75  1  0.62748768  0.97820584  0.01125586  1
  H+  H76  1  0.30453662  0.90555931  0.67065240  1
  H+  H77  1  0.39137011  0.36039170  0.50275726  1
  H+  H78  1  0.61615166  0.21727235  0.99843454  1
  H+  H79  1  0.87980318  0.28745010  0.18226093  1
  H+  H80  1  0.89593918  0.09685181  0.98474988  1
  H+  H81  1  0.79081066  0.95628892  0.10134501  1
  H+  H82  1  0.46984030  0.36297222  0.84699912  1
  H+  H83  1  0.92330462  0.39237122  0.66395471  1
  H+  H84  1  0.35953201  0.38979053  1.01219779  1
  H+  H85  1  0.09796156  0.94898597  0.83046703  1
  H+  H86  1  0.52066690  0.37353663  0.49390279  1
  H+  H87  1  0.89937677  0.13027602  0.51077672  1
  H+  H88  1  0.89455921  0.57131199  0.97854873  1
  H+  H89  1  0.90051887  0.47438619  0.10536087  1
  H+  H90  1  0.19939666  0.86529841  0.33779719  1
  H+  H91  1  0.88208762  0.14687131  0.34985617  1
  H+  H92  1  0.35901715  -0.02462086  0.33114092  1
  H+  H93  1  0.10150921  0.95391459  0.66885484  1
  H+  H94  1  0.81428753  0.68557182  0.41269123  1
  H+  H95  1  0.89941732  0.29242593  0.51083264  1
  H+  H96  1  0.78176774  0.89091986  0.67069834  1
  H+  H97  1  0.45987537  0.12121043  0.31011594  1
  H+  H98  1  0.88786917  0.61617166  0.33345600  1
  H+  H99  1  0.73188284  0.37256910  0.18367461  1
  H+  H100  1  0.07795235  0.88045742  0.46870594  1
  H+  H101  1  -0.02619355  0.63021014  0.17838529  1
  H+  H102  1  0.86877322  0.70107180  -0.03106062  1
  H+  H103  1  0.39925658  0.29081103  0.65270375  1
  H+  H104  1  0.77112006  0.89855978  0.49861813  1
  H+  H105  1  0.64993257  0.27002330  0.66383285  1
  H+  H106  1  0.38002149  0.73700549  0.33721476  1
  H+  H107  1  0.73985295  0.60293241  0.34349973  1
  H+  H108  1  0.21816920  0.85822741  0.17594937  1
  H+  H109  1  0.26930064  0.38921946  0.49301430  1
  H+  H110  1  0.17278952  0.37696274  0.18604173  1
  H+  H111  1  0.51272255  0.64389165  1.00307690  1
  H+  H112  1  0.91500324  0.01787411  0.97603534  1
  H+  H113  1  0.84444838  0.63073342  0.69131469  1
  H+  H114  1  0.11797677  0.23067026  0.34227152  1
  H+  H115  1  0.62958612  0.86056219  0.17700135  1
  H+  H116  1  0.10633891  0.39968119  0.00873882  1
  H+  H117  1  0.35209311  0.71178518  0.82337300  1
  H+  H118  1  0.86050025  0.72464837  0.80587533  1
  H+  H119  1  1.02921179  0.13627483  1.00653713  1
  H+  H120  1  0.10981168  0.73156084  0.16595186  1
  H+  H121  1  0.12961793  0.85982736  0.17841730  1
  H+  H122  1  0.98273016  0.35639938  0.98280214  1
  H+  H123  1  0.88017173  0.85886764  0.18992507  1
  H+  H124  1  0.78508535  0.14903485  0.50235875  1
  H+  H125  1  0.89291772  0.03004491  0.65864526  1
  H+  H126  1  0.02729363  0.91672658  0.01801737  1
  H+  H127  1  0.64637655  0.36937844  0.65475652  1
  H+  H128  1  0.89529946  0.37206802  0.34304818  1
  H+  H129  1  0.63285648  0.23921788  0.82414147  1
  H+  H130  1  0.82023125  0.75795652  0.48574871  1
  H+  H131  1  0.86269947  0.97385330  0.34236166  1
  H+  H132  1  0.89360521  0.77127450  0.34249496  1
  H+  H133  1  0.10147455  0.48972195  0.15508917  1
  H+  H134  1  0.38172445  0.10423744  0.16385260  1
  H+  H135  1  0.38730875  0.51944987  0.65708482  1
  H+  H136  1  0.62556999  0.88389403  0.34235474  1
  H+  H137  1  0.12539850  0.23374321  0.16881831  1
  H+  H138  1  0.71549252  0.85682554  0.17040139  1
  H+  H139  1  0.22057034  0.37664711  0.01450028  1
  H+  H140  1  0.60767515  0.73330142  1.00544270  1
  H+  H141  1  0.39790215  0.86076221  0.50536805  1
  H+  H142  1  0.60906895  0.36739419  0.34792765  1
  H+  H143  1  0.01958884  0.53533299  0.38477203  1
  H+  H144  1  0.80103590  0.40770784  0.66863436  1
  H+  H145  1  0.72293695  0.06418073  0.66555787  1
  H+  H146  1  0.11344015  0.58758548  0.82541423  1
  H+  H147  1  0.02651765  0.37169079  0.82234486  1
  H+  H148  1  0.51025638  0.64200429  0.15112931  1
  H+  H149  1  0.88262673  0.23710962  0.35080653  1
  H+  H150  1  0.47272499  0.19932835  0.95073346  1
  H+  H151  1  0.50711246  0.62074530  0.81370463  1
  H+  H152  1  0.03128780  0.60493581  0.71669558  1
  H+  H153  1  0.36718090  0.72786521  1.00550512  1
  H+  H154  1  0.86404813  0.14381828  0.14968921  1
  H+  H155  1  0.14257904  0.41839668  0.65944164  1
  H+  H156  1  0.88508489  0.06214909  0.82555582  1
  H+  H157  1  0.89650488  0.25006910  0.98120672  1
  H+  H158  1  0.60471168  0.62852425  0.50911979  1
  H+  H159  1  0.66624707  0.82282153  0.27031725  1
  H+  H160  1  0.02806006  0.14943620  0.66717777  1
  H+  H161  1  0.07048295  0.57790609  0.66240514  1
  H+  H162  1  0.50861250  0.85357873  0.67207130  1
  H+  H163  1  0.75501084  0.63623015  0.80536343  1
  H+  H164  1  -0.03104109  0.84864867  0.65613444  1
  H+  H165  1  0.39243664  0.10478835  0.50677276  1
  H+  H166  1  -0.01974695  0.11201708  0.32910418  1
  H+  H167  1  0.15740722  0.11541271  0.16622350  1
  H+  H168  1  0.75515665  0.62584000  0.17532364  1
  H+  H169  1  0.90342810  0.36619076  0.83673348  1
  H+  H170  1  0.36899497  0.39273398  0.67012268  1
  H+  H171  1  0.85234752  0.43947044  1.00382000  1
  H+  H172  1  0.38726576  0.26546263  0.33372460  1
  H+  H173  1  0.19602509  0.09695068  0.64710630  1
  H+  H174  1  0.88714265  0.54083426  0.17636061  1
  H+  H175  1  0.83524740  0.90192873  0.09564197  1
  H+  H176  1  0.75335314  0.36744891  0.83954626  1
  H+  H177  1  0.88417420  0.27108660  0.82643303  1
  H+  H178  1  0.46822035  0.36362542  0.00665423  1
  H+  H179  1  0.39810848  0.77218534  0.50450651  1
  H+  H180  1  0.86712885  0.40254868  0.49984131  1
  H+  H181  1  0.66470358  0.11513673  0.33620339  1
  H+  H182  1  0.74114940  0.66269587  0.49133047  1
  H+  H183  1  0.15067822  0.36790146  0.33105513  1
  H+  H184  1  0.85645372  0.47708163  0.34380511  1
  H+  H185  1  -0.02692619  0.86626522  0.32900172  1
  H+  H186  1  0.63508375  0.97809307  0.34364345  1
  H+  H187  1  0.13438420  0.53822648  -0.01744007  1
  H+  H188  1  0.25632061  0.84935795  0.82883960  1
  H+  H189  1  0.55040212  0.11114349  0.36036645  1
  H+  H190  1  0.34377953  0.70213155  0.66734912  1
  H+  H191  1  1.03543472  0.39835716  0.49292175  1
  H+  H192  1  0.61506319  0.63184624  0.65859552  1
  H+  H193  1  0.37901393  0.51926467  0.83914960  1
  H+  H194  1  0.36223202  0.21492278  0.49552828  1
  H+  H195  1  0.47476606  0.60342790  0.50652253  1
  H+  H196  1  0.57296457  0.14803461  0.66450618  1
  H+  H197  1  0.25320647  0.36589641  0.17674698  1
  H+  H198  1  0.38230740  0.27510493  0.85549677  1
  H+  H199  1  0.13571910  0.27214852  0.83141097  1
  H+  H200  1  0.22688764  0.36433378  0.83350492  1
  H+  H201  1  0.64983908  0.11466596  0.17760906  1
  H+  H202  1  0.07742456  0.14736915  0.20395168  1
  H+  H203  1  0.89458897  0.64128568  0.62950356  1
  H+  H204  1  0.63068538  0.22715835  0.16275556  1
  H+  H205  1  0.17416366  0.78228547  0.68378178  1
  H+  H206  1  0.63488895  0.76422709  0.66120032  1
  H+  H207  1  0.61180732  0.37103832  0.49531369  1
  H+  H208  1  0.14935109  0.52481765  0.49913471  1
  H+  H209  1  0.53305200  0.12819626  0.00838343  1
  H+  H210  1  0.11340248  0.46530189  0.82167426  1
  H+  H211  1  0.67893605  0.38317055  0.82143741  1
  H+  H212  1  0.36869598  0.48800047  0.49634329  1
  H+  H213  1  0.21007546  0.60193549  0.82569320  1
  H+  H214  1  0.89630872  0.48554596  0.82404955  1
  H+  H215  1  0.63754113  0.26523774  0.33477212  1
  H+  H216  1  0.11895408  0.82190716  0.84154337  1
  H+  H217  1  0.57889475  0.65206346  0.72014301  1
  H+  H218  1  0.35298584  0.12268839  1.00272443  1
  H+  H219  1  0.98934862  0.59636410  0.98651771  1
  H+  H220  1  0.24301678  0.61771534  0.49657683  1
  H+  H221  1  0.88117578  0.02704090  0.17012791  1
  H+  H222  1  0.13644834  0.59925863  0.32848580  1
  H+  H223  1  0.79988002  0.38148245  0.05857810  1
  H+  H224  1  0.78473113  0.12657267  -0.00794033  1
  H+  H225  1  0.07063899  0.68537729  0.81018765  1
  H+  H226  1  0.88251011  0.88567968  0.50800594  1
  H+  H227  1  0.26079940  0.12836662  1.00799197  1
  H+  H228  1  0.40271508  0.07374322  0.80576163  1
  H+  H229  1  0.86646331  0.88468429  0.66596849  1
  H+  H230  1  0.56970196  0.88874134  0.73530940  1
  H+  H231  1  0.12908845  0.02375255  0.49665144  1
  H+  H232  1  0.65699448  0.87546875  0.01057363  1
  H+  H233  1  0.37305582  0.22169795  0.15631695  1
  H+  H234  1  0.39198863  0.35687842  0.33498923  1
  H+  H235  1  0.37739897  0.60673045  0.83670798  1
  H+  H236  1  0.87101021  0.64391776  0.41463843  1
  H+  H237  1  0.64276456  0.51565192  0.52073913  1
  H+  H238  1  0.66732539  0.58512530  0.88187046  1
  H+  H239  1  0.38343962  0.84526860  0.84514364  1
  H+  H240  1  0.03799541  0.39383304  0.34345776  1
  H+  H241  1  0.09958289  0.86282427  0.67095592  1
  H+  H242  1  0.51750969  0.87220667  0.82592443  1
  H+  H243  1  0.62638134  0.60439109  0.82158353  1
  H+  H244  1  0.28250984  0.13270001  0.16132921  1
  H+  H245  1  0.36990720  0.63460466  0.48973155  1
  H+  H246  1  0.32847820  0.14514388  0.67599656  1
  H+  H247  1  0.32172872  0.13796166  0.07218238  1
  H+  H248  1  0.14675432  0.28081372  0.50228655  1
  H+  H249  1  0.68653111  0.08603358  0.23498761  1
  H+  H250  1  0.49980647  0.86970108  0.32883680  1
  H+  H251  1  0.37298254  1.00362051  0.16581743  1
  H+  H252  1  0.37293870  0.47878043  0.16240966  1
  H+  H253  1  0.89196579  0.62733093  0.51504145  1
  H+  H254  1  0.60747076  0.96235864  0.82072935  1
  H+  H255  1  0.64232586  0.51623321  0.18261147  1
  H+  H256  1  0.77169900  0.38479490  0.34687340  1
  H+  H257  1  0.87831894  0.41019741  0.16127305  1
  H+  H258  1  0.72233375  0.61673059  -0.02818866  1
  H+  H259  1  0.12068676  0.74585497  0.98816829  1
  H+  H260  1  0.14020977  0.88558783  0.02295753  1
  H+  H261  1  0.62767314  -0.00544189  0.65991239  1
  H+  H262  1  0.59643729  0.91619838  0.43654191  1
  H+  H263  1  0.61322053  0.85317924  0.67023121  1
  H+  H264  1  0.52556160  0.89289852  0.16351255  1
  H+  H265  1  0.41620343  0.32250564  0.23464743  1
  H+  H266  1  0.77554968  0.13966688  0.14811119  1
  H+  H267  1  0.82500197  0.18718189  0.63444623  1
  H+  H268  1  0.63977731  0.36329896  0.18142022  1
  H+  H269  1  0.53450693  0.13339324  0.49883811  1
  H+  H270  1  0.88753118  0.15614022  0.66032344  1
  H+  H271  1  0.15688950  0.85176115  0.53176224  1
  H+  H272  1  0.54184534  0.15217063  0.82428529  1
  H+  H273  1  0.10346074  0.90147720  0.33233999  1
  H+  H274  1  0.19694316  0.09581548  0.84736283  1
  H+  H275  1  0.23468538  0.61992257  0.32347257  1
  H+  H276  1  0.48367351  0.53351828  0.27735257  1
  H+  H277  1  0.86040765  0.88335038  0.34706693  1
  H+  H278  1  0.39522429  0.01729420  0.50112478  1
  H+  H279  1  1.00486125  0.59994662  0.34761015  1
  H+  H280  1  1.01852635  0.88476000  0.17662592  1
  H+  H281  1  0.64854656  0.10864890  0.98875565  1
  H+  H282  1  0.39036897  0.84762789  0.65973828  1
  H+  H283  1  0.60355226  0.73221370  0.15338462  1
  H+  H284  1  0.64865055  0.51812811  0.34187519  1
  H+  H285  1  0.66465329  0.49926555  0.80137077  1
  H+  H286  1  0.64846021  0.02376954  0.50747872  1
  H+  H287  1  0.39165480  0.35769142  0.17531483  1
  H+  H288  1  0.61878762  0.97958840  0.16817905  1
  H+  H289  1  0.66117653  0.83041549  0.60330869  1
  H+  H290  1  0.84760038  0.18180228  0.44460784  1
  H+  H291  1  0.42029036  0.83713738  0.23231092  1
  H+  H292  1  0.17513381  0.34575252  0.59600548  1
  H+  H293  1  0.08985646  0.70999013  0.65557367  1
  H+  H294  1  0.83156124  0.73943954  0.01475776  1
  H+  H295  1  0.12000761  0.14439595  0.49352732  1
  H+  H296  1  0.32098317  0.65293165  0.76275217  1
  H+  H297  1  0.32685287  0.15512362  0.40088957  1
  H+  H298  1  0.15827253  0.15482742  -0.00387007  1
  H+  H299  1  0.07388034  0.92473960  0.08027102  1
  H+  H300  1  0.67051651  0.07240000  0.92895472  1
  H+  H301  1  0.41764444  0.34113465  0.94508224  1
  H+  H302  1  0.94051188  0.36046683  0.56509319  1
  H+  H303  1  0.08272992  0.64798814  0.44025710  1
  H+  H304  1  0.09610569  0.42297331  0.43318723  1
  H+  H305  1  0.67564673  0.33266044  0.59555615  1
  H+  H306  1  0.02169030  0.15196309  0.81760876  1
  H+  H307  1  0.17326876  0.79930319  0.57998895  1
  H+  H308  1  0.82869422  0.41961510  0.43980398  1
  H+  H309  1  0.16928277  0.58605880  0.92026691  1
  H+  H310  1  0.58701814  0.66160531  0.44641157  1
  H+  H311  1  0.35942109  0.88285792  0.15944602  1
  H+  H312  1  0.13011782  0.66632837  -0.03482027  1
  H+  H313  1  0.40926725  0.86787359  1.00040453  1
  H+  H314  1  0.61026842  0.18753553  0.73094846  1
  H+  H315  1  0.59582091  0.92327403  0.07430290  1
  H+  H316  1  0.24102814  0.20933544  0.95611810  1
  H+  H317  1  0.57909415  0.39705148  0.41986357  1
  H+  H318  1  0.82189342  0.18807638  0.74132931  1
  H+  H319  1  0.85791843  0.42242212  0.76845162  1
  H+  H320  1  0.14653180  0.37136587  0.50196861  1
  H+  H321  1  0.92247631  0.34603853  0.28198437  1
  H+  H322  1  0.92808323  0.10014874  0.88848039  1
  H+  H323  1  0.56957242  0.67618717  0.07949405  1
  H+  H324  1  0.67637024  0.57318531  0.24431991  1
  H+  H325  1  0.91147200  0.84202816  0.56118741  1
  H+  H326  1  0.18061795  0.09302803  0.23131505  1
  H+  H327  1  0.07750815  0.15861184  0.07103352  1
  H+  H328  1  0.08760663  0.16953090  0.40029877  1
  H+  H329  1  0.91195593  0.58910229  0.27063105  1
  H+  H330  1  0.84154909  0.90623560  0.76395316  1
  H+  H331  1  0.49234251  0.37605034  0.65616421  1
  H+  H332  1  0.18545079  0.33669237  0.27446003  1
  H+  H333  1  0.42520926  0.33957021  0.56357316  1
  H+  H334  1  0.33156099  0.67053017  0.09851349  1
  H+  H335  1  0.32478208  0.15680533  0.80220722  1
  H+  H336  1  0.32529312  0.89204619  0.77457580  1
  H+  H337  1  0.20762632  0.88617987  0.97765685  1
  H+  H338  1  0.36360409  0.48108875  0.01061717  1
  H+  H339  1  0.07099295  0.93673179  0.38761208  1
  H+  H340  1  0.85817440  0.64086090  0.16873291  1
  H+  H341  1  0.39916642  0.06868607  0.22870796  1
  H+  H342  1  0.41839607  0.81915327  0.59835415  1
  H+  H343  1  0.90492107  0.82202221  0.24746336  1
  H+  H344  1  0.60562137  0.16765759  0.41470150  1
  H+  H345  1  0.60638009  0.16940380  0.10343239  1
  H+  H346  1  0.13122366  0.28848302  1.01469981  1
  H+  H347  1  0.63599759  0.86037918  0.51302353  1
  H+  H348  1  0.70987403  0.87390223  0.95457068  1
  H+  H349  1  0.33237032  0.41578579  0.76546943  1
  H+  H350  1  0.34330414  0.41943916  0.10319975  1
  H+  H351  1  0.45130958  0.07400075  0.59177965  1
  H+  H352  1  0.33230702  0.90450629  0.43261288  1
  H+  H353  1  0.62986181  0.44215785  0.71264981  1
  H+  H354  1  0.08857853  0.17882903  0.72536369  1
  H+  H355  1  0.05852811  0.43307543  0.05296717  1
  H+  H356  1  0.16742608  0.58462226  0.22959871  1
  H+  H357  1  0.12908057  0.75837883  0.88866408  1
  H+  H358  1  0.91572786  0.08380431  0.27230027  1
  H+  H359  1  0.07622499  0.67156407  0.10728929  1
  H+  H360  1  0.38003349  0.47255248  0.34122447  1
  H+  H361  1  0.13571482  0.03525248  0.31882159  1
  H+  H362  1  0.34600901  0.67076496  0.43014021  1
  H+  H363  1  0.58547544  0.40876609  0.10895902  1
  H+  H364  1  0.89899678  0.88103784  0.95280202  1
  H+  H365  1  0.42665126  0.10592264  0.92225221  1
  H+  H366  1  0.66411045  0.32764607  0.27572922  1
  H+  H367  1  0.28761365  0.19600336  0.70383380  1
  H+  H368  1  0.65862116  0.32636150  0.92228841  1
  H+  H369  1  0.38191013  0.61361011  -0.00855437  1
  H+  H370  1  0.62326050  0.72308156  0.34811990  1
  H+  H371  1  0.33736504  0.42199908  0.43133875  1
  H+  H372  1  0.37246694  0.64539330  0.33462555  1
  H+  H373  1  0.77583947  0.86639384  0.81817490  1
  H+  H374  1  0.92322133  0.31403887  0.91688668  1
  H+  H375  1  0.64811859  0.79801492  0.87840634  1
  H+  H376  1  0.41286054  0.58305055  0.93250667  1
  H+  H377  1  0.15112291  0.07181062  0.56020978  1
  H+  H378  1  0.07989256  0.89582702  0.76907873  1
  H+  H379  1  0.62491453  0.13421452  0.50510927  1
  H+  H380  1  0.67056801  0.46804116  0.03848657  1
  H+  H381  1  0.41042389  0.57228999  0.56469090  1
  H+  H382  1  0.15381065  0.83677655  0.27317934  1
  H+  H383  1  0.88327476  0.76054571  0.64367375  1
  O2-  O384  1  0.08941555  0.17003976  0.16242096  1
  O2-  O385  1  0.09355714  0.17874735  0.47902608  1
  O2-  O386  1  0.08339736  0.17528030  0.80403486  1
  O2-  O387  1  0.05844700  0.43215887  0.13645022  1
  O2-  O388  1  0.09687197  0.42539880  0.47890652  1
  O2-  O389  1  0.08811027  0.40317211  0.80897357  1
  O2-  O390  1  0.07659657  0.66937134  0.15166107  1
  O2-  O391  1  0.10011151  0.65765232  0.48388461  1
  O2-  O392  1  0.03612894  0.62415364  0.79540770  1
  O2-  O393  1  0.07741134  0.91138959  0.15943672  1
  O2-  O394  1  0.05990318  0.92302169  0.46463926  1
  O2-  O395  1  0.07711249  0.89052154  0.81419466  1
  O2-  O396  1  0.34186926  0.16007106  0.14214437  1
  O2-  O397  1  0.33336382  0.15459064  0.48114316  1
  O2-  O398  1  0.31822880  0.16166972  0.84589239  1
  O2-  O399  1  0.34690955  0.41760548  0.14924555  1
  O2-  O400  1  0.33402155  0.42213272  0.47844834  1
  O2-  O401  1  0.32729748  0.41507297  0.81089838  1
  O2-  O402  1  0.33289779  0.67153241  0.14417249  1
  O2-  O403  1  0.34278359  0.66822823  0.47558017  1
  O2-  O404  1  0.31804966  0.65180978  0.80821582  1
  O2-  O405  1  0.32613881  0.91221434  0.14583398  1
  O2-  O406  1  0.34164996  0.90989778  0.47694616  1
  O2-  O407  1  0.31885283  0.88781790  0.81929487  1
  O2-  O408  1  0.60584444  0.16753099  0.14827273  1
  O2-  O409  1  0.59709773  0.16708272  0.48875838  1
  O2-  O410  1  0.60047738  0.17779575  0.80852065  1
  O2-  O411  1  0.58534232  0.41084607  0.15404206  1
  O2-  O412  1  0.58152072  0.40083700  0.47710658  1
  O2-  O413  1  0.68415434  0.46589281  0.77607803  1
  O2-  O414  1  0.57001474  0.67383002  0.13321823  1
  O2-  O415  1  0.57716781  0.65945754  0.49135799  1
  O2-  O416  1  0.56567908  0.64683780  0.79444215  1
  O2-  O417  1  0.58695434  0.91911509  0.15127749  1
  O2-  O418  1  0.59543975  0.91735853  0.48214721  1
  O2-  O419  1  0.57652453  0.90097063  0.80676727  1
  O2-  O420  1  0.83492172  0.17249260  0.13073808  1
  O2-  O421  1  0.84663514  0.18436103  0.49015645  1
  O2-  O422  1  0.79849659  0.19385122  0.78105897  1
  O2-  O423  1  0.85982806  0.44702060  0.13889269  1
  O2-  O424  1  0.82863249  0.42382908  0.48526235  1
  O2-  O425  1  0.86062296  0.42240387  0.81356484  1
  O2-  O426  1  0.82052592  0.66642305  0.15674136  1
  O2-  O427  1  0.77114855  0.71145171  0.46293562  1
  O2-  O428  1  0.81103805  0.66960943  0.77953611  1
  O2-  O429  1  0.81635237  0.93020210  0.12659671  1
  O2-  O430  1  0.83026357  0.93331283  0.48218284  1
  O2-  O431  1  0.83774080  0.89743396  0.80870808  1
  O2-  O432  1  0.18410040  0.08514360  0.18590072  1
  O2-  O433  1  0.16422948  0.08135390  0.51577905  1
  O2-  O434  1  0.13491616  0.06471711  0.85624435  1
  O2-  O435  1  0.19226903  0.33630114  0.19457087  1
  O2-  O436  1  0.17971927  0.34301507  0.51619748  1
  O2-  O437  1  0.16473544  0.33361918  0.84688580  1
  O2-  O438  1  0.16382549  0.58534997  0.18415851  1
  O2-  O439  1  0.18136168  0.58792789  0.51171986  1
  O2-  O440  1  0.15033891  0.56612855  0.84210592  1
  O2-  O441  1  0.15937868  0.82833355  0.19326970  1
  O2-  O442  1  0.18456002  0.81725615  0.53609884  1
  O2-  O443  1  0.14386370  0.78379632  0.84689104  1
  O2-  O444  1  0.40400345  0.06686053  0.18279829  1
  O2-  O445  1  0.42626436  0.07659818  0.51841829  1
  O2-  O446  1  0.40223857  0.05626490  0.84790673  1
  O2-  O447  1  0.41722484  0.32230143  0.18950059  1
  O2-  O448  1  0.42178393  0.33133816  0.51816767  1
  O2-  O449  1  0.41196797  0.33789914  0.86382434  1
  O2-  O450  1  0.41411500  0.58748656  0.18218685  1
  O2-  O451  1  0.41148141  0.57111949  0.51827693  1
  O2-  O452  1  0.41159265  0.58065912  0.85220977  1
  O2-  O453  1  0.41524053  0.83829031  0.18736727  1
  O2-  O454  1  0.42790770  0.83133402  0.52225516  1
  O2-  O455  1  0.41877869  0.81871574  0.85605026  1
  O2-  O456  1  0.67960224  0.08177559  0.19009448  1
  O2-  O457  1  0.67625482  0.08271015  0.52572391  1
  O2-  O458  1  0.66111895  0.06778660  0.84703749  1
  O2-  O459  1  0.67324042  0.33718105  0.19875943  1
  O2-  O460  1  0.66825272  0.33088495  0.52502423  1
  O2-  O461  1  0.68991944  0.34169082  0.84474261  1
  O2-  O462  1  0.67533727  0.57597135  0.19914779  1
  O2-  O463  1  0.66388910  0.57475807  0.53624359  1
  O2-  O464  1  0.66800773  0.58639680  0.83532984  1
  O2-  O465  1  0.65721083  0.82533160  0.18815945  1
  O2-  O466  1  0.66557402  0.83088643  0.53210857  1
  O2-  O467  1  0.65613394  0.81148921  0.83513555  1
  O2-  O468  1  0.90951978  0.08550906  0.18807306  1
  O2-  O469  1  0.92889861  0.09763248  0.52268026  1
  O2-  O470  1  0.92533213  0.11601424  0.84556717  1
  O2-  O471  1  0.90877502  0.34607279  0.19964755  1
  O2-  O472  1  0.93255016  0.35547871  0.52045032  1
  O2-  O473  1  0.92486073  0.32531873  0.84797697  1
  O2-  O474  1  0.91285268  0.60038075  0.19330364  1
  O2-  O475  1  0.89769283  0.60294513  0.47705316  1
  O2-  O476  1  0.95314569  0.59410503  0.82727003  1
  O2-  O477  1  0.90600000  0.82425983  0.20110134  1
  O2-  O478  1  0.90902884  0.84877899  0.51610009  1
  O2-  O479  1  0.90473531  0.79871807  0.83823595  1
  O2-  O480  1  0.17274880  0.09727190  0.30587879  1
  O2-  O481  1  0.13423398  0.06116733  0.63845290  1
  O2-  O482  1  0.20483538  0.15127274  0.97202930  1
  O2-  O483  1  0.18274547  0.33743189  0.31968168  1
  O2-  O484  1  0.17270196  0.34984128  0.64120739  1
  O2-  O485  1  0.15788253  0.35081709  1.00778168  1
  O2-  O486  1  0.17540931  0.58258070  0.30790730  1
  O2-  O487  1  0.14744363  0.53348190  0.64370571  1
  O2-  O488  1  0.17259466  0.59602296  0.96512019  1
  O2-  O489  1  0.14385473  0.84106310  0.31727957  1
  O2-  O490  1  0.13271919  0.77368011  0.65204382  1
  O2-  O491  1  0.17989090  0.86152151  1.01644060  1
  O2-  O492  1  0.39932615  0.08051816  0.30224588  1
  O2-  O493  1  0.46509503  0.07626641  0.63664750  1
  O2-  O494  1  0.43451041  0.13861390  0.96035318  1
  O2-  O495  1  0.42262606  0.32694046  0.32002038  1
  O2-  O496  1  0.43256465  0.35166756  0.64023177  1
  O2-  O497  1  0.41018304  0.33263067  0.98967143  1
  O2-  O498  1  0.45676111  0.56050889  0.30015994  1
  O2-  O499  1  0.41417608  0.57825151  0.63811348  1
  O2-  O500  1  0.41478940  0.58496198  0.97799398  1
  O2-  O501  1  0.43777006  0.84037399  0.31488180  1
  O2-  O502  1  0.41539841  0.81300287  0.64407324  1
  O2-  O503  1  0.43495338  0.83628279  0.98230555  1
  O2-  O504  1  0.69235855  0.08419088  0.31906983  1
  O2-  O505  1  0.66898672  0.05432958  0.64809869  1
  O2-  O506  1  0.67755255  0.07688560  0.97393243  1
  O2-  O507  1  0.66100331  0.32597323  0.32150396  1
  O2-  O508  1  0.67857767  0.33694571  0.64249566  1
  O2-  O509  1  0.65042877  0.31795073  0.96715553  1
  O2-  O510  1  0.68118840  0.57716449  0.32584456  1
  O2-  O511  1  0.67609364  0.57030963  0.60266733  1
  O2-  O512  1  0.66440902  0.58366577  0.95284526  1
  O2-  O513  1  0.66738056  0.82276215  0.31554377  1
  O2-  O514  1  0.65901007  0.82736716  0.65026915  1
  O2-  O515  1  0.68803711  0.84554484  0.99359794  1
  O2-  O516  1  0.91823271  0.08205313  0.31728872  1
  O2-  O517  1  0.92274778  0.09083624  0.64402553  1
  O2-  O518  1  0.93611065  0.07926161  0.96719103  1
  O2-  O519  1  0.92969266  0.34677073  0.32681780  1
  O2-  O520  1  0.95997581  0.36882066  0.64853028  1
  O2-  O521  1  0.92402081  0.31138583  0.96388534  1
  O2-  O522  1  0.91116029  0.58155936  0.31575683  1
  O2-  O523  1  0.84781935  0.64788049  0.64582166  1
  O2-  O524  1  0.93055399  0.55349023  0.99995254  1
  O2-  O525  1  0.90994733  0.82584501  0.32092498  1
  O2-  O526  1  0.91050926  0.82399362  0.63807487  1
  O2-  O527  1  0.90875867  0.91193235  0.99183320  1
  O2-  O528  1  0.08641482  0.17056527  0.02736010  1
  O2-  O529  1  0.08642580  0.16895453  0.35469341  1
  O2-  O530  1  0.08988399  0.18024384  0.67981399  1
  O2-  O531  1  0.06713238  0.42592071  0.00931687  1
  O2-  O532  1  0.09962310  0.42055540  0.35625911  1
  O2-  O533  1  0.11613354  0.45305319  0.67809534  1
  O2-  O534  1  0.09659093  0.69641448  -0.04013243  1
  O2-  O535  1  0.05052000  0.59477817  0.37046828  1
  O2-  O536  1  0.03275176  0.60187870  0.67149295  1
  O2-  O537  1  0.08365089  0.93425899  0.03581281  1
  O2-  O538  1  0.07448563  0.93605424  0.34231314  1
  O2-  O539  1  0.07351683  0.89559014  0.68742084  1
  O2-  O540  1  0.30256457  0.11181935  0.02962741  1
  O2-  O541  1  0.32834693  0.15989112  0.35541176  1
  O2-  O542  1  0.30624489  0.18313273  0.66549167  1
  O2-  O543  1  0.33309031  0.42260292  0.02941554  1
  O2-  O544  1  0.34336519  0.41580571  0.36173582  1
  O2-  O545  1  0.33681241  0.41979262  0.68719085  1
  O2-  O546  1  0.33215622  0.66724902  0.01950184  1
  O2-  O547  1  0.34446894  0.67545350  0.35133883  1
  O2-  O548  1  0.31511246  0.64260280  0.68358860  1
  O2-  O549  1  0.33361141  0.91153844  0.07811689  1
  O2-  O550  1  0.33385255  0.91467264  0.34526926  1
  O2-  O551  1  0.35817016  0.91861682  0.69070827  1
  O2-  O552  1  0.59467613  0.15933891  0.01728220  1
  O2-  O553  1  0.60402488  0.16404781  0.36855786  1
  O2-  O554  1  0.62337903  0.19434142  0.68624557  1
  O2-  O555  1  0.61198733  0.42477998  0.02737778  1
  O2-  O556  1  0.57837373  0.39775396  0.36637415  1
  O2-  O557  1  0.60429581  0.42224211  0.67034029  1
  O2-  O558  1  0.57157686  0.67530882  0.02301164  1
  O2-  O559  1  0.59499735  0.66344946  0.36583977  1
  O2-  O560  1  0.58558143  0.66142817  0.67448116  1
  O2-  O561  1  0.59927644  0.91874964  0.02881951  1
  O2-  O562  1  0.59846078  0.91727049  0.35791371  1
  O2-  O563  1  0.57028178  0.88347959  0.68883180  1
  O2-  O564  1  0.84575623  0.15501282  0.00702685  1
  O2-  O565  1  0.85267522  0.17712412  0.36666956  1
  O2-  O566  1  0.86432347  0.19671171  0.66805819  1
  O2-  O567  1  0.80545208  0.38107959  0.01433503  1
  O2-  O568  1  0.83164109  0.41848126  0.36214467  1
  O2-  O569  1  0.85898881  0.43237862  0.68643428  1
  O2-  O570  1  0.82577473  0.68458262  0.00087123  1
  O2-  O571  1  0.84631541  0.66636221  0.38343603  1
  O2-  O572  1  0.83766604  0.60713395  0.76004236  1
  O2-  O573  1  0.83970005  0.84684446  0.03188181  1
  O2-  O574  1  0.82966594  0.91436668  0.35923831  1
  O2-  O575  1  0.84271609  0.92048265  0.68251781  1
