# generated using pymatgen
data_H2O
_symmetry_space_group_name_H-M   'P 1'
_cell_length_a   17.98542997
_cell_length_b   17.97989875
_cell_length_c   21.99964671
_cell_angle_alpha   89.97298169
_cell_angle_beta   90.02061200
_cell_angle_gamma   119.96965282
_symmetry_Int_Tables_number   1
_chemical_formula_structural   H2O
_chemical_formula_sum   'H384 O192'
_cell_volume   6162.92776467
_cell_formula_units_Z   192
loop_
 _symmetry_equiv_pos_site_id
 _symmetry_equiv_pos_as_xyz
  1  'x, y, z'
loop_
 _atom_type_symbol
 _atom_type_oxidation_number
  H+  1.0
  O2-  -2.0
loop_
 _atom_site_type_symbol
 _atom_site_label
 _atom_site_symmetry_multiplicity
 _atom_site_fract_x
 _atom_site_fract_y
 _atom_site_fract_z
 _atom_site_occupancy
  H+  H0  1  0.40354252  0.85182737  0.46287453  1
  H+  H1  1  0.97919442  0.86281212  0.83366312  1
  H+  H2  1  0.14056065  0.78076962  0.17747658  1
  H+  H3  1  0.35373213  0.61944760  0.99329779  1
  H+  H4  1  0.97568733  0.60906754  0.98908239  1
  H+  H5  1  0.15274577  0.52655533  0.50787175  1
  H+  H6  1  -0.01413077  0.12209814  0.83906407  1
  H+  H7  1  0.14581799  0.01633311  0.66343218  1
  H+  H8  1  0.59769303  0.37784256  0.50654770  1
  H+  H9  1  0.35173302  0.47691698  0.15840247  1
  H+  H10  1  0.13352863  0.36178997  0.98781405  1
  H+  H11  1  0.11075677  0.63624340  0.67420935  1
  H+  H12  1  0.37192003  0.50870770  0.98358676  1
  H+  H13  1  0.27247258  0.89136303  0.67132451  1
  H+  H14  1  0.11369821  0.88219285  0.83180707  1
  H+  H15  1  0.88590344  0.07672343  0.58321784  1
  H+  H16  1  0.89046550  0.26949087  0.83176410  1
  H+  H17  1  0.62049321  0.97472058  0.00049680  1
  H+  H18  1  0.72989020  0.11211344  0.52292652  1
  H+  H19  1  0.90605111  1.03844339  0.49442286  1
  H+  H20  1  0.52142627  0.38796618  0.00387703  1
  H+  H21  1  0.26235399  0.89114406  0.01757025  1
  H+  H22  1  0.41926286  1.07885718  0.51470474  1
  H+  H23  1  0.61517309  0.91640426  0.16748446  1
  H+  H24  1  0.90416638  0.37275505  0.51239063  1
  H+  H25  1  0.14090621  0.27303031  0.83832248  1
  H+  H26  1  0.53746701  0.15145805  0.82750015  1
  H+  H27  1  -0.00147541  0.12462404  0.50319190  1
  H+  H28  1  0.14371616  0.27188087  0.51048674  1
  H+  H29  1  1.02726296  0.64062878  0.16815213  1
  H+  H30  1  1.03027426  0.65274785  0.67251793  1
  H+  H31  1  0.13581386  0.14242114  0.48659596  1
  H+  H32  1  0.87601872  0.90279382  -0.00890985  1
  H+  H33  1  0.13246841  0.76903924  0.84315173  1
  H+  H34  1  0.36247198  0.75258264  0.16578742  1
  H+  H35  1  0.89015634  0.85528557  0.32974124  1
  H+  H36  1  0.72703125  0.35802199  0.16431682  1
  H+  H37  1  0.14098317  0.03008829  0.99672176  1
  H+  H38  1  0.64035315  0.36151544  0.16613273  1
  H+  H39  1  0.36756144  0.14400459  0.16613017  1
  H+  H40  1  0.21488685  0.60610537  -0.00810171  1
  H+  H41  1  0.87561081  0.14218935  0.82044204  1
  H+  H42  1  0.57076266  0.40229000  0.77592303  1
  H+  H43  1  0.12098349  0.23560849  0.00324883  1
  H+  H44  1  0.38246494  0.36121924  -0.00393554  1
  H+  H45  1  0.13105623  0.73333672  0.34451904  1
  H+  H46  1  0.36621573  0.93346223  0.52038560  1
  H+  H47  1  0.36451450  0.61877590  0.16964681  1
  H+  H48  1  0.87364033  0.37405947  0.67802866  1
  H+  H49  1  0.22859077  0.36389321  0.17741590  1
  H+  H50  1  0.86895252  0.48248767  0.34834312  1
  H+  H51  1  0.12125874  0.13721884  0.83194887  1
  H+  H52  1  0.63984407  0.34269232  0.41711353  1
  H+  H53  1  0.63039198  0.77761199  0.32665232  1
  H+  H54  1  0.57649495  0.42525061  0.43418611  1
  H+  H55  1  1.01578959  0.12698488  0.35878436  1
  H+  H56  1  0.38953142  1.02580592  0.68991395  1
  H+  H57  1  0.74039292  0.12023935  0.83605414  1
  H+  H58  1  0.36086846  0.47985665  0.33860480  1
  H+  H59  1  0.93129625  0.05592581  0.29090240  1
  H+  H60  1  0.38451200  0.73330824  0.49208351  1
  H+  H61  1  0.90437251  0.28443044  0.50926213  1
  H+  H62  1  0.78798438  0.39931182  0.50389729  1
  H+  H63  1  0.61720213  0.90167082  0.34666891  1
  H+  H64  1  0.60312487  0.94125306  0.44901313  1
  H+  H65  1  0.12032350  0.98561234  0.16384123  1
  H+  H66  1  0.22153819  0.85869766  0.84446492  1
  H+  H67  1  0.92338741  0.84066428  0.89383714  1
  H+  H68  1  0.61623348  0.47149513  0.15201021  1
  H+  H69  1  0.62825196  0.12855527  0.16850457  1
  H+  H70  1  0.35449339  0.97383279  0.82469122  1
  H+  H71  1  0.46928421  0.60182507  0.82894440  1
  H+  H72  1  0.89902728  0.75232146  0.15555840  1
  H+  H73  1  0.11201775  0.47910377  0.17858559  1
  H+  H74  1  0.88384247  0.60804018  0.83547137  1
  H+  H75  1  0.61750063  -0.02175541  0.67714116  1
  H+  H76  1  0.64861738  0.45663149  0.34415974  1
  H+  H77  1  0.38341459  0.36380936  0.84154012  1
  H+  H78  1  0.87212521  0.64177644  -0.00725209  1
  H+  H79  1  0.90787510  0.53674304  0.51136319  1
  H+  H80  1  0.15080288  0.86047044  0.33552603  1
  H+  H81  1  0.27682595  0.64526510  0.34819108  1
  H+  H82  1  0.14154204  0.10227332  0.66459584  1
  H+  H83  1  0.90714082  0.62031232  0.33618252  1
  H+  H84  1  0.23887720  0.37500712  0.32811906  1
  H+  H85  1  0.89823018  0.03434571  0.83605343  1
  H+  H86  1  0.38761450  0.11542072  0.69135779  1
  H+  H87  1  0.49142252  0.87728762  0.49843551  1
  H+  H88  1  0.78700698  0.38048087  0.67287266  1
  H+  H89  1  1.04092342  0.64266409  0.34784327  1
  H+  H90  1  0.39826115  0.76295203  0.32770565  1
  H+  H91  1  0.38647062  0.87894042  0.18130359  1
  H+  H92  1  0.38860720  0.50735067  0.50805032  1
  H+  H93  1  0.50945040  0.16692476  0.32951827  1
  H+  H94  1  0.48434890  0.38272667  0.50067214  1
  H+  H95  1  0.77460350  0.14412841  0.67279749  1
  H+  H96  1  0.00756009  0.97839630  0.55218234  1
  H+  H97  1  0.56603843  0.57493314  0.19666389  1
  H+  H98  1  0.02534948  0.38091155  0.82722492  1
  H+  H99  1  0.95356584  0.88728290  0.58245146  1
  H+  H100  1  0.86240950  0.72386873  0.82774556  1
  H+  H101  1  0.88734912  0.91547689  0.50260455  1
  H+  H102  1  0.38016149  0.35961211  0.65502976  1
  H+  H103  1  0.64291703  0.37238238  0.84409200  1
  H+  H104  1  0.63460639  0.35744997  0.66244208  1
  H+  H105  1  0.12909471  0.51881942  0.84327332  1
  H+  H106  1  0.02128422  0.63699908  0.82458579  1
  H+  H107  1  0.63292901  0.77245266  -0.00191577  1
  H+  H108  1  0.82185703  0.16159880  0.26622951  1
  H+  H109  1  0.99446825  0.12748130  1.00656756  1
  H+  H110  1  0.12207945  0.88157972  0.67243503  1
  H+  H111  1  0.38532935  0.35959149  0.50622219  1
  H+  H112  1  0.22924419  0.87001641  0.17810864  1
  H+  H113  1  0.57206368  0.65400263  0.75471426  1
  H+  H114  1  1.02143281  0.37703900  0.99377697  1
  H+  H115  1  0.36390632  -0.01672783  0.16656664  1
  H+  H116  1  0.24217402  0.61468707  0.51200538  1
  H+  H117  1  0.10304079  0.12594884  0.34895031  1
  H+  H118  1  0.80167037  0.63569965  0.33853846  1
  H+  H119  1  0.85823233  0.24005564  0.16405057  1
  H+  H120  1  0.32446457  0.41158755  0.43821486  1
  H+  H121  1  0.14456070  0.52787008  0.33872454  1
  H+  H122  1  0.08233220  0.40856411  0.76701436  1
  H+  H123  1  0.20504572  0.34052665  0.66326137  1
  H+  H124  1  0.60913906  0.47716834  0.82757309  1
  H+  H125  1  0.22378389  0.62340757  0.18834482  1
  H+  H126  1  0.53200104  0.14692704  0.68921052  1
  H+  H127  1  0.50924583  0.62471411  0.67077659  1
  H+  H128  1  0.88781575  0.36560040  0.33602907  1
  H+  H129  1  0.12179195  0.38709708  0.49626392  1
  H+  H130  1  0.22847167  0.11253003  0.84128809  1
  H+  H131  1  0.60851729  0.69260715  0.53228848  1
  H+  H132  1  0.72048284  0.57214930  0.18431731  1
  H+  H133  1  0.71279577  0.78117154  0.86847880  1
  H+  H134  1  0.48418496  0.12428618  0.17023117  1
  H+  H135  1  0.64647353  0.23190433  0.49274642  1
  H+  H136  1  0.57921610  0.90989499  0.73164397  1
  H+  H137  1  0.13784925  0.36175263  0.83717819  1
  H+  H138  1  0.63648265  0.52499441  0.99188582  1
  H+  H139  1  0.52441328  0.49223145  0.23896151  1
  H+  H140  1  0.51824463  0.13353736  0.50646915  1
  H+  H141  1  0.83693644  0.75228958  0.67673461  1
  H+  H142  1  0.38202513  0.11641802  0.99224999  1
  H+  H143  1  0.14297358  0.37513708  0.32953232  1
  H+  H144  1  0.88511477  0.64580714  0.48649994  1
  H+  H145  1  0.85568763  0.66985606  0.40287962  1
  H+  H146  1  0.83442461  0.90667789  0.40830423  1
  H+  H147  1  0.38802997  0.24253397  0.48350904  1
  H+  H148  1  0.60569547  0.99838354  0.15988120  1
  H+  H149  1  0.40559075  0.29142351  0.32573282  1
  H+  H150  1  0.34159770  0.90982410  0.42513885  1
  H+  H151  1  0.47986891  0.85733948  0.99362058  1
  H+  H152  1  0.65500183  0.12439646  0.84264793  1
  H+  H153  1  0.22921379  0.12012745  0.17882217  1
  H+  H154  1  1.03082697  0.38823600  0.34489296  1
  H+  H155  1  0.60956735  0.23275588  0.15846554  1
  H+  H156  1  0.86898318  0.22798320  0.00313829  1
  H+  H157  1  0.14491993  0.61895354  0.34017541  1
  H+  H158  1  0.36343134  0.39348492  0.16085397  1
  H+  H159  1  0.57811177  0.62761428  0.29453909  1
  H+  H160  1  0.48637216  0.61796270  0.15430622  1
  H+  H161  1  0.60291234  0.24183801  0.33745778  1
  H+  H162  1  0.49696935  0.86323484  0.32818630  1
  H+  H163  1  0.67658442  0.92259021  0.52796959  1
  H+  H164  1  0.70284677  0.11856549  0.32418674  1
  H+  H165  1  0.77247206  0.63602062  0.82766927  1
  H+  H166  1  0.50644581  0.79745949  0.79633263  1
  H+  H167  1  0.87966356  0.12835523  0.15401067  1
  H+  H168  1  0.62219959  0.85264198  0.66798975  1
  H+  H169  1  0.13013699  0.77133446  0.99818245  1
  H+  H170  1  1.03569855  0.39304880  0.49594851  1
  H+  H171  1  0.98654656  0.87806455  0.17350286  1
  H+  H172  1  0.60253444  -0.01615689  0.34108546  1
  H+  H173  1  0.84322276  0.16920909  0.75961992  1
  H+  H174  1  0.99022629  0.86985058  0.66576013  1
  H+  H175  1  0.26708117  0.38201135  0.49997051  1
  H+  H176  1  0.91030081  0.09165822  0.20616732  1
  H+  H177  1  0.13704491  0.89126229  0.50110495  1
  H+  H178  1  0.42329674  0.08607755  0.77742986  1
  H+  H179  1  0.32877369  0.92223385  0.10764652  1
  H+  H180  1  0.38768094  0.12110381  0.82664863  1
  H+  H181  1  0.14057606  0.11989762  0.17725607  1
  H+  H182  1  0.03045104  0.87791068  0.34440875  1
  H+  H183  1  0.10727123  0.46760744  0.99756648  1
  H+  H184  1  0.13199853  0.64441467  0.50056791  1
  H+  H185  1  0.11876894  0.89540907  0.16436451  1
  H+  H186  1  0.76421221  0.15216493  0.16098281  1
  H+  H187  1  0.15384202  0.79467134  0.51365753  1
  H+  H188  1  0.89766312  0.12867519  1.00835391  1
  H+  H189  1  0.38480091  0.64345418  0.49458938  1
  H+  H190  1  0.64258446  0.14146502  0.49765681  1
  H+  H191  1  0.85798134  0.89369458  0.16002497  1
  H+  H192  1  0.88593290  1.00962588  0.66501251  1
  H+  H193  1  0.46083518  0.59806007  -0.01914487  1
  H+  H194  1  0.75618184  0.96680718  0.57480241  1
  H+  H195  1  0.92435675  0.90349302  0.66660729  1
  H+  H196  1  0.79708230  0.91763718  0.50510381  1
  H+  H197  1  0.65420550  0.61253415  0.65558829  1
  H+  H198  1  0.78198230  0.39003313  0.82469023  1
  H+  H199  1  0.59962677  0.85004702  0.82475774  1
  H+  H200  1  0.47842184  0.36782055  0.16972675  1
  H+  H201  1  0.76934040  0.87524350  0.35065840  1
  H+  H202  1  0.63661296  0.86350871  0.99829086  1
  H+  H203  1  0.19157861  0.09320811  0.41960997  1
  H+  H204  1  0.77347157  0.40184100  0.35729326  1
  H+  H205  1  0.86504310  0.47290611  0.99897610  1
  H+  H206  1  0.36449757  0.23007272  1.00999375  1
  H+  H207  1  0.88914749  0.27814056  0.32491558  1
  H+  H208  1  0.65674030  0.53833273  0.50520406  1
  H+  H209  1  0.12944423  0.01156148  0.33387316  1
  H+  H210  1  0.98778639  0.87565435  0.98993588  1
  H+  H211  1  0.49509281  0.37598104  0.32594198  1
  H+  H212  1  0.39305780  0.65878730  0.81559026  1
  H+  H213  1  0.60092316  0.71257996  0.81585305  1
  H+  H214  1  0.42572302  0.34482604  0.23300138  1
  H+  H215  1  0.34398653  0.46290344  0.67162688  1
  H+  H216  1  0.58559101  0.68674401  0.14629327  1
  H+  H217  1  0.62060231  0.23393936  0.67205268  1
  H+  H218  1  0.35645959  0.88643657  0.83389818  1
  H+  H219  1  0.72648384  0.36901828  0.99446617  1
  H+  H220  1  0.80606694  0.68665153  0.73149847  1
  H+  H221  1  0.88635944  0.57698540  0.66152661  1
  H+  H222  1  0.61473763  0.12116211  0.32147028  1
  H+  H223  1  0.22992451  0.11903821  0.99680844  1
  H+  H224  1  0.12761484  0.60707174  0.84242918  1
  H+  H225  1  0.11343978  0.63827700  0.17193623  1
  H+  H226  1  0.35734018  0.47018928  0.81924692  1
  H+  H227  1  0.49762190  0.35035720  0.68046146  1
  H+  H228  1  0.37590798  0.14743322  0.27950570  1
  H+  H229  1  0.70172099  0.59466219  0.56506662  1
  H+  H230  1  0.35712303  0.22409220  0.66958298  1
  H+  H231  1  0.88300543  0.35455464  -0.01524606  1
  H+  H232  1  0.57474917  0.17455153  0.09646486  1
  H+  H233  1  0.01923061  0.09784733  0.69081282  1
  H+  H234  1  0.47796028  0.88117184  0.17619824  1
  H+  H235  1  0.11612554  0.97270459  0.82922619  1
  H+  H236  1  0.66429299  0.58664134  0.35605299  1
  H+  H237  1  0.14619361  0.78006125  0.65713754  1
  H+  H238  1  0.29746719  0.85316814  0.36845700  1
  H+  H239  1  0.89989948  0.78558158  0.98543090  1
  H+  H240  1  0.62726685  0.00514381  0.51037278  1
  H+  H241  1  0.38408684  0.74405215  0.82270072  1
  H+  H242  1  0.89026578  0.35947890  0.83475650  1
  H+  H243  1  0.64618445  0.28494798  0.84422756  1
  H+  H244  1  0.85757156  -0.01978329  0.14478273  1
  H+  H245  1  0.16434029  0.02593236  0.47283154  1
  H+  H246  1  0.73611077  0.89179687  0.18017769  1
  H+  H247  1  0.64099639  0.11689008  0.66579175  1
  H+  H248  1  0.46737134  0.86527143  0.84757318  1
  H+  H249  1  0.10855833  0.63271208  0.00778501  1
  H+  H250  1  0.34228645  0.71658029  0.65873704  1
  H+  H251  1  0.85285656  0.12431131  0.31844473  1
  H+  H252  1  0.62921470  0.60901450  0.83139946  1
  H+  H253  1  0.49940452  0.56906621  0.44904159  1
  H+  H254  1  0.83677081  0.17412547  0.44004719  1
  H+  H255  1  0.72457958  0.61546422  0.98981160  1
  H+  H256  1  0.43599205  0.08702250  0.23282879  1
  H+  H257  1  0.87417839  0.89365325  0.82125961  1
  H+  H258  1  0.36747230  0.60619187  0.66175909  1
  H+  H259  1  0.89633977  1.03010529  -0.00242655  1
  H+  H260  1  0.47381396  0.36514549  0.84596650  1
  H+  H261  1  0.70597396  0.59630743  0.16362803  1
  H+  H262  1  0.11297564  0.39087739  0.17564285  1
  H+  H263  1  0.87159551  0.23344398  0.67048454  1
  H+  H264  1  0.39208770  0.76736401  -0.00831544  1
  H+  H265  1  0.13825209  0.27488817  0.17909556  1
  H+  H266  1  0.86306580  0.47050697  0.15249340  1
  H+  H267  1  0.10202569  0.45741297  0.67561267  1
  H+  H268  1  0.88948250  0.62005906  0.17421413  1
  H+  H269  1  0.12168086  0.14521512  1.00652165  1
  H+  H270  1  0.36939339  0.39535317  0.33995090  1
  H+  H271  1  0.21612373  0.60351321  0.66812730  1
  H+  H272  1  0.65346434  0.73020269  0.53428414  1
  H+  H273  1  0.26826023  0.90875451  0.50940125  1
  H+  H274  1  -0.01874646  0.36923371  0.18065641  1
  H+  H275  1  0.36601580  0.23241292  0.16465178  1
  H+  H276  1  0.88475471  0.14976417  0.49021368  1
  H+  H277  1  0.46173515  0.61329816  0.31492193  1
  H+  H278  1  0.09723894  0.18192049  0.09967479  1
  H+  H279  1  0.63970795  0.81621106  0.18316850  1
  H+  H280  1  0.78878790  0.89925432  0.81759194  1
  H+  H281  1  0.60046355  0.62770282  -0.00152301  1
  H+  H282  1  0.87104763  0.00150929  0.34363497  1
  H+  H283  1  1.00729439  0.36685168  0.67692668  1
  H+  H284  1  0.61334212  0.39084925  0.00314399  1
  H+  H285  1  0.73303178  0.09914617  0.98914982  1
  H+  H286  1  0.02725118  0.15075355  0.15131868  1
  H+  H287  1  0.37385927  0.61282837  0.32671602  1
  H+  H288  1  0.41853284  0.33519898  0.59622744  1
  H+  H289  1  0.09417358  0.17217830  0.43654599  1
  H+  H290  1  0.09190876  0.16371740  0.77089946  1
  H+  H291  1  0.55371983  0.63921146  0.05574722  1
  H+  H292  1  0.67793431  0.07376869  0.92792945  1
  H+  H293  1  0.39155552  0.58590254  0.22958466  1
  H+  H294  1  0.84040249  0.42282425  0.44206573  1
  H+  H295  1  0.67474237  0.82502448  0.90889725  1
  H+  H296  1  0.16793833  0.33142359  0.92989655  1
  H+  H297  1  0.17033596  0.08260438  0.90159518  1
  H+  H298  1  0.35193050  0.97883501  0.01565593  1
  H+  H299  1  0.34681853  0.68157278  0.72538140  1
  H+  H300  1  0.58014958  0.41430845  0.09231049  1
  H+  H301  1  0.93219562  0.61471642  0.59898038  1
  H+  H302  1  0.86151148  0.68396288  0.05257301  1
  H+  H303  1  0.60305097  0.18580668  0.77261984  1
  H+  H304  1  0.29583606  0.70217452  0.11369613  1
  H+  H305  1  0.92373400  0.83836803  0.23129507  1
  H+  H306  1  0.78639448  0.90211750  -0.00284206  1
  H+  H307  1  0.34405688  0.67411839  0.40488037  1
  H+  H308  1  0.16735287  0.58953899  0.24882043  1
  H+  H309  1  0.81375372  0.66678752  0.14118686  1
  H+  H310  1  0.55925420  0.27795501  0.52074240  1
  H+  H311  1  0.38571649  0.82165704  0.58127468  1
  H+  H312  1  0.93343626  0.58482163  0.27842880  1
  H+  H313  1  0.51978568  0.29048173  0.71834956  1
  H+  H314  1  0.36060654  0.23262501  0.82873023  1
  H+  H315  1  0.33568589  0.16971979  0.06925133  1
  H+  H316  1  0.66726032  0.08609468  0.60383394  1
  H+  H317  1  0.88830001  0.52022110  0.83352069  1
  H+  H318  1  0.91713623  0.34256678  0.23741845  1
  H+  H319  1  0.09043763  0.19857418  0.67471379  1
  H+  H320  1  0.97120408  -0.00650115  0.23327114  1
  H+  H321  1  0.39190850  0.57048841  0.60343082  1
  H+  H322  1  0.54935940  0.51660499  0.44336756  1
  H+  H323  1  0.17955934  0.83427594  0.27530594  1
  H+  H324  1  0.59796507  0.71541881  0.67102828  1
  H+  H325  1  0.26987163  0.13118855  0.67349703  1
  H+  H326  1  0.65903208  0.58437552  0.89391291  1
  H+  H327  1  0.16394203  0.57675890  0.60700108  1
  H+  H328  1  0.10399476  0.67564510  0.44146527  1
  H+  H329  1  0.65803908  0.56633077  0.28676474  1
  H+  H330  1  0.65696582  0.34003301  0.59684978  1
  H+  H331  1  0.26406364  0.37970607  0.00260147  1
  H+  H332  1  0.16443411  0.08140394  0.28082479  1
  H+  H333  1  0.32669416  0.90663808  0.73233331  1
  H+  H334  1  0.16132010  0.32644477  0.57173544  1
  H+  H335  1  0.86821649  0.38505193  0.15731325  1
  H+  H336  1  0.36868340  0.19349033  0.40128708  1
  H+  H337  1  0.83132253  0.54053986  0.21470277  1
  H+  H338  1  0.05525618  0.91138897  0.49903137  1
  H+  H339  1  0.32399884  0.41288825  0.06255284  1
  H+  H340  1  0.67226195  0.83658759  0.61603787  1
  H+  H341  1  0.08495639  0.67023942  0.76710258  1
  H+  H342  1  0.67252266  0.85240526  0.27739611  1
  H+  H343  1  0.83772020  0.41246301  0.05803737  1
  H+  H344  1  0.91154079  0.32192422  0.92562400  1
  H+  H345  1  0.33673992  0.64741585  0.05707601  1
  H+  H346  1  0.35756155  0.84794263  0.64325700  1
  H+  H347  1  0.91853529  0.57903092  0.92747027  1
  H+  H348  1  0.58441376  0.92326323  0.06373702  1
  H+  H349  1  1.00074063  0.04139654  0.23332441  1
  H+  H350  1  0.26958592  0.38028685  0.82446882  1
  H+  H351  1  0.41121160  0.83537203  0.90833043  1
  H+  H352  1  0.09187781  0.91013057  0.73399156  1
  H+  H353  1  0.42862345  0.83011680  0.26316915  1
  H+  H354  1  0.08966552  0.92496010  0.06726177  1
  H+  H355  1  0.32301720  0.40265705  0.72959942  1
  H+  H356  1  0.11755008  0.34362076  0.66364664  1
  H+  H357  1  0.30351863  0.14941456  0.47128867  1
  H+  H358  1  0.32856828  0.17475982  0.76735920  1
  H+  H359  1  0.79336695  0.64056834  0.48639236  1
  H+  H360  1  0.09191923  0.41474221  0.40450390  1
  H+  H361  1  0.07904288  0.66226750  0.06762097  1
  H+  H362  1  0.09236790  0.90919621  0.40411571  1
  H+  H363  1  0.11710436  0.89208197  0.00806169  1
  H+  H364  1  0.16150032  0.82995837  0.93837134  1
  H+  H365  1  0.60628746  0.23743711  1.00884056  1
  H+  H366  1  0.89201407  0.97459007  0.73167210  1
  H+  H367  1  0.41048085  0.08273046  0.93460234  1
  H+  H368  1  0.99879424  0.62451561  0.50900146  1
  H+  H369  1  0.47731178  0.57671798  0.54068439  1
  H+  H370  1  0.65246024  0.09667000  0.23035715  1
  H+  H371  1  0.66935012  0.34329625  0.93448632  1
  H+  H372  1  0.40613074  0.57349943  0.88706069  1
  H+  H373  1  0.89771058  0.77042876  0.32615285  1
  H+  H374  1  0.15310158  0.57880018  0.93352962  1
  H+  H375  1  0.56141840  0.62341812  0.36601482  1
  H+  H376  1  0.84441483  0.09836024  0.64134884  1
  H+  H377  1  0.17374108  0.34152607  0.26396329  1
  H+  H378  1  0.84000701  0.41231126  0.76312229  1
  H+  H379  1  0.83753753  0.17640814  0.06699919  1
  H+  H380  1  0.17384941  0.84401617  0.59579298  1
  H+  H381  1  0.51910586  0.14659980  0.00752395  1
  H+  H382  1  0.41251834  0.33196791  0.93678918  1
  H+  H383  1  0.92435013  0.33127982  0.61324108  1
  O2-  O384  1  0.09033206  0.17915250  0.14515580  1
  O2-  O385  1  0.10192838  0.17236870  0.48262029  1
  O2-  O386  1  0.09465751  0.17080376  0.81628534  1
  O2-  O387  1  0.07928971  0.41863867  0.16494050  1
  O2-  O388  1  0.09586935  0.42033650  0.47845141  1
  O2-  O389  1  0.08634688  0.41188621  0.81286997  1
  O2-  O390  1  0.08577010  0.66917713  0.15247050  1
  O2-  O391  1  0.10104693  0.67427929  0.48661541  1
  O2-  O392  1  0.08327690  0.66911437  0.81282963  1
  O2-  O393  1  0.08907865  0.92550959  0.14746853  1
  O2-  O394  1  0.10815489  0.92415242  0.47692252  1
  O2-  O395  1  0.08484223  0.91254334  0.81361445  1
  O2-  O396  1  0.33513731  0.17166260  0.15055612  1
  O2-  O397  1  0.36577251  0.18657989  0.46124293  1
  O2-  O398  1  0.33012454  0.17219592  0.81307352  1
  O2-  O399  1  0.32668149  0.41643687  0.14486541  1
  O2-  O400  1  0.32772483  0.41203023  0.48314069  1
  O2-  O401  1  0.32999057  0.40796063  0.80793203  1
  O2-  O402  1  0.32404609  0.69265959  0.14836886  1
  O2-  O403  1  0.35196826  0.67045928  0.48013118  1
  O2-  O404  1  0.39780875  0.70972336  0.79391394  1
  O2-  O405  1  0.33345137  0.92174203  0.15436278  1
  O2-  O406  1  0.33182583  0.94840530  0.49437268  1
  O2-  O407  1  0.32251754  0.91142686  0.81522756  1
  O2-  O408  1  0.57488102  0.17124092  0.14345275  1
  O2-  O409  1  0.62378620  0.17731474  0.47149577  1
  O2-  O410  1  0.59976347  0.18504574  0.81830067  1
  O2-  O411  1  0.57937579  0.41227530  0.13867592  1
  O2-  O412  1  0.56978163  0.44450979  0.47433134  1
  O2-  O413  1  0.57749810  0.41347855  0.82055123  1
  O2-  O414  1  0.54355503  0.62665462  0.13916662  1
  O2-  O415  1  0.53271214  0.55554146  0.42039891  1
  O2-  O416  1  0.57169528  0.65262531  0.80195391  1
  O2-  O417  1  0.57729200  0.93556863  0.14893619  1
  O2-  O418  1  0.59681189  0.93783462  0.49333190  1
  O2-  O419  1  0.55365078  0.85639769  0.80635516  1
  O2-  O420  1  0.82607893  0.17933724  0.14834616  1
  O2-  O421  1  0.85098170  0.17991667  0.48301816  1
  O2-  O422  1  0.84442053  0.17235944  0.80531158  1
  O2-  O423  1  0.83645324  0.41125754  0.13704890  1
  O2-  O424  1  0.84594916  0.42472661  0.48745684  1
  O2-  O425  1  0.84208058  0.41723274  0.80978270  1
  O2-  O426  1  0.87592310  0.69267914  0.13627589  1
  O2-  O427  1  0.85235020  0.67028913  0.46658318  1
  O2-  O428  1  0.83266322  0.66350759  0.81276818  1
  O2-  O429  1  0.82100055  0.91723202  0.14747888  1
  O2-  O430  1  0.84917097  0.93097637  0.47930047  1
  O2-  O431  1  0.84941530  0.92911319  0.80541634  1
  O2-  O432  1  0.16867063  0.08847063  0.19348613  1
  O2-  O433  1  0.19428962  0.09055006  0.46406389  1
  O2-  O434  1  0.16784293  0.07883361  0.85630346  1
  O2-  O435  1  0.17036009  0.33451271  0.19720521  1
  O2-  O436  1  0.16921061  0.33235285  0.52612902  1
  O2-  O437  1  0.17097136  0.33408118  0.85328007  1
  O2-  O438  1  0.16401073  0.58972230  0.20304944  1
  O2-  O439  1  0.18145431  0.58555016  0.52551131  1
  O2-  O440  1  0.15477593  0.57674009  0.86205514  1
  O2-  O441  1  0.16853193  0.84034592  0.19346373  1
  O2-  O442  1  0.17739755  0.85293801  0.53021808  1
  O2-  O443  1  0.16132406  0.82873055  0.86078632  1
  O2-  O444  1  0.42392959  0.09191765  0.19024151  1
  O2-  O445  1  0.47060741  0.12732672  0.53275477  1
  O2-  O446  1  0.41995600  0.08907623  0.82338819  1
  O2-  O447  1  0.41972598  0.34435939  0.18766201  1
  O2-  O448  1  0.42410491  0.33803049  0.51891985  1
  O2-  O449  1  0.41242301  0.33346469  0.85979796  1
  O2-  O450  1  0.39210822  0.58611976  0.18361974  1
  O2-  O451  1  0.42747098  0.57054692  0.51862820  1
  O2-  O452  1  0.40761455  0.57532929  0.84172927  1
  O2-  O453  1  0.41837007  0.84779068  0.19446995  1
  O2-  O454  1  0.42645985  0.83817647  0.49938273  1
  O2-  O455  1  0.40745542  0.83910612  0.86206983  1
  O2-  O456  1  0.66049742  0.09977673  0.18537295  1
  O2-  O457  1  0.66923475  0.08594339  0.53401364  1
  O2-  O458  1  0.68168045  0.08998876  0.85407704  1
  O2-  O459  1  0.66846751  0.33031890  0.18201170  1
  O2-  O460  1  0.61386795  0.33217530  0.51624067  1
  O2-  O461  1  0.67710183  0.34616897  0.85899753  1
  O2-  O462  1  0.57445903  0.54953006  0.23477773  1
  O2-  O463  1  0.70175341  0.59588108  0.51949880  1
  O2-  O464  1  0.66173564  0.58203730  0.84891495  1
  O2-  O465  1  0.67701399  0.87294663  0.19999204  1
  O2-  O466  1  0.72296359  0.91589111  0.54820568  1
  O2-  O467  1  0.68380004  0.81456886  0.86489127  1
  O2-  O468  1  0.91327766  0.09795465  0.16216054  1
  O2-  O469  1  0.93526605  0.09853335  0.51070974  1
  O2-  O470  1  0.92423741  0.09449452  0.85019788  1
  O2-  O471  1  0.91754353  0.33919608  0.19232434  1
  O2-  O472  1  0.93785148  0.34501470  0.52377428  1
  O2-  O473  1  0.91964093  0.32879270  0.85100092  1
  O2-  O474  1  0.88889659  0.57091795  0.19710992  1
  O2-  O475  1  0.93719333  0.59822851  0.52235740  1
  O2-  O476  1  0.91650281  0.58014569  0.85078372  1
  O2-  O477  1  0.92453056  0.84233598  0.18576189  1
  O2-  O478  1  0.97135802  0.91826076  0.54097263  1
  O2-  O479  1  0.91829432  0.83533501  0.84856841  1
  O2-  O480  1  0.15339784  0.07411033  0.32503195  1
  O2-  O481  1  0.17577232  0.07707219  0.64876768  1
  O2-  O482  1  0.16970765  0.09055191  0.98096067  1
  O2-  O483  1  0.17722093  0.34823519  0.31155595  1
  O2-  O484  1  0.14542398  0.31041201  0.64705223  1
  O2-  O485  1  0.16674898  0.33102111  0.97567271  1
  O2-  O486  1  0.17597939  0.58838429  0.32413141  1
  O2-  O487  1  0.15618693  0.57290121  0.65182920  1
  O2-  O488  1  0.15374725  0.57926637  0.98021629  1
  O2-  O489  1  0.18111525  0.83022731  0.32027459  1
  O2-  O490  1  0.17460905  0.84128449  0.64427540  1
  O2-  O491  1  0.15981120  0.83220074  0.98394568  1
  O2-  O492  1  0.39611722  0.14755608  0.32087889  1
  O2-  O493  1  0.42285992  0.08821828  0.70197852  1
  O2-  O494  1  0.41166815  0.08443661  0.97891217  1
  O2-  O495  1  0.43616184  0.35450883  0.31096315  1
  O2-  O496  1  0.41225409  0.33025094  0.64171237  1
  O2-  O497  1  0.41524553  0.33260911  0.98249055  1
  O2-  O498  1  0.39864242  0.58047888  0.30541938  1
  O2-  O499  1  0.39367944  0.57017089  0.64805290  1
  O2-  O500  1  0.40038185  0.56820921  0.96573288  1
  O2-  O501  1  0.44513397  0.81407782  0.30362738  1
  O2-  O502  1  0.35605853  0.79976643  0.62025033  1
  O2-  O503  1  0.41968994  0.82766423  0.97844318  1
  O2-  O504  1  0.64241574  0.08582009  0.31134360  1
  O2-  O505  1  0.67003442  0.08601592  0.65097168  1
  O2-  O506  1  0.67432185  0.06479261  0.97338936  1
  O2-  O507  1  0.65326994  0.35424091  0.37303358  1
  O2-  O508  1  0.66951595  0.33759571  0.64037047  1
  O2-  O509  1  0.66571908  0.34376557  0.98024545  1
  O2-  O510  1  0.68781161  0.56589203  0.32457549  1
  O2-  O511  1  0.69587415  0.59411432  0.64391493  1
  O2-  O512  1  0.66381092  0.58551486  0.97636859  1
  O2-  O513  1  0.66552337  0.84090752  0.32207696  1
  O2-  O514  1  0.64738130  0.81548173  0.65648822  1
  O2-  O515  1  0.66739375  0.83243015  0.98361691  1
  O2-  O516  1  0.90214554  0.06261825  0.32620686  1
  O2-  O517  1  0.84529242  0.04995955  0.61751629  1
  O2-  O518  1  0.93092853  0.09785400  0.99431528  1
  O2-  O519  1  0.92239703  0.34121301  0.31897030  1
  O2-  O520  1  0.92089105  0.32574066  0.65768469  1
  O2-  O521  1  0.91134751  0.32168028  0.97165184  1
  O2-  O522  1  0.93438451  0.58421874  0.32316836  1
  O2-  O523  1  0.93438322  0.62760397  0.64334063  1
  O2-  O524  1  0.91550797  0.57931483  0.97326655  1
  O2-  O525  1  0.92339960  0.83099303  0.31050612  1
  O2-  O526  1  0.93217768  0.85623755  0.64953288  1
  O2-  O527  1  0.92862650  0.84673505  0.97199292  1
  O2-  O528  1  0.09221005  0.17616199  0.02286853  1
  O2-  O529  1  0.07797073  0.16064203  0.36571990  1
  O2-  O530  1  0.07960750  0.14526364  0.69597287  1
  O2-  O531  1  0.08209620  0.40571680  0.00760314  1
  O2-  O532  1  0.09209089  0.41594070  0.35811159  1
  O2-  O533  1  0.07426337  0.39771170  0.69114755  1
  O2-  O534  1  0.07780212  0.66351197  0.02268110  1
  O2-  O535  1  0.10182201  0.67242781  0.36162513  1
  O2-  O536  1  0.08954846  0.67453907  0.68964869  1
  O2-  O537  1  0.08947216  0.92602641  0.02186687  1
  O2-  O538  1  0.09126333  0.90830027  0.35791859  1
  O2-  O539  1  0.09041574  0.91127482  0.68879089  1
  O2-  O540  1  0.33394944  0.16868079  0.02394032  1
  O2-  O541  1  0.36386035  0.19959490  0.35074135  1
  O2-  O542  1  0.33063098  0.16773121  0.69095829  1
  O2-  O543  1  0.32587926  0.41106025  0.01748330  1
  O2-  O544  1  0.33249021  0.41913717  0.35365417  1
  O2-  O545  1  0.31887301  0.40152204  0.68411836  1
  O2-  O546  1  0.32808795  0.65188170  0.01380231  1
  O2-  O547  1  0.33974336  0.67508754  0.35902431  1
  O2-  O548  1  0.32523736  0.66261521  0.68308553  1
  O2-  O549  1  0.31880110  0.92439621  0.03817699  1
  O2-  O550  1  0.35115321  0.87765913  0.39166240  1
  O2-  O551  1  0.33318362  0.91784161  0.68783477  1
  O2-  O552  1  0.57593724  0.17927404  0.02729608  1
  O2-  O553  1  0.56927149  0.18392219  0.31996743  1
  O2-  O554  1  0.59536964  0.17935741  0.69576453  1
  O2-  O555  1  0.58209776  0.42080206  0.01916020  1
  O2-  O556  1  0.60412823  0.39707029  0.35630247  1
  O2-  O557  1  0.54454715  0.35039242  0.70615315  1
  O2-  O558  1  0.56397127  0.65239834  0.01194160  1
  O2-  O559  1  0.56863629  0.65858479  0.32796003  1
  O2-  O560  1  0.56951072  0.65293688  0.68479245  1
  O2-  O561  1  0.58655572  0.91417675  0.01966674  1
  O2-  O562  1  0.57821513  0.92414836  0.35769011  1
  O2-  O563  1  0.58406179  0.91588385  0.68709280  1
  O2-  O564  1  0.84519838  0.16937447  0.02311144  1
  O2-  O565  1  0.82723971  0.16169287  0.31045688  1
  O2-  O566  1  0.83693277  0.16726774  0.68252039  1
  O2-  O567  1  0.83379033  0.41168318  0.01281047  1
  O2-  O568  1  0.83495175  0.42183983  0.36394397  1
  O2-  O569  1  0.84390668  0.40792186  0.69198879  1
  O2-  O570  1  0.84652504  0.67658731  0.00886861  1
  O2-  O571  1  0.86088510  0.67087885  0.35375474  1
  O2-  O572  1  0.78540456  0.71148344  0.70020007  1
  O2-  O573  1  0.84907238  0.93736747  0.00335913  1
  O2-  O574  1  0.83109434  0.90350933  0.36227502  1
  O2-  O575  1  0.92209315  0.99469940  0.69209695  1
