# generated using pymatgen
data_H2O
_symmetry_space_group_name_H-M   'P 1'
_cell_length_a   18.00066340
_cell_length_b   17.99694387
_cell_length_c   22.00521440
_cell_angle_alpha   89.98558938
_cell_angle_beta   89.99620052
_cell_angle_gamma   119.99738051
_symmetry_Int_Tables_number   1
_chemical_formula_structural   H2O
_chemical_formula_sum   'H384 O192'
_cell_volume   6173.83399187
_cell_formula_units_Z   192
loop_
 _symmetry_equiv_pos_site_id
 _symmetry_equiv_pos_as_xyz
  1  'x, y, z'
loop_
 _atom_type_symbol
 _atom_type_oxidation_number
  H+  1.0
  O2-  -2.0
loop_
 _atom_site_type_symbol
 _atom_site_label
 _atom_site_symmetry_multiplicity
 _atom_site_fract_x
 _atom_site_fract_y
 _atom_site_fract_z
 _atom_site_occupancy
  H+  H0  1  0.64035744  0.28761497  0.65595416  1
  H+  H1  1  0.63500929  0.61503666  0.17850286  1
  H+  H2  1  0.13546600  0.76580272  0.83760371  1
  H+  H3  1  0.69026038  0.88526904  0.48588894  1
  H+  H4  1  0.84549583  0.90128997  0.67718769  1
  H+  H5  1  0.27625743  0.14057979  0.16321725  1
  H+  H6  1  0.59906740  0.88720086  0.16761195  1
  H+  H7  1  0.60667424  0.62777591  0.99670501  1
  H+  H8  1  0.13152150  0.85227647  0.83204895  1
  H+  H9  1  0.54254385  0.68705039  0.51585406  1
  H+  H10  1  0.10581826  0.12226250  0.34843733  1
  H+  H11  1  0.86345784  0.55163903  0.14782465  1
  H+  H12  1  0.62260545  0.73153634  0.20230215  1
  H+  H13  1  0.84813848  0.61241719  0.32471312  1
  H+  H14  1  0.10866373  0.37927948  0.34080203  1
  H+  H15  1  0.42081284  0.12725740  0.50169237  1
  H+  H16  1  0.46027664  0.85985731  0.32919774  1
  H+  H17  1  0.62299625  0.98591903  0.82793907  1
  H+  H18  1  0.35622626  0.18284970  0.76987589  1
  H+  H19  1  0.61921425  0.72585209  0.33217019  1
  H+  H20  1  0.02161370  0.62773499  0.83806470  1
  H+  H21  1  0.37082804  0.64137710  0.34680810  1
  H+  H22  1  0.13494950  0.90583817  -0.00422770  1
  H+  H23  1  0.13782781  0.76460142  0.50220694  1
  H+  H24  1  0.40257596  0.53358141  0.33229070  1
  H+  H25  1  0.39473540  0.65017049  0.01691383  1
  H+  H26  1  0.97301428  0.10403428  0.16893077  1
  H+  H27  1  -0.12354102  0.85343431  -0.00773531  1
  H+  H28  1  0.58766271  0.92302874  0.06433360  1
  H+  H29  1  0.38135239  0.11877629  0.66575129  1
  H+  H30  1  0.82923202  0.15182324  0.10039293  1
  H+  H31  1  0.64954747  0.11028741  0.83863977  1
  H+  H32  1  0.17036159  0.08830613  0.23761414  1
  H+  H33  1  0.65150784  0.11601654  -0.01399409  1
  H+  H34  1  -0.03181224  0.81571014  0.21913752  1
  H+  H35  1  0.77340514  0.37914973  0.33977916  1
  H+  H36  1  0.89911051  0.82209348  0.93045057  1
  H+  H37  1  0.86183117  0.47646237  0.01356726  1
  H+  H38  1  0.62826520  0.23875817  0.16787079  1
  H+  H39  1  0.54173235  0.23054424  0.71992861  1
  H+  H40  1  -0.03368037  0.62111284  0.00707735  1
  H+  H41  1  0.12212016  0.99172117  0.15606042  1
  H+  H42  1  0.85781820  0.13393873  0.81511789  1
  H+  H43  1  0.08557103  0.63577416  0.00233381  1
  H+  H44  1  0.42209977  0.34227587  0.93824803  1
  H+  H45  1  0.17054855  0.77720858  0.64711959  1
  H+  H46  1  0.88298259  0.79114239  0.66915156  1
  H+  H47  1  1.01386799  0.63644762  0.33661566  1
  H+  H48  1  0.82052164  0.57394563  0.70383885  1
  H+  H49  1  0.87374360  0.24837482  0.82795150  1
  H+  H50  1  0.88571872  0.34048053  0.16961761  1
  H+  H51  1  0.10766439  0.88295617  0.34075867  1
  H+  H52  1  0.63542323  0.51535987  0.99805395  1
  H+  H53  1  0.67106141  0.83116608  0.59596669  1
  H+  H54  1  0.91781112  0.49393642  0.50646086  1
  H+  H55  1  0.86402500  0.38126376  0.33541777  1
  H+  H56  1  0.09958110  0.63098809  0.33133950  1
  H+  H57  1  0.53128196  0.14328050  0.16751898  1
  H+  H58  1  0.34461204  -0.02054125  0.48955428  1
  H+  H59  1  0.78452570  0.14328101  0.67085349  1
  H+  H60  1  0.13529447  1.01554777  0.48184874  1
  H+  H61  1  0.86062484  -0.02959024  1.01226247  1
  H+  H62  1  0.72106440  0.57487409  0.50608235  1
  H+  H63  1  0.60828410  0.61116069  0.82383402  1
  H+  H64  1  0.64722588  0.27203011  0.50275270  1
  H+  H65  1  0.37068664  0.86005442  0.32716658  1
  H+  H66  1  0.25963519  0.14070518  0.83574805  1
  H+  H67  1  0.91793476  0.94220952  0.50262681  1
  H+  H68  1  0.11630436  0.39080334  0.49720187  1
  H+  H69  1  0.37346633  0.23022027  0.67763029  1
  H+  H70  1  0.77599563  0.13148536  1.00704928  1
  H+  H71  1  0.09626604  0.21072019  0.15720525  1
  H+  H72  1  0.15393269  0.03503526  0.98457109  1
  H+  H73  1  0.35487175  0.13595900  0.34668328  1
  H+  H74  1  0.51081127  0.15742065  0.67202000  1
  H+  H75  1  0.23745290  0.61362750  -0.02546033  1
  H+  H76  1  0.09125533  0.71826115  0.16300431  1
  H+  H77  1  0.87540733  0.51017773  0.32238642  1
  H+  H78  1  0.71983353  0.60943341  0.48755681  1
  H+  H79  1  0.87985317  0.27284071  0.66248538  1
  H+  H80  1  0.77217585  0.88197813  1.01345670  1
  H+  H81  1  0.68921183  0.09710288  0.32491984  1
  H+  H82  1  0.86262998  0.37005298  0.48933778  1
  H+  H83  1  0.00279475  0.50752849  0.94935344  1
  H+  H84  1  0.20108675  0.31800350  0.31075441  1
  H+  H85  1  0.64065026  0.62052282  0.65307628  1
  H+  H86  1  0.19430595  0.85174398  0.16424960  1
  H+  H87  1  0.28438543  0.63435999  0.81566991  1
  H+  H88  1  0.84658602  0.44596720  0.83076362  1
  H+  H89  1  0.10947213  0.22302648  0.00917961  1
  H+  H90  1  0.26311441  0.38110082  0.15775394  1
  H+  H91  1  0.27679496  0.88687063  0.82355070  1
  H+  H92  1  0.12905366  0.61696659  0.65623557  1
  H+  H93  1  0.89263317  0.27039985  0.32756989  1
  H+  H94  1  0.88350242  0.26495791  0.99649921  1
  H+  H95  1  0.60621033  1.00483023  0.31813678  1
  H+  H96  1  0.76728685  0.61605876  0.68090707  1
  H+  H97  1  0.52463815  0.38312422  0.01557080  1
  H+  H98  1  0.86443111  0.13077816  0.00949731  1
  H+  H99  1  0.12786950  0.76912276  0.32416635  1
  H+  H100  1  0.73519940  0.89633735  0.33605665  1
  H+  H101  1  0.85068019  0.70859515  0.32547420  1
  H+  H102  1  0.87561104  0.45075525  0.16224688  1
  H+  H103  1  0.64444749  0.36000278  0.17529349  1
  H+  H104  1  0.72845745  0.11520919  0.17223025  1
  H+  H105  1  0.88213707  0.35317750  0.99376974  1
  H+  H106  1  0.46110222  0.57078293  0.64530518  1
  H+  H107  1  0.64381273  0.73302251  0.13510891  1
  H+  H108  1  0.22340725  0.60978216  0.16888116  1
  H+  H109  1  0.89224071  0.02794770  0.84501834  1
  H+  H110  1  0.11725726  0.14243227  0.82626658  1
  H+  H111  1  0.44769305  0.32819708  0.50074127  1
  H+  H112  1  1.00953554  0.62912677  0.67161073  1
  H+  H113  1  0.09623645  0.45340645  0.80836906  1
  H+  H114  1  0.37789053  0.38498413  0.83301616  1
  H+  H115  1  0.96430459  0.61133828  0.16422325  1
  H+  H116  1  0.59749615  0.70911835  0.65996248  1
  H+  H117  1  1.02688903  0.92696679  0.52109966  1
  H+  H118  1  0.27377582  0.38994983  0.50270379  1
  H+  H119  1  0.58948908  0.91948337  0.77042266  1
  H+  H120  1  0.13435508  0.60971453  0.16723341  1
  H+  H121  1  0.39162469  0.87290254  0.66340965  1
  H+  H122  1  0.87753345  0.86053774  0.83305367  1
  H+  H123  1  0.61493297  0.96765314  0.67168771  1
  H+  H124  1  0.45558465  0.87547344  0.51531216  1
  H+  H125  1  0.43123083  0.85618536  0.17823707  1
  H+  H126  1  0.85694134  0.65845436  0.16389810  1
  H+  H127  1  0.23023134  0.62497800  1.00611302  1
  H+  H128  1  0.60736292  0.71724616  -0.00066687  1
  H+  H129  1  0.41319305  0.02520483  0.98709556  1
  H+  H130  1  0.60089310  0.37190880  0.49132184  1
  H+  H131  1  0.66378653  0.33439478  0.94300635  1
  H+  H132  1  0.39195433  0.36591267  0.33869044  1
  H+  H133  1  0.89954672  0.11164294  0.32083791  1
  H+  H134  1  0.37367160  0.49133074  0.66032736  1
  H+  H135  1  0.40101975  0.27620497  0.18246267  1
  H+  H136  1  0.01842724  0.88135061  0.34167324  1
  H+  H137  1  0.77589236  0.38763485  0.65721836  1
  H+  H138  1  0.56829364  0.44087670  0.49373354  1
  H+  H139  1  0.11400523  0.22886351  0.83292065  1
  H+  H140  1  0.11041301  0.13562770  1.00222565  1
  H+  H141  1  0.87163990  0.47837071  0.65099487  1
  H+  H142  1  0.37309478  0.35005511  0.51107022  1
  H+  H143  1  0.38605598  0.60368601  0.82896707  1
  H+  H144  1  0.09913107  0.47506281  0.66213047  1
  H+  H145  1  0.22130814  0.11143668  0.33303875  1
  H+  H146  1  0.33858383  0.90066367  0.17611579  1
  H+  H147  1  0.89150617  0.79314441  0.17669013  1
  H+  H148  1  0.07351150  0.95355894  0.79987736  1
  H+  H149  1  0.38955720  0.86116748  0.83679068  1
  H+  H150  1  0.12062262  0.34713544  0.16698896  1
  H+  H151  1  0.14200495  0.60290761  0.83014786  1
  H+  H152  1  0.35180317  0.89367435  0.49344447  1
  H+  H153  1  0.85395953  0.71859333  0.83229057  1
  H+  H154  1  0.32527091  -0.07948076  0.39333587  1
  H+  H155  1  0.42326294  0.58599506  0.23471075  1
  H+  H156  1  0.65161113  0.29025770  0.84941160  1
  H+  H157  1  0.47169192  0.59597640  0.83153089  1
  H+  H158  1  0.21943964  0.85942093  0.49810406  1
  H+  H159  1  0.54770830  0.56344101  0.50952539  1
  H+  H160  1  0.46735977  0.11448135  0.32737731  1
  H+  H161  1  0.25101073  0.15844316  1.00627715  1
  H+  H162  1  0.87391155  0.61285335  1.00282785  1
  H+  H163  1  0.29383994  0.42034356  0.35904169  1
  H+  H164  1  0.17400377  0.83307783  0.92857228  1
  H+  H165  1  0.62760667  0.23319280  0.00660899  1
  H+  H166  1  0.82021788  0.96510908  0.36518202  1
  H+  H167  1  0.47696673  0.60816203  0.98709609  1
  H+  H168  1  0.64237136  0.97785161  0.47993792  1
  H+  H169  1  0.14382308  0.52649262  0.50612940  1
  H+  H170  1  0.73257997  0.36269697  0.50074300  1
  H+  H171  1  0.86351897  0.21165073  0.16039978  1
  H+  H172  1  0.36495030  0.85592621  0.01182348  1
  H+  H173  1  0.48419806  0.37533940  0.83915124  1
  H+  H174  1  0.40631411  0.63233285  0.48835642  1
  H+  H175  1  0.56992068  0.87883779  0.48426188  1
  H+  H176  1  0.35073719  0.25798470  0.01092729  1
  H+  H177  1  0.13338139  0.02047645  0.32956451  1
  H+  H178  1  0.23151555  0.85356793  0.98950612  1
  H+  H179  1  0.11098758  0.73505965  1.00612879  1
  H+  H180  1  0.39317724  0.02785462  0.83271952  1
  H+  H181  1  0.48746209  0.62221207  0.32427845  1
  H+  H182  1  0.86964576  0.37866677  0.65731629  1
  H+  H183  1  0.80300409  0.12220689  0.35552759  1
  H+  H184  1  0.77512547  0.89918522  0.16844694  1
  H+  H185  1  0.78063907  0.90147102  0.83142559  1
  H+  H186  1  0.62327117  -0.01907420  1.00325680  1
  H+  H187  1  0.60834531  0.69640590  0.80737211  1
  H+  H188  1  0.37236179  0.63256396  0.16723327  1
  H+  H189  1  0.71699479  0.81444284  0.49058178  1
  H+  H190  1  0.62155046  0.35937921  0.84887887  1
  H+  H191  1  0.63021721  0.51408853  0.33411595  1
  H+  H192  1  0.12900959  0.36569687  0.65111330  1
  H+  H193  1  0.26978274  0.64761727  0.66856709  1
  H+  H194  1  0.14669155  0.12432569  0.67673355  1
  H+  H195  1  0.38425643  0.15172579  0.83074798  1
  H+  H196  1  0.97085719  0.36574245  0.65485743  1
  H+  H197  1  0.66470495  0.11065925  0.49616961  1
  H+  H198  1  0.35892409  0.10796410  -0.00144434  1
  H+  H199  1  0.35770067  0.72241948  0.34600353  1
  H+  H200  1  0.75298669  0.10952203  0.50175016  1
  H+  H201  1  0.14224633  0.28476882  0.65724546  1
  H+  H202  1  0.02255176  0.38238948  0.34089229  1
  H+  H203  1  0.64283841  0.80086131  0.85960072  1
  H+  H204  1  0.64381275  0.88749713  0.84673640  1
  H+  H205  1  0.41423756  0.03841996  0.17010009  1
  H+  H206  1  0.48031580  0.61746831  0.17448729  1
  H+  H207  1  0.63697902  0.36009065  0.32944304  1
  H+  H208  1  0.61327848  0.47717133  0.82506917  1
  H+  H209  1  0.62545692  0.39758352  0.66627548  1
  H+  H210  1  0.10947635  0.46967964  0.15793629  1
  H+  H211  1  0.13719289  0.11430827  0.17767762  1
  H+  H212  1  0.84529525  0.35949465  0.82514003  1
  H+  H213  1  0.90231873  0.15262764  0.49406552  1
  H+  H214  1  0.97806016  0.09638108  0.31958264  1
  H+  H215  1  0.52287969  0.88414761  0.67504639  1
  H+  H216  1  0.63518804  0.60881831  0.33539486  1
  H+  H217  1  0.13070344  0.63922826  0.48345516  1
  H+  H218  1  0.87602419  0.81921699  0.36075830  1
  H+  H219  1  0.39405750  0.14801975  0.98386968  1
  H+  H220  1  0.72231420  0.60678271  -0.00526209  1
  H+  H221  1  0.95935060  0.84745836  0.82972195  1
  H+  H222  1  0.82947331  0.93816319  0.48892045  1
  H+  H223  1  0.59416729  0.12842896  0.33609492  1
  H+  H224  1  0.51046717  0.09569056  0.98164989  1
  H+  H225  1  0.22666450  0.36275340  0.99973054  1
  H+  H226  1  0.97916192  0.11757827  0.84625496  1
  H+  H227  1  0.38217391  0.77809243  0.66046377  1
  H+  H228  1  0.36769160  0.47478440  0.50546545  1
  H+  H229  1  0.83726720  0.93294745  0.76976430  1
  H+  H230  1  0.48053613  0.35690585  0.65511341  1
  H+  H231  1  0.76579706  0.65094805  0.16424199  1
  H+  H232  1  0.04856920  0.89440896  0.63833783  1
  H+  H233  1  0.61412199  0.98013268  0.15800825  1
  H+  H234  1  0.36262788  0.47817715  1.00681638  1
  H+  H235  1  0.79958928  0.88060529  0.10423000  1
  H+  H236  1  0.64108532  0.36222412  1.00575863  1
  H+  H237  1  0.01298566  0.37572046  0.00497030  1
  H+  H238  1  0.37038029  0.47931548  0.82648622  1
  H+  H239  1  0.85312609  0.72554649  0.00127059  1
  H+  H240  1  -0.02923235  0.10715825  -0.00393748  1
  H+  H241  1  0.18176644  0.04709141  0.83629750  1
  H+  H242  1  0.87870776  0.10376945  0.17177151  1
  H+  H243  1  0.62072418  0.84565647  0.65053354  1
  H+  H244  1  0.36978008  -0.01160574  0.67288592  1
  H+  H245  1  -0.01815710  0.36302007  0.50731663  1
  H+  H246  1  0.11784089  0.86998456  0.16525934  1
  H+  H247  1  0.88759209  0.81761163  0.46678764  1
  H+  H248  1  0.13715148  0.36228223  0.99669623  1
  H+  H249  1  0.09361217  0.46824435  0.00095153  1
  H+  H250  1  0.49102554  0.87403794  -0.01073664  1
  H+  H251  1  0.37565697  0.72936785  0.17402366  1
  H+  H252  1  0.77411052  0.38577192  0.01059422  1
  H+  H253  1  0.52471395  0.38338174  0.34042289  1
  H+  H254  1  0.23624673  0.61325019  0.50750133  1
  H+  H255  1  0.90133700  0.13666217  0.65821376  1
  H+  H256  1  0.72554672  0.60581205  0.84551028  1
  H+  H257  1  0.13337936  0.28156519  0.50789586  1
  H+  H258  1  0.61748356  0.48125616  0.66592016  1
  H+  H259  1  0.36486753  0.14094178  0.15154509  1
  H+  H260  1  0.89885833  0.65927592  0.51850840  1
  H+  H261  1  0.53607274  0.13487987  0.82630211  1
  H+  H262  1  0.62140480  0.46889912  0.16683967  1
  H+  H263  1  0.74815356  0.61438275  0.32893243  1
  H+  H264  1  0.48035153  0.86528167  0.83782975  1
  H+  H265  1  0.36323530  0.73023461  0.49765123  1
  H+  H266  1  0.00425690  0.36703993  0.81064979  1
  H+  H267  1  1.00971296  0.58531864  0.50468204  1
  H+  H268  1  0.12292542  0.51930123  0.32498583  1
  H+  H269  1  0.09341224  0.13990582  0.50171568  1
  H+  H270  1  1.03529825  0.15140169  0.67572712  1
  H+  H271  1  0.58871659  0.88288624  0.31093945  1
  H+  H272  1  0.74121727  0.11275035  0.82961016  1
  H+  H273  1  0.55113376  0.12666824  0.49562425  1
  H+  H274  1  0.38435859  0.27324678  0.33941934  1
  H+  H275  1  0.28403670  0.89718592  0.66705724  1
  H+  H276  1  0.64048226  0.10447190  0.64735224  1
  H+  H277  1  0.12670111  0.88077837  0.65499519  1
  H+  H278  1  0.39801160  0.28444544  0.84217512  1
  H+  H279  1  0.28091334  0.14339534  0.68844037  1
  H+  H280  1  0.86759379  0.61446509  0.50803360  1
  H+  H281  1  0.37222598  0.72401609  0.82234924  1
  H+  H282  1  0.87104539  0.99965724  0.67946739  1
  H+  H283  1  0.73265670  0.35433830  0.17435827  1
  H+  H284  1  -0.10803163  0.61266733  0.84932175  1
  H+  H285  1  0.11006380  0.24380440  0.32773216  1
  H+  H286  1  0.83503648  0.17053912  0.73769191  1
  H+  H287  1  0.39294103  0.37715724  0.99637196  1
  H+  H288  1  0.99964375  0.97113054  0.57456629  1
  H+  H289  1  0.58355529  0.41970826  0.76399070  1
  H+  H290  1  0.91674821  0.07778962  0.23789403  1
  H+  H291  1  0.31579463  0.18948059  0.07309630  1
  H+  H292  1  0.43144830  0.32987766  0.24443822  1
  H+  H293  1  0.66068964  0.57223323  0.90284654  1
  H+  H294  1  0.58933378  0.91231492  0.38142208  1
  H+  H295  1  0.94360249  0.11460721  0.60070677  1
  H+  H296  1  0.34847712  0.42857182  0.41639516  1
  H+  H297  1  0.40668506  0.81335592  0.24621235  1
  H+  H298  1  0.58444490  0.41005504  0.07529380  1
  H+  H299  1  0.90368676  0.84510852  0.60864520  1
  H+  H300  1  0.89992300  0.56846984  0.26124557  1
  H+  H301  1  0.42625470  0.09402954  0.23042836  1
  H+  H302  1  0.06474104  0.40849680  0.71891055  1
  H+  H303  1  0.67514819  0.84692889  0.94518577  1
  H+  H304  1  0.88252905  0.23010678  0.49503259  1
  H+  H305  1  0.67683700  0.07505678  0.59254784  1
  H+  H306  1  0.56746619  0.53114139  0.57054542  1
  H+  H307  1  0.41285940  0.31644564  0.60003047  1
  H+  H308  1  0.07323719  0.89642825  0.74658715  1
  H+  H309  1  0.97782261  0.34840706  0.17052082  1
  H+  H310  1  0.89016154  0.83776495  0.28714185  1
  H+  H311  1  0.89526450  0.60346061  0.62035673  1
  H+  H312  1  0.40833348  0.57831069  0.93259767  1
  H+  H313  1  0.31176086  0.15730188  0.40474498  1
  H+  H314  1  0.65988245  0.57814028  0.23510288  1
  H+  H315  1  0.07377265  0.65077673  0.77571137  1
  H+  H316  1  0.36417788  0.91216844  0.10682973  1
  H+  H317  1  0.22374160  0.35519556  0.84293355  1
  H+  H318  1  0.16304635  0.58977627  0.59750807  1
  H+  H319  1  0.82715551  0.65112222  0.77773859  1
  H+  H320  1  0.06816095  0.72229210  0.69630168  1
  H+  H321  1  0.35168836  0.46900557  0.16206269  1
  H+  H322  1  0.17890421  0.82956971  0.58522424  1
  H+  H323  1  0.86755659  0.17304878  0.40685177  1
  H+  H324  1  0.83815911  0.40777398  0.43072467  1
  H+  H325  1  0.32517633  0.09709565  0.51251393  1
  H+  H326  1  0.58060132  0.67694941  0.39701119  1
  H+  H327  1  0.94560716  0.56035499  0.58276540  1
  H+  H328  1  0.06299320  0.14817874  0.40408646  1
  H+  H329  1  0.91028035  0.30898510  0.88928769  1
  H+  H330  1  0.58146799  0.40765162  0.39967087  1
  H+  H331  1  0.91834603  0.32439671  0.26583841  1
  H+  H332  1  0.16611002  0.33954037  0.56878516  1
  H+  H333  1  0.07073508  0.14908915  0.09907144  1
  H+  H334  1  0.07285780  0.66597616  0.10164730  1
  H+  H335  1  0.08836132  0.66327360  0.42640396  1
  H+  H336  1  0.26433376  0.88826561  0.33471851  1
  H+  H337  1  0.40177470  0.83705117  0.57523022  1
  H+  H338  1  0.59205330  0.16137791  0.43044695  1
  H+  H339  1  0.31061507  0.20868719  0.49832728  1
  H+  H340  1  0.60713954  0.22359034  0.34165901  1
  H+  H341  1  0.07815691  0.41259700  0.09748867  1
  H+  H342  1  0.14047070  0.30916781  0.22654093  1
  H+  H343  1  0.33975429  0.67246383  0.43601986  1
  H+  H344  1  0.59800393  0.16951829  0.77007412  1
  H+  H345  1  0.67405672  0.33883969  0.59214080  1
  H+  H346  1  0.37883238  0.02549054  0.32181237  1
  H+  H347  1  0.83610119  0.40458707  0.09785284  1
  H+  H348  1  0.68176786  0.08350969  0.92734030  1
  H+  H349  1  0.82946120  0.72694611  0.44113610  1
  H+  H350  1  0.02969615  0.90818225  0.15116451  1
  H+  H351  1  0.91821029  0.58573381  0.91060075  1
  H+  H352  1  0.91605161  0.32833515  0.56451515  1
  H+  H353  1  0.63695173  0.86057472  1.00512872  1
  H+  H354  1  0.57357006  0.64470770  0.71814609  1
  H+  H355  1  0.33689325  0.91939955  0.76487865  1
  H+  H356  1  0.82388443  0.67475755  0.06518235  1
  H+  H357  1  0.66055771  0.08297772  0.22998795  1
  H+  H358  1  0.43742444  0.07852045  0.89227803  1
  H+  H359  1  0.66777087  0.32786572  0.27169665  1
  H+  H360  1  0.70236270  0.61800582  0.60006186  1
  H+  H361  1  0.14746608  1.03505044  0.67108919  1
  H+  H362  1  0.15202578  0.83078707  0.26614123  1
  H+  H363  1  0.09027076  0.18002494  0.73670072  1
  H+  H364  1  0.16990991  0.32795398  0.90451873  1
  H+  H365  1  0.28499645  0.79907662  0.05289469  1
  H+  H366  1  0.08420646  0.41693058  0.43717663  1
  H+  H367  1  0.42576027  0.83526196  0.93121502  1
  H+  H368  1  0.40336141  0.74471362  0.01741199  1
  H+  H369  1  0.14951270  0.57424276  0.26386529  1
  H+  H370  1  0.53577774  0.37679836  0.17326934  1
  H+  H371  1  0.59790323  0.16871203  0.06302097  1
  H+  H372  1  0.40078041  0.08896263  0.60186486  1
  H+  H373  1  0.33656173  0.67294493  0.72313361  1
  H+  H374  1  0.07816554  0.57363909  0.91118034  1
  H+  H375  1  0.91209388  0.08003570  0.93650741  1
  H+  H376  1  0.17798073  0.56172808  0.87861356  1
  H+  H377  1  0.62666093  0.13945834  0.16659758  1
  H+  H378  1  0.18687368  0.10278791  0.92681982  1
  H+  H379  1  0.93925112  0.05613767  0.49763092  1
  H+  H380  1  0.10063048  0.93735129  0.05112531  1
  H+  H381  1  0.33305843  0.41834449  0.06738630  1
  H+  H382  1  0.08494051  0.93403410  0.43601264  1
  H+  H383  1  0.36190180  0.67793501  0.10252839  1
  O2-  O384  1  0.06731440  0.14833395  0.14485874  1
  O2-  O385  1  0.05878767  0.16496875  0.48512013  1
  O2-  O386  1  0.08252222  0.16856639  0.81498706  1
  O2-  O387  1  0.07792874  0.40919270  0.14297314  1
  O2-  O388  1  0.08344632  0.41930987  0.48245727  1
  O2-  O389  1  0.06003359  0.39862182  0.78798691  1
  O2-  O390  1  0.06689938  0.65884540  0.14705435  1
  O2-  O391  1  0.09332429  0.66368204  0.47165282  1
  O2-  O392  1  0.08205483  0.65301729  0.82053621  1
  O2-  O393  1  0.08972372  0.93407962  0.13598097  1
  O2-  O394  1  0.09499425  0.95052033  0.47937197  1
  O2-  O395  1  0.06985935  0.89848060  0.79205504  1
  O2-  O396  1  0.33320729  0.17124261  0.14195419  1
  O2-  O397  1  0.27891067  0.14896939  0.48040001  1
  O2-  O398  1  0.35774041  0.18619023  0.81633011  1
  O2-  O399  1  0.32215487  0.41277550  0.14168363  1
  O2-  O400  1  0.33540662  0.41575178  0.48924088  1
  O2-  O401  1  0.34045456  0.41244059  0.81676015  1
  O2-  O402  1  0.34417457  0.66642266  0.15021144  1
  O2-  O403  1  0.34193655  0.67112877  0.48268499  1
  O2-  O404  1  0.34629659  0.66493546  0.80486820  1
  O2-  O405  1  0.38610907  0.93495413  0.14863379  1
  O2-  O406  1  0.32464336  0.92220829  0.47106921  1
  O2-  O407  1  0.33764110  0.91732373  0.81041786  1
  O2-  O408  1  0.59487859  0.17348679  0.15267009  1
  O2-  O409  1  0.60587884  0.16250062  0.47532191  1
  O2-  O410  1  0.59759205  0.16221447  0.81427303  1
  O2-  O411  1  0.59601915  0.40799002  0.15411253  1
  O2-  O412  1  0.56041531  0.38787246  0.47293684  1
  O2-  O413  1  0.57920090  0.41703096  0.80917387  1
  O2-  O414  1  0.60541340  0.69343006  0.16645479  1
  O2-  O415  1  0.52600776  0.64795746  0.48088385  1
  O2-  O416  1  0.57399436  0.63461817  0.80218191  1
  O2-  O417  1  0.58293605  0.92120919  0.14174341  1
  O2-  O418  1  0.61894939  0.91973874  0.46038178  1
  O2-  O419  1  0.58816352  0.92210677  0.81571413  1
  O2-  O420  1  0.82849560  0.15014207  0.14684943  1
  O2-  O421  1  0.86022767  0.16957402  0.47921138  1
  O2-  O422  1  0.82535045  0.16086478  0.80010170  1
  O2-  O423  1  0.83424245  0.39564185  0.14423373  1
  O2-  O424  1  0.83505864  0.40415057  0.47601414  1
  O2-  O425  1  0.81163241  0.38790073  0.81492555  1
  O2-  O426  1  0.82592977  0.68677399  0.14865539  1
  O2-  O427  1  0.84259182  0.78624377  0.43679577  1
  O2-  O428  1  0.82843208  0.65575312  0.82285216  1
  O2-  O429  1  0.76865282  0.85264947  0.14238960  1
  O2-  O430  1  0.89191140  0.96986145  0.47807475  1
  O2-  O431  1  0.83972413  0.92461024  0.81551449  1
  O2-  O432  1  0.17375142  0.09061168  0.19199169  1
  O2-  O433  1  0.18651320  0.11692359  0.49284364  1
  O2-  O434  1  0.19692200  0.10479602  0.84899092  1
  O2-  O435  1  0.14591849  0.31185979  0.18157494  1
  O2-  O436  1  0.16860454  0.34158601  0.52125442  1
  O2-  O437  1  0.16557599  0.32341442  0.85962264  1
  O2-  O438  1  0.16252597  0.57730729  0.18103569  1
  O2-  O439  1  0.17486341  0.58753598  0.52015990  1
  O2-  O440  1  0.17433175  0.57122915  0.83535637  1
  O2-  O441  1  0.13790310  0.83004199  0.18250506  1
  O2-  O442  1  0.16494392  0.82333741  0.52031808  1
  O2-  O443  1  0.16501531  0.82759403  0.84958146  1
  O2-  O444  1  0.43693871  0.09839851  0.18514069  1
  O2-  O445  1  0.37067450  0.08159942  0.52210743  1
  O2-  O446  1  0.42666178  0.08750966  0.84884335  1
  O2-  O447  1  0.44454038  0.33086791  0.20057215  1
  O2-  O448  1  0.39117739  0.30686581  0.52068830  1
  O2-  O449  1  0.42437401  0.34546832  0.85762984  1
  O2-  O450  1  0.42022834  0.58656798  0.18887179  1
  O2-  O451  1  0.43261718  0.59348410  0.48849086  1
  O2-  O452  1  0.41121775  0.56899330  0.84633486  1
  O2-  O453  1  0.41708059  0.80453390  0.20186494  1
  O2-  O454  1  0.39675397  0.83783082  0.52849735  1
  O2-  O455  1  0.41951378  0.83078499  0.85223953  1
  O2-  O456  1  0.66645982  0.09134255  0.18465718  1
  O2-  O457  1  0.69042462  0.07694122  0.51242821  1
  O2-  O458  1  0.68015454  0.07940173  0.85161051  1
  O2-  O459  1  0.67228737  0.32516424  0.18998535  1
  O2-  O460  1  0.67179257  0.33234313  0.51631834  1
  O2-  O461  1  0.63208939  0.32127545  0.87545976  1
  O2-  O462  1  0.66292426  0.58086263  0.19017704  1
  O2-  O463  1  0.55820183  0.51917078  0.52721970  1
  O2-  O464  1  0.66295503  0.57498564  0.85691440  1
  O2-  O465  1  0.61290429  0.83799623  0.25876667  1
  O2-  O466  1  0.72524806  0.86683254  0.50993784  1
  O2-  O467  1  0.67813643  0.86211674  0.86636373  1
  O2-  O468  1  0.91264594  0.07623374  0.18831338  1
  O2-  O469  1  0.97421132  0.12058958  0.51638681  1
  O2-  O470  1  0.91908024  0.08718373  0.86205319  1
  O2-  O471  1  0.91758778  0.31323523  0.18670561  1
  O2-  O472  1  0.91934090  0.32722029  0.51908635  1
  O2-  O473  1  0.90892080  0.31148231  0.84476167  1
  O2-  O474  1  0.90326788  0.58434052  0.18041030  1
  O2-  O475  1  0.96809644  0.53602034  0.53094073  1
  O2-  O476  1  0.92569679  0.58687260  0.86571148  1
  O2-  O477  1  0.93910180  0.84230885  0.19893385  1
  O2-  O478  1  0.97749878  0.91616397  0.55369093  1
  O2-  O479  1  0.90158386  0.82326232  0.84730876  1
  O2-  O480  1  0.16158840  0.08180037  0.31603132  1
  O2-  O481  1  0.18301659  0.09750274  0.66889559  1
  O2-  O482  1  0.17885202  0.09869881  0.97196348  1
  O2-  O483  1  0.14097518  0.30227931  0.30761859  1
  O2-  O484  1  0.16442771  0.34109699  0.63661151  1
  O2-  O485  1  0.16592130  0.32955164  0.98513913  1
  O2-  O486  1  0.13843300  0.57588266  0.30755602  1
  O2-  O487  1  0.15924018  0.58704479  0.64309237  1
  O2-  O488  1  0.06448324  0.54774155  0.95169262  1
  O2-  O489  1  0.15778330  0.83113359  0.31086583  1
  O2-  O490  1  0.18531819  0.83454314  0.63341222  1
  O2-  O491  1  0.17281493  0.83333719  0.97405177  1
  O2-  O492  1  0.40968820  0.08683235  0.30774100  1
  O2-  O493  1  0.41263136  0.09045330  0.64596993  1
  O2-  O494  1  0.46149800  0.04849065  0.95917053  1
  O2-  O495  1  0.41924139  0.33321853  0.32375584  1
  O2-  O496  1  0.41986800  0.31766569  0.64479380  1
  O2-  O497  1  0.41928437  0.34091952  0.98360882  1
  O2-  O498  1  0.42645453  0.58956138  0.31093281  1
  O2-  O499  1  0.40653899  0.52865703  0.62667791  1
  O2-  O500  1  0.41266057  0.57982999  0.97736066  1
  O2-  O501  1  0.39929360  0.82662326  0.31523881  1
  O2-  O502  1  0.41791877  0.84036463  0.64542002  1
  O2-  O503  1  0.42898453  0.83736981  0.97675184  1
  O2-  O504  1  0.63444017  0.06877021  0.30383050  1
  O2-  O505  1  0.67152684  0.07450505  0.63774176  1
  O2-  O506  1  0.67946706  0.08275711  0.97344884  1
  O2-  O507  1  0.66632957  0.32736985  0.31684521  1
  O2-  O508  1  0.67896371  0.34550181  0.63770704  1
  O2-  O509  1  0.67370192  0.33532597  0.98883181  1
  O2-  O510  1  0.66225640  0.57582537  0.31845893  1
  O2-  O511  1  0.67701313  0.59335528  0.63946154  1
  O2-  O512  1  0.66233404  0.57289349  0.97820491  1
  O2-  O513  1  0.66167511  0.80474499  0.27746131  1
  O2-  O514  1  0.62871731  0.80214758  0.62827558  1
  O2-  O515  1  0.66769519  0.83129874  0.98896669  1
  O2-  O516  1  0.92012544  0.07563876  0.30055732  1
  O2-  O517  1  0.93310587  0.10650398  0.64477508  1
  O2-  O518  1  0.90979832  0.07721741  0.98264553  1
  O2-  O519  1  0.91737668  0.32955573  0.31106540  1
  O2-  O520  1  0.90692566  0.33274547  0.64223126  1
  O2-  O521  1  0.91410870  0.32469981  0.97964639  1
  O2-  O522  1  0.89909877  0.57070592  0.30625078  1
  O2-  O523  1  0.92677839  0.57310629  0.62739263  1
  O2-  O524  1  0.90725339  0.58309533  0.99147920  1
  O2-  O525  1  0.90177594  0.81203100  0.32266151  1
  O2-  O526  1  0.86183655  0.81945929  0.64224720  1
  O2-  O527  1  0.89887871  0.81714786  0.97513884  1
  O2-  O528  1  0.07904810  0.16138077  0.02222928  1
  O2-  O529  1  0.06875446  0.14788400  0.35919392  1
  O2-  O530  1  0.09531650  0.17985062  0.69141012  1
  O2-  O531  1  0.07444920  0.41207083  0.01960140  1
  O2-  O532  1  0.08237524  0.41197772  0.35698099  1
  O2-  O533  1  0.06611942  0.41291594  0.67219864  1
  O2-  O534  1  0.07648033  0.67732563  0.02605971  1
  O2-  O535  1  0.07483126  0.66694534  0.34860153  1
  O2-  O536  1  0.06367249  0.66594438  0.69584991  1
  O2-  O537  1  0.11159082  0.94343644  0.00694533  1
  O2-  O538  1  0.07890930  0.91546946  0.35451018  1
  O2-  O539  1  0.09162187  0.90647532  0.66974570  1
  O2-  O540  1  0.29978345  0.20749945  0.03364683  1
  O2-  O541  1  0.32413118  0.16613460  0.36018384  1
  O2-  O542  1  0.34450375  0.17121407  0.69858528  1
  O2-  O543  1  0.33495786  0.41720836  0.02134509  1
  O2-  O544  1  0.35120773  0.43243164  0.37006118  1
  O2-  O545  1  0.33545613  0.40217872  0.75066015  1
  O2-  O546  1  0.38952924  0.69337258  0.04255349  1
  O2-  O547  1  0.33793263  0.66598482  0.36550708  1
  O2-  O548  1  0.33132937  0.68218065  0.67940108  1
  O2-  O549  1  0.31925311  0.85826194  0.03877783  1
  O2-  O550  1  0.32580550  0.92042678  0.34776945  1
  O2-  O551  1  0.34118881  0.92747473  0.68752719  1
  O2-  O552  1  0.60177347  0.17064612  0.01858981  1
  O2-  O553  1  0.57254436  0.16308905  0.35725208  1
  O2-  O554  1  0.56382941  0.20147729  0.69440376  1
  O2-  O555  1  0.58512580  0.41179536  0.02991230  1
  O2-  O556  1  0.58650358  0.41423587  0.35390636  1
  O2-  O557  1  0.59161145  0.42284760  0.68317206  1
  O2-  O558  1  0.57240934  0.65497053  0.00826958  1
  O2-  O559  1  0.59139882  0.66911470  0.35428316  1
  O2-  O560  1  0.57808070  0.64835047  0.67341206  1
  O2-  O561  1  0.58823608  0.92067345  0.01889664  1
  O2-  O562  1  0.56832676  0.91378479  0.33992632  1
  O2-  O563  1  0.58337053  0.90943027  0.68973950  1
  O2-  O564  1  0.83455365  0.16128892  0.02658822  1
  O2-  O565  1  0.86179403  0.16872294  0.36050350  1
  O2-  O566  1  0.84266056  0.17914564  0.68749920  1
  O2-  O567  1  0.83534104  0.41492751  0.02633287  1
  O2-  O568  1  0.83534122  0.41276570  0.35154283  1
  O2-  O569  1  0.83951636  0.41763489  0.66840310  1
  O2-  O570  1  0.82399785  0.66513931  0.02083771  1
  O2-  O571  1  0.81727098  0.64566625  0.33802340  1
  O2-  O572  1  0.82302712  0.62909485  0.70000055  1
  O2-  O573  1  0.83309905  0.91032554  0.02771123  1
  O2-  O574  1  0.75822406  0.93982899  0.36839866  1
  O2-  O575  1  0.83367999  0.94289216  0.69820547  1
