# generated using pymatgen
data_H2O
_symmetry_space_group_name_H-M   'P 1'
_cell_length_a   17.98376478
_cell_length_b   17.99124709
_cell_length_c   21.99987322
_cell_angle_alpha   90.04129932
_cell_angle_beta   89.96820125
_cell_angle_gamma   120.01091381
_symmetry_Int_Tables_number   1
_chemical_formula_structural   H2O
_chemical_formula_sum   'H384 O192'
_cell_volume   6163.74687977
_cell_formula_units_Z   192
loop_
 _symmetry_equiv_pos_site_id
 _symmetry_equiv_pos_as_xyz
  1  'x, y, z'
loop_
 _atom_type_symbol
 _atom_type_oxidation_number
  H+  1.0
  O2-  -2.0
loop_
 _atom_site_type_symbol
 _atom_site_label
 _atom_site_symmetry_multiplicity
 _atom_site_fract_x
 _atom_site_fract_y
 _atom_site_fract_z
 _atom_site_occupancy
  H+  H0  1  0.35230036  0.47776531  0.16411053  1
  H+  H1  1  0.36412934  0.71963799  0.49831126  1
  H+  H2  1  0.87928140  0.98141215  0.67124502  1
  H+  H3  1  0.38280988  0.77174932  0.65515481  1
  H+  H4  1  0.21498046  0.36518110  0.67606656  1
  H+  H5  1  0.96500483  0.86001380  0.18599428  1
  H+  H6  1  0.76684059  0.63331530  0.33984620  1
  H+  H7  1  0.09966234  0.72781594  0.33452964  1
  H+  H8  1  0.76085975  0.38826914  0.34690898  1
  H+  H9  1  0.88805447  0.27811732  0.97741764  1
  H+  H10  1  0.16757013  0.28156286  0.99565354  1
  H+  H11  1  0.88375984  0.11726454  0.15669232  1
  H+  H12  1  0.65689814  0.83175351  0.56192008  1
  H+  H13  1  0.64446516  0.12213009  0.50158881  1
  H+  H14  1  0.41203519  0.64144663  0.84128558  1
  H+  H15  1  0.87793284  0.89094110  0.67281320  1
  H+  H16  1  0.36120947  0.87827627  0.48818263  1
  H+  H17  1  0.85554430  0.22650371  0.48575461  1
  H+  H18  1  0.84310004  0.64746441  0.19306365  1
  H+  H19  1  0.61036212  0.14846726  0.15564912  1
  H+  H20  1  0.76091602  0.59581822  0.84828836  1
  H+  H21  1  0.71859731  0.35788648  0.66783599  1
  H+  H22  1  0.11317979  0.89001608  0.49211895  1
  H+  H23  1  0.68515875  0.39324958  0.49239479  1
  H+  H24  1  0.11489951  -0.03185165  0.81176618  1
  H+  H25  1  0.73879265  0.51402243  0.88816317  1
  H+  H26  1  0.65924626  0.08562560  0.10176977  1
  H+  H27  1  0.37580738  0.35932183  0.66391364  1
  H+  H28  1  0.36145714  0.98447850  0.00827549  1
  H+  H29  1  0.36736936  0.38541914  0.34439293  1
  H+  H30  1  0.87965511  0.85724490  0.33837071  1
  H+  H31  1  0.46704464  0.11458257  0.84155538  1
  H+  H32  1  0.23115604  0.27179465  0.56259565  1
  H+  H33  1  0.51998489  0.13064000  0.33570291  1
  H+  H34  1  0.39391878  0.87412481  0.83791510  1
  H+  H35  1  0.61637678  0.48119369  0.49367098  1
  H+  H36  1  1.02580004  0.87951093  0.81932099  1
  H+  H37  1  0.58893385  0.45236345  1.00966450  1
  H+  H38  1  0.60980299  0.14057171  0.67866828  1
  H+  H39  1  0.88644871  0.36471614  0.98124308  1
  H+  H40  1  0.72448841  0.11714523  0.15421234  1
  H+  H41  1  0.94714856  0.10968143  1.05904233  1
  H+  H42  1  0.61162125  0.88131462  1.00253865  1
  H+  H43  1  0.98965639  0.64384554  0.49488942  1
  H+  H44  1  0.96449187  0.35972565  0.65446647  1
  H+  H45  1  0.86054645  0.12295352  0.33629192  1
  H+  H46  1  0.14390130  0.26657552  0.16049185  1
  H+  H47  1  0.63909243  0.24533360  0.47968217  1
  H+  H48  1  0.56488137  0.40218222  0.10366577  1
  H+  H49  1  0.31646628  0.13678144  1.00793680  1
  H+  H50  1  0.02451649  0.13130487  0.35116012  1
  H+  H51  1  0.62245633  0.51534938  0.17290715  1
  H+  H52  1  0.13725360  1.01954856  0.50195488  1
  H+  H53  1  0.89563216  0.41353971  0.81672520  1
  H+  H54  1  0.00203345  0.12071903  0.00246660  1
  H+  H55  1  0.14414840  0.85465291  0.98480209  1
  H+  H56  1  0.60667449  0.97627804  0.49141377  1
  H+  H57  1  0.88054594  1.02528183  0.50488685  1
  H+  H58  1  0.89264163  0.49791690  0.16849151  1
  H+  H59  1  0.41634800  0.57735016  0.60505963  1
  H+  H60  1  0.14332973  0.76574393  0.98668711  1
  H+  H61  1  0.12499961  0.01215002  0.17516558  1
  H+  H62  1  0.97076231  0.86571384  0.50416344  1
  H+  H63  1  0.41204749  0.55422993  0.83964737  1
  H+  H64  1  0.07477031  0.40750541  0.40995318  1
  H+  H65  1  0.62218003  0.26493037  0.85096207  1
  H+  H66  1  0.70345581  0.78402593  0.93985941  1
  H+  H67  1  0.51068037  0.11132416  0.50758102  1
  H+  H68  1  0.86736049  0.63804416  0.00918889  1
  H+  H69  1  0.63194416  0.86319760  0.50013467  1
  H+  H70  1  0.90045895  0.33203755  0.55930579  1
  H+  H71  1  0.91389412  0.77947475  1.03514675  1
  H+  H72  1  0.38238195  0.85695410  0.32706192  1
  H+  H73  1  0.39353146  0.60947348  0.51062781  1
  H+  H74  1  0.85892927  0.47512155  0.66841692  1
  H+  H75  1  0.23930404  0.61470798  -0.00927271  1
  H+  H76  1  0.24438479  0.37175819  0.15615083  1
  H+  H77  1  0.60788151  0.58522192  -0.01111620  1
  H+  H78  1  0.28047844  0.88931565  0.00556537  1
  H+  H79  1  0.27103706  0.88300931  0.33578774  1
  H+  H80  1  0.10877654  0.13184668  0.66192951  1
  H+  H81  1  0.26326410  0.13643918  0.49023745  1
  H+  H82  1  0.75498080  0.36884446  0.00721661  1
  H+  H83  1  0.88121418  0.77702200  0.50407184  1
  H+  H84  1  0.12230613  0.48014154  0.34859790  1
  H+  H85  1  0.10986666  0.45618754  0.13277406  1
  H+  H86  1  0.11249365  -0.02930605  0.66788573  1
  H+  H87  1  0.72469630  0.12451224  0.83227774  1
  H+  H88  1  0.71389794  0.42945887  0.20434648  1
  H+  H89  1  0.52813278  0.89953117  0.82142697  1
  H+  H90  1  0.11123954  0.12851865  0.16477104  1
  H+  H91  1  0.16526317  0.60953490  0.82611899  1
  H+  H92  1  0.38545147  0.74669100  0.82489665  1
  H+  H93  1  0.78610638  0.90044937  0.81839622  1
  H+  H94  1  0.35709866  0.22292557  0.82387485  1
  H+  H95  1  0.87755979  0.97506194  0.01487607  1
  H+  H96  1  0.63317968  0.02583640  0.65775937  1
  H+  H97  1  0.13886443  0.77004024  0.16814965  1
  H+  H98  1  0.52326821  0.63504385  0.67588015  1
  H+  H99  1  0.86019314  0.13966544  -0.00371886  1
  H+  H100  1  0.60164033  0.69136088  0.76477427  1
  H+  H101  1  0.35570798  0.13307932  0.82318523  1
  H+  H102  1  0.05568536  0.64284144  0.81182164  1
  H+  H103  1  0.13307576  0.10694830  0.50534732  1
  H+  H104  1  0.12790702  0.63750884  0.16589815  1
  H+  H105  1  0.01829184  0.88156183  0.33920527  1
  H+  H106  1  0.38827854  0.77030606  0.32998145  1
  H+  H107  1  0.86111620  0.35684486  0.50298522  1
  H+  H108  1  0.38417452  1.02872482  0.17423306  1
  H+  H109  1  0.47990068  0.11831176  0.66829665  1
  H+  H110  1  0.25031449  0.63702127  0.18377245  1
  H+  H111  1  0.07487958  0.64326475  0.48724875  1
  H+  H112  1  0.36646650  0.97824154  0.66929942  1
  H+  H113  1  0.96915284  0.58867810  0.98671341  1
  H+  H114  1  0.57524913  0.16919033  0.77451436  1
  H+  H115  1  0.34686495  0.21942176  0.16627189  1
  H+  H116  1  0.47335842  0.35490705  0.32974228  1
  H+  H117  1  0.60120955  0.22328298  0.00717033  1
  H+  H118  1  0.12989098  0.51706852  0.66880236  1
  H+  H119  1  0.35931319  0.23507946  0.49424575  1
  H+  H120  1  0.47003932  0.85609118  0.50254257  1
  H+  H121  1  0.60932460  0.23016384  0.68024091  1
  H+  H122  1  0.37339030  0.35686803  0.17793534  1
  H+  H123  1  0.80432338  0.41252338  0.43361747  1
  H+  H124  1  0.47001790  0.12074166  0.17794373  1
  H+  H125  1  0.48379585  0.62321016  0.00038755  1
  H+  H126  1  0.88075607  0.00130768  0.33914643  1
  H+  H127  1  0.85684953  0.88496226  0.16632882  1
  H+  H128  1  0.04988242  0.40440469  0.73807348  1
  H+  H129  1  0.62632469  0.77161870  0.65072281  1
  H+  H130  1  0.61410940  0.73097190  0.49310641  1
  H+  H131  1  0.61364897  0.63841461  0.67232340  1
  H+  H132  1  0.27191243  0.46718997  0.86751247  1
  H+  H133  1  0.38175206  1.01911455  0.32882013  1
  H+  H134  1  0.88469986  0.61417935  0.66169080  1
  H+  H135  1  0.12893286  0.00599617  0.96060468  1
  H+  H136  1  0.62857696  0.26726077  0.32658280  1
  H+  H137  1  0.63144302  0.35980918  0.67035251  1
  H+  H138  1  0.36258076  0.22252196  0.34203108  1
  H+  H139  1  0.33554211  0.42579618  0.09894887  1
  H+  H140  1  0.37523239  0.49234981  1.01196206  1
  H+  H141  1  0.59488364  0.37884185  0.16592206  1
  H+  H142  1  0.37339778  0.73882215  0.16277919  1
  H+  H143  1  0.65709205  0.57665751  0.27017899  1
  H+  H144  1  0.17007320  0.35829130  0.82769465  1
  H+  H145  1  0.90322130  0.83307119  0.24433495  1
  H+  H146  1  0.55241823  0.66899586  0.82771752  1
  H+  H147  1  0.89244752  0.34860490  0.17074556  1
  H+  H148  1  0.62048298  0.35233697  0.84986059  1
  H+  H149  1  0.71080480  0.60723715  0.17366819  1
  H+  H150  1  0.09591853  0.38169865  0.68421781  1
  H+  H151  1  0.37727385  0.27076516  0.66147764  1
  H+  H152  1  0.06859658  0.62344491  0.07349480  1
  H+  H153  1  0.38060672  0.61312993  0.17580018  1
  H+  H154  1  0.62615155  0.86061322  0.64997846  1
  H+  H155  1  0.85496215  0.88893683  0.50025818  1
  H+  H156  1  0.74955419  0.85807167  -0.01258551  1
  H+  H157  1  0.51251069  0.63192539  0.16412987  1
  H+  H158  1  0.61112386  0.23576725  0.16942094  1
  H+  H159  1  0.85169934  0.63759470  0.49556150  1
  H+  H160  1  1.04295598  0.88677956  1.01534351  1
  H+  H161  1  0.85746828  0.38544570  0.66799868  1
  H+  H162  1  0.61979498  0.90515141  0.81514442  1
  H+  H163  1  0.52380427  0.39649047  0.83497233  1
  H+  H164  1  0.37724898  0.97235682  0.49037967  1
  H+  H165  1  0.88706516  0.65037007  0.81494685  1
  H+  H166  1  0.63038883  0.76668549  0.17775712  1
  H+  H167  1  0.27868587  0.88794695  0.82044416  1
  H+  H168  1  0.22333625  0.86304428  0.16839083  1
  H+  H169  1  0.89641897  0.77779639  0.83562850  1
  H+  H170  1  0.86778445  0.13869146  0.81535214  1
  H+  H171  1  0.35244377  0.13320946  0.16303314  1
  H+  H172  1  0.38797809  0.35891055  0.50514494  1
  H+  H173  1  0.89372364  0.52241330  0.94430240  1
  H+  H174  1  0.84844364  0.47866228  0.34957062  1
  H+  H175  1  0.16480121  0.83380582  0.26391812  1
  H+  H176  1  0.91599424  0.86988000  0.03456706  1
  H+  H177  1  0.63284677  0.85869214  0.32969058  1
  H+  H178  1  0.45955230  1.11672548  -0.00456716  1
  H+  H179  1  0.02701463  0.37810094  0.33739132  1
  H+  H180  1  0.39620893  0.52172952  0.50965304  1
  H+  H181  1  0.14308638  0.57561092  0.51320016  1
  H+  H182  1  0.23348063  0.50587238  0.82353039  1
  H+  H183  1  0.88676478  0.11520005  0.65542805  1
  H+  H184  1  0.63261707  0.52307983  0.66258887  1
  H+  H185  1  0.35581373  0.47972659  0.67805792  1
  H+  H186  1  0.13693814  0.35359381  0.14862124  1
  H+  H187  1  0.12827566  0.27324475  0.66970422  1
  H+  H188  1  0.90063108  0.86794973  0.83437297  1
  H+  H189  1  0.11432718  0.11819249  0.80738374  1
  H+  H190  1  0.51926369  0.88942843  0.66500655  1
  H+  H191  1  0.83869038  0.17240240  0.08749185  1
  H+  H192  1  0.65508534  0.32499178  0.93723456  1
  H+  H193  1  0.14835610  0.36260140  0.33961614  1
  H+  H194  1  0.37183969  0.63532322  0.34448246  1
  H+  H195  1  0.85641534  0.63405800  0.33731419  1
  H+  H196  1  0.53698751  0.38563857  0.49679642  1
  H+  H197  1  0.14401165  0.72838049  0.81348801  1
  H+  H198  1  0.61108621  0.13323738  0.33037112  1
  H+  H199  1  0.86036345  0.51651614  0.51061603  1
  H+  H200  1  0.90685618  0.26531909  0.32307775  1
  H+  H201  1  0.04818800  0.34654301  0.82994698  1
  H+  H202  1  0.83216434  0.15935780  0.39260487  1
  H+  H203  1  0.28620127  0.40050235  1.01001109  1
  H+  H204  1  0.72221427  0.61594640  0.50616372  1
  H+  H205  1  0.22968284  0.86649163  0.49991950  1
  H+  H206  1  0.86879697  0.22456262  0.15116605  1
  H+  H207  1  0.22473024  0.11175013  0.65774606  1
  H+  H208  1  0.14431267  0.60059776  0.98770387  1
  H+  H209  1  0.01669309  0.13247357  0.66116700  1
  H+  H210  1  0.11406531  0.13373589  0.34674952  1
  H+  H211  1  0.72634430  0.11195220  0.50388401  1
  H+  H212  1  0.47872369  0.86595354  0.17574773  1
  H+  H213  1  0.13601917  0.86394067  0.32369783  1
  H+  H214  1  0.63151959  0.60789601  0.33085957  1
  H+  H215  1  -0.01953304  0.34843925  0.15964135  1
  H+  H216  1  0.63320652  0.61479276  0.50701859  1
  H+  H217  1  0.22321919  0.10953109  0.32948986  1
  H+  H218  1  0.73123162  0.11223730  0.31716756  1
  H+  H219  1  0.46043814  0.35428289  0.17634468  1
  H+  H220  1  0.76989303  0.63338129  0.67249789  1
  H+  H221  1  0.62821386  0.35268669  0.00087286  1
  H+  H222  1  0.38006412  0.02494635  0.83663851  1
  H+  H223  1  0.11801593  0.21797979  0.50492336  1
  H+  H224  1  0.85101584  0.73279932  0.17092489  1
  H+  H225  1  0.86008662  0.72263475  0.67070147  1
  H+  H226  1  0.50674668  0.36228471  1.01412171  1
  H+  H227  1  0.39179921  0.87342500  0.99542514  1
  H+  H228  1  0.60794727  0.47100042  0.34031441  1
  H+  H229  1  0.63775624  0.03664707  0.83109735  1
  H+  H230  1  0.89815878  0.58504283  0.15133433  1
  H+  H231  1  0.61195101  0.97334663  0.33543092  1
  H+  H232  1  0.15075740  0.36013878  -0.01355214  1
  H+  H233  1  0.47934069  0.61133955  0.32760523  1
  H+  H234  1  0.30080495  0.65277551  0.82524463  1
  H+  H235  1  0.97767286  0.85425010  0.65598396  1
  H+  H236  1  0.17532841  0.54818737  0.20722320  1
  H+  H237  1  0.22297427  0.11599800  0.81729214  1
  H+  H238  1  0.60647994  0.13873481  0.83231863  1
  H+  H239  1  0.10724588  0.25766090  0.81757415  1
  H+  H240  1  0.37491382  0.35468191  0.84498079  1
  H+  H241  1  0.83728607  0.46043315  0.01953058  1
  H+  H242  1  0.28136689  0.62387133  0.50026969  1
  H+  H243  1  0.76990909  0.13508504  0.66654723  1
  H+  H244  1  0.87744296  0.26968138  0.65194100  1
  H+  H245  1  0.77692186  0.37173796  0.16665820  1
  H+  H246  1  0.13355087  0.78359354  0.50266610  1
  H+  H247  1  0.76409836  0.88802631  0.49837265  1
  H+  H248  1  0.36535635  0.27353952  0.99887531  1
  H+  H249  1  0.02667928  0.13755178  0.15734136  1
  H+  H250  1  0.37168582  0.64907821  0.00934446  1
  H+  H251  1  0.62222779  0.72193880  0.01332030  1
  H+  H252  1  0.85352621  0.43566233  0.76180083  1
  H+  H253  1  0.51832355  0.38880618  0.67913133  1
  H+  H254  1  0.62894658  0.02268949  1.01835972  1
  H+  H255  1  0.10253783  0.44364125  0.49770719  1
  H+  H256  1  0.38553847  0.61150052  0.66204206  1
  H+  H257  1  0.47725377  0.86640165  0.99393248  1
  H+  H258  1  0.09588424  0.86953013  0.15573045  1
  H+  H259  1  0.59964818  0.62822119  0.16617221  1
  H+  H260  1  0.88021543  0.76845204  0.33192223  1
  H+  H261  1  0.61293660  0.96967324  0.15099075  1
  H+  H262  1  0.97220245  0.11301832  0.50493414  1
  H+  H263  1  0.96825090  0.61587662  0.32457765  1
  H+  H264  1  0.61230974  0.72299711  0.34237168  1
  H+  H265  1  0.49775092  0.03467963  0.54737610  1
  H+  H266  1  0.77009898  0.13797199  0.00566993  1
  H+  H267  1  0.02809261  0.38683537  -0.01489501  1
  H+  H268  1  0.65082740  0.55465766  0.93732271  1
  H+  H269  1  0.86140498  0.14008091  0.48877430  1
  H+  H270  1  0.28696923  0.38224620  0.49892936  1
  H+  H271  1  0.36383309  0.13784982  0.66797777  1
  H+  H272  1  0.38215056  0.86116207  0.65441196  1
  H+  H273  1  0.10733634  0.97151475  0.33865514  1
  H+  H274  1  0.11788852  0.72518285  0.66138295  1
  H+  H275  1  0.52676096  0.63939619  0.49765612  1
  H+  H276  1  0.41812996  0.83551087  0.23531075  1
  H+  H277  1  0.00172235  0.37630481  0.48739509  1
  H+  H278  1  0.14061572  0.85735124  0.83019712  1
  H+  H279  1  0.03320555  0.62416997  0.16364473  1
  H+  H280  1  0.14061047  0.86190074  0.65615615  1
  H+  H281  1  0.83412793  0.66693271  0.76446978  1
  H+  H282  1  0.76605116  0.87805328  0.34960231  1
  H+  H283  1  0.23812059  0.60386121  0.34583610  1
  H+  H284  1  0.27343597  0.63398075  0.67627070  1
  H+  H285  1  0.92129242  0.54502124  0.82156478  1
  H+  H286  1  0.52089689  0.88607635  0.33715183  1
  H+  H287  1  0.02548974  0.53307827  0.04242980  1
  H+  H288  1  0.30907229  0.16820383  0.07363964  1
  H+  H289  1  0.17365058  0.83804679  0.59596599  1
  H+  H290  1  0.36545620  0.73517102  0.00705764  1
  H+  H291  1  0.82387809  0.90944733  0.41166292  1
  H+  H292  1  0.33137144  0.16466187  0.72752607  1
  H+  H293  1  0.83227044  0.91244446  0.07042075  1
  H+  H294  1  0.57931762  0.92175860  0.72429857  1
  H+  H295  1  0.02775000  0.87591774  0.10997008  1
  H+  H296  1  0.36483748  0.89354465  0.16269196  1
  H+  H297  1  0.09723742  0.66820650  0.72109348  1
  H+  H298  1  0.33900260  0.67754421  0.10321173  1
  H+  H299  1  0.82357191  0.38914582  0.10149274  1
  H+  H300  1  0.40869453  0.08285092  0.27174274  1
  H+  H301  1  0.12265026  0.47232920  -0.01081362  1
  H+  H302  1  0.32263727  0.43002539  0.74036874  1
  H+  H303  1  0.94131888  0.32355018  0.26322074  1
  H+  H304  1  0.32870776  0.17087765  0.42719602  1
  H+  H305  1  0.66480052  0.08858141  0.60047473  1
  H+  H306  1  0.40636203  0.32244939  0.56705047  1
  H+  H307  1  0.33968335  0.91911517  0.76198843  1
  H+  H308  1  0.18486669  0.32055533  0.58542544  1
  H+  H309  1  0.97447953  0.61400111  0.65656693  1
  H+  H310  1  0.58303207  0.66360642  0.07306356  1
  H+  H311  1  0.17150600  0.55736230  0.57630328  1
  H+  H312  1  0.56202469  0.17220653  0.06851189  1
  H+  H313  1  0.91465870  0.82829039  0.59860482  1
  H+  H314  1  0.39078797  0.52178515  0.32931493  1
  H+  H315  1  0.36028284  0.13113606  0.34595204  1
  H+  H316  1  0.33235761  0.91275164  0.39489134  1
  H+  H317  1  0.85212579  0.92603138  0.76086240  1
  H+  H318  1  0.57709517  0.91745700  0.43156648  1
  H+  H319  1  0.42354847  0.84609805  0.89889551  1
  H+  H320  1  0.19626704  0.17623267  0.02831957  1
  H+  H321  1  0.88927366  1.01493768  0.82587098  1
  H+  H322  1  0.85579707  0.97330209  0.15988765  1
  H+  H323  1  0.18994299  0.58359441  0.88920302  1
  H+  H324  1  0.01306949  0.11717667  0.80985709  1
  H+  H325  1  0.05812152  0.67648681  0.39516787  1
  H+  H326  1  0.13443169  0.94483159  0.04496877  1
  H+  H327  1  0.87506973  0.23067464  0.81554383  1
  H+  H328  1  0.65169012  0.79920434  0.82670376  1
  H+  H329  1  0.66534543  0.82965703  0.27157093  1
  H+  H330  1  0.91487464  0.08584594  0.59492567  1
  H+  H331  1  0.17209661  0.82761392  0.88918819  1
  H+  H332  1  0.58143731  0.41410289  0.40089873  1
  H+  H333  1  0.08553122  0.16707326  0.44094848  1
  H+  H334  1  0.43261853  0.08644422  0.60488431  1
  H+  H335  1  0.93520680  0.34473555  0.88460662  1
  H+  H336  1  0.83186529  0.65539942  0.07044570  1
  H+  H337  1  0.68100329  0.86283620  0.88412979  1
  H+  H338  1  0.33582004  0.92218132  0.10242526  1
  H+  H339  1  0.08064324  0.39903518  0.07363562  1
  H+  H340  1  0.34325279  0.67472585  0.73063488  1
  H+  H341  1  0.92831759  0.08686277  0.88100130  1
  H+  H342  1  0.07992958  0.91436219  0.43202421  1
  H+  H343  1  0.66921587  0.08003873  0.25940888  1
  H+  H344  1  0.62431245  0.47093145  0.83501807  1
  H+  H345  1  0.58207278  0.66443401  0.40220639  1
  H+  H346  1  0.40079438  0.08476779  0.93652282  1
  H+  H347  1  0.27635076  0.88865617  0.66754425  1
  H+  H348  1  0.72055630  0.85577846  0.17533228  1
  H+  H349  1  0.13660336  0.60808945  0.65659636  1
  H+  H350  1  0.61266885  0.88038915  0.16295908  1
  H+  H351  1  0.62364680  0.11067708  1.01943690  1
  H+  H352  1  0.62460123  0.35601142  0.33150679  1
  H+  H353  1  0.15349675  0.07590845  0.87334662  1
  H+  H354  1  0.38819920  0.37144210  0.99748369  1
  H+  H355  1  0.34461904  0.66515003  0.40574158  1
  H+  H356  1  0.16670881  0.07960904  0.59769417  1
  H+  H357  1  0.94352834  0.04275449  0.28449462  1
  H+  H358  1  0.40819786  0.57910460  0.23519873  1
  H+  H359  1  0.57799055  0.41989883  0.73835647  1
  H+  H360  1  0.21585814  0.10103884  0.17511288  1
  H+  H361  1  0.14510524  0.27336783  0.33984333  1
  H+  H362  1  0.16208280  0.07970663  0.27058676  1
  H+  H363  1  0.42884357  0.59909916  0.93928422  1
  H+  H364  1  0.67349928  0.34802044  0.24686782  1
  H+  H365  1  0.11910918  0.16680470  0.06869397  1
  H+  H366  1  0.41031024  0.82759118  0.56233414  1
  H+  H367  1  0.58139696  0.89883190  0.06702864  1
  H+  H368  1  0.16930725  0.59277324  0.29643010  1
  H+  H369  1  0.07306402  0.14965731  0.74347725  1
  H+  H370  1  0.40894080  0.32354892  0.27213092  1
  H+  H371  1  0.59641405  0.17801695  0.42483254  1
  H+  H372  1  0.89873126  0.57840216  0.56938377  1
  H+  H373  1  0.34023841  0.41585694  0.43531440  1
  H+  H374  1  0.82772581  0.66837312  0.43387215  1
  H+  H375  1  0.08392622  0.90770352  0.72564807  1
  H+  H376  1  0.66282432  0.58099952  0.60201200  1
  H+  H377  1  0.83315986  0.16742111  0.72383760  1
  H+  H378  1  0.95311125  0.61202127  0.87769173  1
  H+  H379  1  0.90960357  0.57519545  0.26538536  1
  H+  H380  1  0.27868740  0.38618613  0.34636025  1
  H+  H381  1  0.40503146  0.32816252  0.90476553  1
  H+  H382  1  0.90784590  0.09346394  0.21941968  1
  H+  H383  1  0.12749166  0.09353619  0.96762986  1
  O2-  O384  1  0.08815238  0.16380323  0.14518459  1
  O2-  O385  1  0.08116096  0.16052262  0.48641268  1
  O2-  O386  1  0.07466151  0.14685759  0.79162705  1
  O2-  O387  1  0.08057850  0.39604402  0.12042720  1
  O2-  O388  1  0.06134121  0.39399874  0.47295462  1
  O2-  O389  1  0.02472837  0.38631854  0.82043750  1
  O2-  O390  1  0.09122861  0.65713322  0.14487120  1
  O2-  O391  1  0.05031608  0.67953828  0.47886283  1
  O2-  O392  1  0.11690114  0.66823662  0.79784166  1
  O2-  O393  1  0.06311906  0.90008202  0.14707757  1
  O2-  O394  1  0.08074161  0.91843468  0.47748631  1
  O2-  O395  1  0.08671224  0.90629038  0.80178676  1
  O2-  O396  1  0.31727446  0.15955723  0.14966160  1
  O2-  O397  1  0.32530778  0.17279763  0.47465345  1
  O2-  O398  1  0.32699979  0.16456368  0.80556709  1
  O2-  O399  1  0.32460441  0.41788113  0.14527584  1
  O2-  O400  1  0.34525703  0.41628953  0.48120260  1
  O2-  O401  1  0.26024465  0.46904501  0.82437906  1
  O2-  O402  1  0.34112018  0.67701501  0.14873226  1
  O2-  O403  1  0.34024331  0.65882094  0.48356967  1
  O2-  O404  1  0.36125938  0.68622106  0.80933009  1
  O2-  O405  1  0.33312634  0.92245661  0.14796279  1
  O2-  O406  1  0.33672946  0.91468388  0.47360826  1
  O2-  O407  1  0.34030984  0.92126118  0.80748763  1
  O2-  O408  1  0.57659658  0.17867275  0.15161030  1
  O2-  O409  1  0.60222076  0.18346297  0.47002752  1
  O2-  O410  1  0.57123940  0.16590638  0.81983891  1
  O2-  O411  1  0.56400576  0.40703167  0.14980783  1
  O2-  O412  1  0.59375970  0.42101638  0.47785372  1
  O2-  O413  1  0.58029880  0.41617810  0.81573526  1
  O2-  O414  1  0.57373020  0.66248192  0.15051097  1
  O2-  O415  1  0.58546058  0.66924000  0.47914492  1
  O2-  O416  1  0.60992042  0.70308926  0.80943329  1
  O2-  O417  1  0.58086839  0.90682354  0.14321884  1
  O2-  O418  1  0.57455472  0.91559934  0.47696228  1
  O2-  O419  1  0.58517731  0.93118446  0.80086547  1
  O2-  O420  1  0.83637146  0.16519780  0.13269359  1
  O2-  O421  1  0.82878848  0.16612520  0.47030092  1
  O2-  O422  1  0.83883456  0.17032558  0.80178094  1
  O2-  O423  1  0.83377565  0.39320191  0.14652927  1
  O2-  O424  1  0.80254320  0.41020183  0.48230654  1
  O2-  O425  1  0.87001829  0.44892338  0.80569064  1
  O2-  O426  1  0.82370541  0.66979551  0.16006042  1
  O2-  O427  1  0.82659609  0.67214787  0.47914960  1
  O2-  O428  1  0.84316132  0.66836422  0.80968400  1
  O2-  O429  1  0.82546302  0.91219493  0.14712959  1
  O2-  O430  1  0.82618200  0.92010595  0.48400488  1
  O2-  O431  1  0.84862948  0.92743771  0.80798002  1
  O2-  O432  1  0.15489039  0.07198171  0.19068624  1
  O2-  O433  1  0.16933645  0.08098933  0.51719812  1
  O2-  O434  1  0.15910274  0.08294719  0.82656666  1
  O2-  O435  1  0.17243942  0.33083895  0.16784945  1
  O2-  O436  1  0.20339492  0.30287891  0.54739894  1
  O2-  O437  1  0.11329041  0.30890048  0.83810867  1
  O2-  O438  1  0.19169828  0.60845872  0.20444025  1
  O2-  O439  1  0.17516842  0.55043063  0.53056116  1
  O2-  O440  1  0.19902263  0.58480445  0.84460295  1
  O2-  O441  1  0.16166469  0.83039011  0.18143179  1
  O2-  O442  1  0.17084397  0.84316363  0.51757024  1
  O2-  O443  1  0.17476291  0.83027546  0.84417775  1
  O2-  O444  1  0.40906179  0.08800250  0.19155927  1
  O2-  O445  1  0.46594212  0.06124147  0.53132451  1
  O2-  O446  1  0.40453080  0.08422914  0.85364887  1
  O2-  O447  1  0.40026052  0.32385785  0.19273990  1
  O2-  O448  1  0.40917316  0.32014711  0.52144690  1
  O2-  O449  1  0.40759282  0.32811439  0.85885465  1
  O2-  O450  1  0.40449462  0.57610929  0.18947149  1
  O2-  O451  1  0.42455144  0.58066326  0.52737026  1
  O2-  O452  1  0.44049046  0.61012230  0.85967160  1
  O2-  O453  1  0.41778222  0.83820724  0.18965961  1
  O2-  O454  1  0.40874931  0.82415358  0.51649242  1
  O2-  O455  1  0.42624462  0.84594469  0.85356735  1
  O2-  O456  1  0.66123290  0.08686810  0.14805478  1
  O2-  O457  1  0.66578947  0.08505491  0.51901753  1
  O2-  O458  1  0.66608203  0.09515854  0.84926977  1
  O2-  O459  1  0.68604203  0.36695997  0.20173983  1
  O2-  O460  1  0.71131612  0.35671895  0.49985122  1
  O2-  O461  1  0.64945699  0.32389757  0.86924601  1
  O2-  O462  1  0.65115892  0.57494855  0.18975786  1
  O2-  O463  1  0.66186188  0.58240560  0.52162898  1
  O2-  O464  1  0.71422396  0.54839230  0.87388626  1
  O2-  O465  1  0.66108429  0.82774248  0.19226374  1
  O2-  O466  1  0.66273575  0.83370366  0.51503922  1
  O2-  O467  1  0.68221010  0.86296412  0.83948149  1
  O2-  O468  1  0.91475415  0.08827696  0.17571908  1
  O2-  O469  1  0.91115317  0.08698350  0.51822818  1
  O2-  O470  1  0.92445832  0.08235984  0.83686555  1
  O2-  O471  1  0.92522876  0.31921399  0.18217699  1
  O2-  O472  1  0.89780503  0.33169457  0.51367425  1
  O2-  O473  1  0.93399290  0.33884249  0.83907434  1
  O2-  O474  1  0.92222933  0.56068562  0.17945637  1
  O2-  O475  1  0.89355681  0.57779425  0.52358738  1
  O2-  O476  1  0.95408894  0.60934488  0.83311180  1
  O2-  O477  1  0.90348130  0.83347515  0.19821285  1
  O2-  O478  1  0.91107544  0.83713100  0.52035556  1
  O2-  O479  1  0.93219819  0.83893928  0.84799207  1
  O2-  O480  1  0.16209408  0.08020493  0.31598500  1
  O2-  O481  1  0.16368375  0.08180776  0.64288366  1
  O2-  O482  1  0.14368777  0.06088032  0.94021373  1
  O2-  O483  1  0.17918760  0.33352050  0.32538005  1
  O2-  O484  1  0.15640335  0.33476384  0.65728327  1
  O2-  O485  1  0.19359699  0.34152382  0.98140435  1
  O2-  O486  1  0.17483220  0.57091555  0.33594577  1
  O2-  O487  1  0.16637456  0.57411247  0.64886024  1
  O2-  O488  1  0.18125395  0.57949419  0.97090345  1
  O2-  O489  1  0.16694687  0.83402685  0.30909097  1
  O2-  O490  1  0.17307020  0.83339627  0.64125715  1
  O2-  O491  1  0.17515371  0.82407564  0.97089421  1
  O2-  O492  1  0.41144411  0.08160908  0.31713283  1
  O2-  O493  1  0.42060293  0.08757248  0.64867905  1
  O2-  O494  1  0.39832970  0.08572975  0.98177853  1
  O2-  O495  1  0.41125276  0.32236456  0.31745448  1
  O2-  O496  1  0.40554789  0.33113891  0.64539645  1
  O2-  O497  1  0.40625621  0.33096611  0.98113091  1
  O2-  O498  1  0.41845922  0.58150082  0.31240786  1
  O2-  O499  1  0.41276662  0.57657768  0.65061191  1
  O2-  O500  1  0.42329980  0.59547931  0.98448617  1
  O2-  O501  1  0.41616087  0.82969295  0.31272467  1
  O2-  O502  1  0.41219169  0.83106195  0.63786215  1
  O2-  O503  1  0.41707890  0.83903890  0.97874331  1
  O2-  O504  1  0.66945018  0.08245098  0.30375091  1
  O2-  O505  1  0.66458344  0.08819556  0.64571406  1
  O2-  O506  1  0.66142702  0.08527405  1.02745680  1
  O2-  O507  1  0.65841236  0.32960934  0.31483206  1
  O2-  O508  1  0.65690872  0.32512854  0.65637478  1
  O2-  O509  1  0.66033209  0.32481015  0.98453259  1
  O2-  O510  1  0.66096714  0.57658946  0.31535587  1
  O2-  O511  1  0.66481371  0.58364277  0.64737409  1
  O2-  O512  1  0.60741890  0.53529057  0.96993505  1
  O2-  O513  1  0.66492963  0.82908631  0.31700151  1
  O2-  O514  1  0.65204562  0.82879795  0.63099123  1
  O2-  O515  1  0.69291021  0.82138139  0.96638022  1
  O2-  O516  1  0.91815933  0.05900000  0.31745834  1
  O2-  O517  1  0.92049866  0.08803014  0.64044562  1
  O2-  O518  1  0.94220877  0.09626888  1.01568800  1
  O2-  O519  1  0.94538829  0.32484920  0.30818423  1
  O2-  O520  1  0.90568369  0.33036010  0.63665574  1
  O2-  O521  1  0.91974209  0.33932820  0.96397915  1
  O2-  O522  1  0.90602705  0.58131174  0.30955987  1
  O2-  O523  1  0.91315697  0.58328321  0.64361794  1
  O2-  O524  1  0.91730266  0.57881860  0.96342709  1
  O2-  O525  1  0.91060637  0.83031139  0.31847177  1
  O2-  O526  1  0.91587054  0.82500398  0.64392100  1
  O2-  O527  1  0.95109035  0.84276988  1.04417561  1
  O2-  O528  1  0.13989834  0.17406441  0.02585307  1
  O2-  O529  1  0.08522673  0.16426269  0.36445915  1
  O2-  O530  1  0.07790146  0.16130577  0.67861266  1
  O2-  O531  1  0.08678181  0.41114570  0.00305030  1
  O2-  O532  1  0.08591839  0.41441899  0.36147423  1
  O2-  O533  1  0.06426274  0.41252899  0.69408371  1
  O2-  O534  1  0.05068670  0.59384454  0.03236790  1
  O2-  O535  1  0.06202680  0.66915250  0.35107691  1
  O2-  O536  1  0.08690645  0.66434662  0.67606633  1
  O2-  O537  1  0.10751117  0.91889159  0.00612879  1
  O2-  O538  1  0.07950664  0.91088991  0.35311484  1
  O2-  O539  1  0.08437507  0.90924343  0.67985375  1
  O2-  O540  1  0.29840911  0.17328429  0.02940681  1
  O2-  O541  1  0.32967430  0.16246984  0.35958860  1
  O2-  O542  1  0.33007057  0.16540225  0.68202220  1
  O2-  O543  1  0.34622395  0.43231767  0.02863034  1
  O2-  O544  1  0.34107101  0.41907637  0.36000871  1
  O2-  O545  1  0.32246440  0.42003887  0.69666725  1
  O2-  O546  1  0.33676414  0.67511626  0.02368024  1
  O2-  O547  1  0.34196585  0.66593544  0.36023994  1
  O2-  O548  1  0.33614619  0.66799237  0.68549639  1
  O2-  O549  1  0.33842551  0.92395179  0.02372548  1
  O2-  O550  1  0.33256478  0.91328640  0.34938896  1
  O2-  O551  1  0.33701006  0.91702736  0.68294573  1
  O2-  O552  1  0.56555598  0.16352500  0.02436878  1
  O2-  O553  1  0.58224391  0.16369254  0.34713820  1
  O2-  O554  1  0.57736209  0.16763328  0.69501709  1
  O2-  O555  1  0.56683999  0.39431279  0.03010039  1
  O2-  O556  1  0.57698657  0.41019131  0.35527635  1
  O2-  O557  1  0.57874689  0.42075906  0.69282155  1
  O2-  O558  1  0.58416506  0.66262496  0.02749062  1
  O2-  O559  1  0.58177383  0.66194861  0.35643349  1
  O2-  O560  1  0.58473858  0.67006832  0.68750282  1
  O2-  O561  1  0.58185543  0.90808950  0.02178263  1
  O2-  O562  1  0.58150822  0.91454405  0.35266964  1
  O2-  O563  1  0.58022963  0.92128217  0.67864997  1
  O2-  O564  1  0.83415129  0.17411470  0.00861640  1
  O2-  O565  1  0.83387903  0.15759824  0.34678207  1
  O2-  O566  1  0.83231866  0.16565758  0.67834499  1
  O2-  O567  1  0.81749773  0.39914663  0.02346100  1
  O2-  O568  1  0.81705128  0.42057252  0.36804823  1
  O2-  O569  1  0.83027115  0.41664612  0.68672909  1
  O2-  O570  1  0.84818475  0.67489117  0.02835422  1
  O2-  O571  1  0.82782551  0.66528875  0.35428070  1
  O2-  O572  1  0.83065351  0.66275735  0.68758015  1
  O2-  O573  1  0.84426518  0.91356072  0.02564335  1
  O2-  O574  1  0.82644481  0.90735223  0.36538475  1
  O2-  O575  1  0.85608353  0.92591849  0.69274281  1
