# generated using pymatgen
data_H2O
_symmetry_space_group_name_H-M   'P 1'
_cell_length_a   17.97086304
_cell_length_b   17.97132130
_cell_length_c   21.98733787
_cell_angle_alpha   89.99115297
_cell_angle_beta   89.97979275
_cell_angle_gamma   119.98419406
_symmetry_Int_Tables_number   1
_chemical_formula_structural   H2O
_chemical_formula_sum   'H384 O192'
_cell_volume   6150.65425572
_cell_formula_units_Z   192
loop_
 _symmetry_equiv_pos_site_id
 _symmetry_equiv_pos_as_xyz
  1  'x, y, z'
loop_
 _atom_type_symbol
 _atom_type_oxidation_number
  H+  1.0
  O2-  -2.0
loop_
 _atom_site_type_symbol
 _atom_site_label
 _atom_site_symmetry_multiplicity
 _atom_site_fract_x
 _atom_site_fract_y
 _atom_site_fract_z
 _atom_site_occupancy
  H+  H0  1  0.90099506  0.07823418  0.59666782  1
  H+  H1  1  0.48197991  0.12283651  1.00779705  1
  H+  H2  1  0.47383415  0.12828764  0.85805431  1
  H+  H3  1  0.23329318  0.10975749  0.50402634  1
  H+  H4  1  0.86589918  0.51115647  -0.03961656  1
  H+  H5  1  0.13784128  0.01524384  0.32782598  1
  H+  H6  1  0.71609425  0.60343323  0.68602749  1
  H+  H7  1  0.12066329  0.52253874  0.17167416  1
  H+  H8  1  0.68957184  0.32532812  0.60265941  1
  H+  H9  1  0.37854243  0.86239972  0.84707387  1
  H+  H10  1  0.86102964  0.64523689  0.83952412  1
  H+  H11  1  0.25760395  0.86195622  0.83225224  1
  H+  H12  1  0.72650681  0.36482082  0.85607797  1
  H+  H13  1  0.71411274  0.84422621  0.32701096  1
  H+  H14  1  0.16530806  0.35479826  0.92165932  1
  H+  H15  1  0.94476780  0.99585779  0.06428298  1
  H+  H16  1  0.47591482  0.86495003  0.33073798  1
  H+  H17  1  0.48600184  0.88471943  0.18055006  1
  H+  H18  1  0.58030711  0.91346429  0.40196415  1
  H+  H19  1  0.62252013  -0.01606737  1.00851131  1
  H+  H20  1  0.11639201  -0.03057642  0.49190472  1
  H+  H21  1  0.38087645  0.36111064  0.33202889  1
  H+  H22  1  0.03688320  0.91150971  0.15502548  1
  H+  H23  1  0.13016766  0.53432372  0.99813051  1
  H+  H24  1  0.11590110  0.63907486  0.81278438  1
  H+  H25  1  0.57159843  0.66517689  0.73491400  1
  H+  H26  1  0.61566418  0.13703449  0.34105453  1
  H+  H27  1  0.83714110  0.67460825  0.74173073  1
  H+  H28  1  0.98536274  0.10742371  0.18028467  1
  H+  H29  1  0.13883844  0.28073197  0.84061111  1
  H+  H30  1  0.63481019  0.77341017  -0.00953203  1
  H+  H31  1  0.85761321  0.97177907  0.66987145  1
  H+  H32  1  0.10623813  0.39992693  -0.00084453  1
  H+  H33  1  0.36857744  0.76166890  0.66634136  1
  H+  H34  1  0.45697403  0.61028055  0.66928391  1
  H+  H35  1  0.13595357  0.06536767  1.01744726  1
  H+  H36  1  0.85786839  0.88795295  0.82864765  1
  H+  H37  1  0.63278629  0.61104485  1.00105837  1
  H+  H38  1  0.38883160  0.12138552  0.00539720  1
  H+  H39  1  0.87616104  0.52223465  0.51523655  1
  H+  H40  1  0.38518424  0.76917380  1.01166946  1
  H+  H41  1  0.26276879  0.62542008  0.15151708  1
  H+  H42  1  0.27481978  0.39336013  0.82649206  1
  H+  H43  1  0.85715868  0.11524401  0.15697148  1
  H+  H44  1  0.06775077  0.40971959  0.44209048  1
  H+  H45  1  0.77930370  0.63572961  0.32966385  1
  H+  H46  1  0.55916182  0.18982296  0.78822078  1
  H+  H47  1  0.09356178  0.38118948  0.16318583  1
  H+  H48  1  0.62324500  0.25857495  0.00887476  1
  H+  H49  1  0.52004200  0.38039175  0.32367042  1
  H+  H50  1  0.60983083  0.39085870  0.85488396  1
  H+  H51  1  0.12847671  0.85636495  0.84730379  1
  H+  H52  1  0.14875427  0.88150534  0.32236778  1
  H+  H53  1  0.88041198  0.10682547  0.65979615  1
  H+  H54  1  0.38783786  0.11165114  0.66971679  1
  H+  H55  1  0.02790695  0.18743866  0.35550082  1
  H+  H56  1  0.85292804  0.21985533  0.67291241  1
  H+  H57  1  0.49247681  0.38060712  0.17196376  1
  H+  H58  1  0.63213776  0.10393072  0.65341324  1
  H+  H59  1  0.94654104  0.97243534  0.20827554  1
  H+  H60  1  0.11001495  0.71995294  0.50084035  1
  H+  H61  1  0.95697288  0.04398642  0.38612765  1
  H+  H62  1  0.60799162  0.47529259  0.01620728  1
  H+  H63  1  0.86591227  0.63799659  0.48595016  1
  H+  H64  1  0.48780638  0.12507732  0.16850636  1
  H+  H65  1  0.02863089  0.46501141  0.37212755  1
  H+  H66  1  0.45529977  0.59305014  0.52435647  1
  H+  H67  1  0.11205309  0.88493379  0.66379709  1
  H+  H68  1  0.38295667  0.51857742  0.99767378  1
  H+  H69  1  0.10554976  0.94697926  -0.00204814  1
  H+  H70  1  0.98379832  0.85340386  1.00010955  1
  H+  H71  1  0.41551531  0.84259748  1.05937761  1
  H+  H72  1  0.53007702  0.37948407  0.63616817  1
  H+  H73  1  0.13908026  0.85733539  0.50591384  1
  H+  H74  1  0.81754132  0.38327721  0.14729773  1
  H+  H75  1  0.37485115  0.60551215  0.50791608  1
  H+  H76  1  0.60304978  0.96583427  0.66871760  1
  H+  H77  1  0.89318568  0.27994678  0.83507352  1
  H+  H78  1  0.01926239  0.63092696  0.50150951  1
  H+  H79  1  0.47281802  0.60798108  0.32686798  1
  H+  H80  1  0.64179686  0.11425656  0.17704999  1
  H+  H81  1  0.38738390  0.11027068  0.51155696  1
  H+  H82  1  0.35430458  0.46699394  0.67678852  1
  H+  H83  1  0.12120826  0.73816380  0.16698118  1
  H+  H84  1  0.20924761  0.36741703  0.17873669  1
  H+  H85  1  0.63874242  0.51865283  0.31686473  1
  H+  H86  1  0.40040232  0.81503372  0.60437498  1
  H+  H87  1  0.22056020  0.35264467  0.66027800  1
  H+  H88  1  0.51482821  0.87588878  0.67290254  1
  H+  H89  1  0.46560625  0.85113952  0.50612769  1
  H+  H90  1  0.94565487  0.22654678  0.29764231  1
  H+  H91  1  0.61627528  0.46721176  0.64796688  1
  H+  H92  1  0.35457705  0.37739353  0.49494651  1
  H+  H93  1  0.74498209  0.84301384  0.15470265  1
  H+  H94  1  0.62520504  0.11183585  0.50257220  1
  H+  H95  1  0.86313194  0.72309945  0.00084412  1
  H+  H96  1  0.38083748  0.27077274  0.33115042  1
  H+  H97  1  0.48149522  0.11702512  0.32553355  1
  H+  H98  1  0.94416399  0.38815932  0.14730013  1
  H+  H99  1  0.63275256  0.86493095  0.83895647  1
  H+  H100  1  0.14327050  0.10731872  0.50586588  1
  H+  H101  1  0.61028291  0.46012455  0.46465425  1
  H+  H102  1  0.64143851  0.02680649  0.33380746  1
  H+  H103  1  0.88080902  0.36148691  0.66604289  1
  H+  H104  1  1.02688556  0.89313547  0.84078554  1
  H+  H105  1  0.76631087  0.12838111  0.66988535  1
  H+  H106  1  0.96945475  0.36767056  0.98906916  1
  H+  H107  1  0.35801694  0.97106554  0.67792338  1
  H+  H108  1  0.13585688  0.29903321  0.34426309  1
  H+  H109  1  0.47580542  0.10955309  0.66948643  1
  H+  H110  1  0.39264660  0.02810835  0.32479007  1
  H+  H111  1  0.86263703  0.62636309  0.32808973  1
  H+  H112  1  0.10271451  0.71821023  0.82855257  1
  H+  H113  1  0.59767051  0.97371535  0.49377740  1
  H+  H114  1  0.37134305  0.27306764  0.17733527  1
  H+  H115  1  0.37826877  0.85523230  0.50518744  1
  H+  H116  1  0.76184984  0.60701735  0.14717631  1
  H+  H117  1  0.41910082  0.08301602  0.57159176  1
  H+  H118  1  0.36326250  0.39108705  0.83071030  1
  H+  H119  1  0.09857468  0.24372012  0.98177514  1
  H+  H120  1  0.61170766  0.23028829  0.49620047  1
  H+  H121  1  0.22964333  0.11988888  0.84902688  1
  H+  H122  1  0.14417290  0.87935273  0.16849185  1
  H+  H123  1  0.61345181  0.62182459  0.32880777  1
  H+  H124  1  0.23710487  0.88365402  0.16905628  1
  H+  H125  1  0.60925610  0.88257266  0.34246289  1
  H+  H126  1  0.08776039  0.90938456  0.39948190  1
  H+  H127  1  0.62463411  0.22992393  0.67276247  1
  H+  H128  1  0.34960966  0.46426390  0.49825065  1
  H+  H129  1  0.39863965  0.61621848  0.85164908  1
  H+  H130  1  0.52038243  0.14279942  0.49779287  1
  H+  H131  1  0.10134808  0.46668960  0.66261672  1
  H+  H132  1  0.63389474  0.86485201  0.17382438  1
  H+  H133  1  0.27329839  0.39333930  0.34168412  1
  H+  H134  1  0.60183657  0.72017179  0.67362810  1
  H+  H135  1  0.07274412  0.66537403  0.73345250  1
  H+  H136  1  0.57511623  0.37300754  0.18184014  1
  H+  H137  1  0.77785227  0.78803105  0.11892503  1
  H+  H138  1  0.13523824  0.52277953  0.49999217  1
  H+  H139  1  0.11679071  -0.01390460  0.66094571  1
  H+  H140  1  0.86076532  0.72813413  0.67940153  1
  H+  H141  1  0.51452861  0.63126158  0.16324916  1
  H+  H142  1  0.88602006  0.78319282  0.84785765  1
  H+  H143  1  0.64054830  0.35869578  0.30986809  1
  H+  H144  1  0.22156750  0.86552066  0.99794736  1
  H+  H145  1  0.46883036  0.35370460  0.50248035  1
  H+  H146  1  0.14421479  0.52848572  0.32437879  1
  H+  H147  1  0.47422929  0.37041064  0.85228016  1
  H+  H148  1  0.97988354  0.61288333  0.17088010  1
  H+  H149  1  0.21289447  0.36815786  0.98676743  1
  H+  H150  1  0.63472686  0.11936674  0.84225684  1
  H+  H151  1  0.63444441  0.26740045  0.31308189  1
  H+  H152  1  0.27398370  0.13188588  0.68053388  1
  H+  H153  1  0.27457701  0.88469703  0.49554211  1
  H+  H154  1  0.61948784  0.51658330  0.17361691  1
  H+  H155  1  0.37077194  0.64320090  0.34400977  1
  H+  H156  1  0.93338766  0.74497762  0.17481047  1
  H+  H157  1  0.38538994  0.26813288  0.66082623  1
  H+  H158  1  0.67727653  0.09105194  0.27727537  1
  H+  H159  1  0.63442241  0.58466677  0.48723679  1
  H+  H160  1  0.38101390  0.52367792  0.33152343  1
  H+  H161  1  0.14711176  1.02758057  0.16397950  1
  H+  H162  1  0.87165071  0.11489792  0.49474397  1
  H+  H163  1  1.01841076  0.12236788  0.65826545  1
  H+  H164  1  0.82513725  0.41674159  0.77960876  1
  H+  H165  1  0.25628304  0.63313379  0.48623976  1
  H+  H166  1  1.01635794  0.38882832  0.33083562  1
  H+  H167  1  0.76318152  0.14980469  0.37656880  1
  H+  H168  1  0.85962351  0.38668850  0.83427296  1
  H+  H169  1  0.38507734  0.35686093  0.65967263  1
  H+  H170  1  0.15468875  0.53369582  0.80193288  1
  H+  H171  1  0.53600734  0.89312066  0.01534841  1
  H+  H172  1  0.36308833  -0.00799042  1.00848072  1
  H+  H173  1  0.27753372  0.13214175  0.34093087  1
  H+  H174  1  0.33346350  0.16725917  0.73999968  1
  H+  H175  1  0.13137866  0.14515229  0.99071058  1
  H+  H176  1  0.85709539  0.13865654  -0.00101523  1
  H+  H177  1  0.88956262  0.77160948  0.49983016  1
  H+  H178  1  0.62935610  0.61008765  0.16957484  1
  H+  H179  1  0.96092891  0.36011463  0.50947329  1
  H+  H180  1  0.52666153  0.63665524  0.83100938  1
  H+  H181  1  0.10754761  0.22451768  0.16510889  1
  H+  H182  1  0.13943268  0.37118051  0.83044155  1
  H+  H183  1  0.35405463  0.73015377  0.49067209  1
  H+  H184  1  1.01394457  0.14877324  0.98172590  1
  H+  H185  1  0.62399902  0.75883461  0.32499564  1
  H+  H186  1  0.89636151  0.32892795  0.29635609  1
  H+  H187  1  0.52212483  0.89577490  0.83041170  1
  H+  H188  1  0.59969225  0.13841836  0.01114892  1
  H+  H189  1  0.36057841  0.23470509  0.83103030  1
  H+  H190  1  0.84702844  0.23017197  0.48024926  1
  H+  H191  1  0.14093923  0.10495306  0.32494295  1
  H+  H192  1  0.84811116  0.94555604  0.33284410  1
  H+  H193  1  0.35253670  0.62744689  0.15501280  1
  H+  H194  1  0.36926794  0.13796126  0.33989370  1
  H+  H195  1  0.13162345  0.35331582  0.65762629  1
  H+  H196  1  0.60932151  0.89239500  0.49916165  1
  H+  H197  1  0.12434655  0.85316014  1.00293746  1
  H+  H198  1  0.61243699  0.48087873  0.84839191  1
  H+  H199  1  0.34131212  0.35652883  1.01710851  1
  H+  H200  1  0.77059537  0.34112385  0.32417654  1
  H+  H201  1  0.11899520  0.14207010  0.16235272  1
  H+  H202  1  0.12885287  0.64339717  0.01364267  1
  H+  H203  1  0.79023809  0.90132366  0.49425579  1
  H+  H204  1  0.63884546  0.35884426  0.64242269  1
  H+  H205  1  0.97211645  1.04144576  0.35467962  1
  H+  H206  1  0.22436812  0.61912291  -0.00333707  1
  H+  H207  1  0.77225085  0.64394861  0.83724002  1
  H+  H208  1  0.10263677  0.38445725  0.50095149  1
  H+  H209  1  0.09992361  0.63595696  0.67172003  1
  H+  H210  1  0.72443431  0.86010004  0.66168749  1
  H+  H211  1  0.33146158  0.61913137  0.68889058  1
  H+  H212  1  0.23974878  0.62026254  0.82324340  1
  H+  H213  1  0.38673968  0.27733109  0.99961899  1
  H+  H214  1  0.01446392  0.37651145  0.66746108  1
  H+  H215  1  0.23657398  0.61430340  0.32282301  1
  H+  H216  1  0.72192748  0.60977749  0.99602274  1
  H+  H217  1  0.72552722  0.59917007  0.46613462  1
  H+  H218  1  0.02935698  0.14623723  0.83399202  1
  H+  H219  1  0.88114751  0.02214387  0.83054317  1
  H+  H220  1  0.88763602  0.86584778  0.65726994  1
  H+  H221  1  0.84607999  0.66895760  0.42184510  1
  H+  H222  1  0.73120163  0.11315788  0.17817116  1
  H+  H223  1  0.36403394  0.14760815  0.83652013  1
  H+  H224  1  0.11848386  0.64645369  0.16622988  1
  H+  H225  1  0.67726867  0.84906710  0.57112562  1
  H+  H226  1  0.02905465  0.39659662  0.82093813  1
  H+  H227  1  0.55731342  0.57320063  0.57507292  1
  H+  H228  1  0.87373895  0.50009877  0.31827376  1
  H+  H229  1  0.20708155  0.60656215  0.65390271  1
  H+  H230  1  0.12869068  0.10387803  0.65597286  1
  H+  H231  1  0.12848553  0.74282495  1.01313893  1
  H+  H232  1  0.27355768  0.15322964  1.01239936  1
  H+  H233  1  0.36534984  0.88753371  0.34000495  1
  H+  H234  1  0.11788829  -0.02237218  0.84286178  1
  H+  H235  1  0.72348502  0.11597950  -0.00508811  1
  H+  H236  1  0.47168539  0.37033353  1.00222730  1
  H+  H237  1  0.02741494  0.88000430  0.33947026  1
  H+  H238  1  0.27927179  0.14073914  0.16170400  1
  H+  H239  1  0.90361305  0.86827885  0.00410511  1
  H+  H240  1  0.21724045  0.35870110  0.50532975  1
  H+  H241  1  1.02599586  0.88110939  0.49212581  1
  H+  H242  1  0.89397885  0.47956963  0.14716327  1
  H+  H243  1  0.57128726  0.41458206  0.07534415  1
  H+  H244  1  0.86266787  0.47964022  0.67899920  1
  H+  H245  1  0.66649241  0.33010406  0.91749462  1
  H+  H246  1  1.01805793  0.88682788  0.66137079  1
  H+  H247  1  0.98204662  0.60238378  0.88407418  1
  H+  H248  1  0.65828333  0.80308888  0.50627172  1
  H+  H249  1  0.52132666  0.63333550  0.00966900  1
  H+  H250  1  0.97121740  0.77016809  0.19548353  1
  H+  H251  1  0.88189325  0.59109234  0.16244577  1
  H+  H252  1  0.62417094  0.17287356  0.72814564  1
  H+  H253  1  0.24662071  0.88525252  0.32141538  1
  H+  H254  1  0.89352839  0.86294865  0.50174441  1
  H+  H255  1  0.88221604  0.11247671  0.83238549  1
  H+  H256  1  0.87964817  0.61504866  0.66647024  1
  H+  H257  1  0.71159284  0.42027589  0.53724433  1
  H+  H258  1  0.69339408  0.37530539  0.15493691  1
  H+  H259  1  0.85904040  0.22805218  0.00392779  1
  H+  H260  1  0.34214177  0.38332936  0.17104247  1
  H+  H261  1  0.88644650  0.03510065  0.49794277  1
  H+  H262  1  0.61874305  0.24330459  0.84431700  1
  H+  H263  1  0.77537583  0.38962166  0.67952337  1
  H+  H264  1  0.26179778  0.62777510  0.73316303  1
  H+  H265  1  0.89426008  0.76878574  0.31617680  1
  H+  H266  1  0.37416560  0.15068021  0.16138842  1
  H+  H267  1  0.09181122  0.25252761  0.46575307  1
  H+  H268  1  0.38970494  0.52224617  0.84264062  1
  H+  H269  1  0.87028942  0.35775545  0.51215991  1
  H+  H270  1  0.35340759  0.87996963  0.67400377  1
  H+  H271  1  0.37682465  0.52037633  0.17617242  1
  H+  H272  1  0.12929308  0.77372374  0.66323013  1
  H+  H273  1  0.62296231  0.22075605  0.15371824  1
  H+  H274  1  0.35890139  0.89988712  0.00862663  1
  H+  H275  1  0.60209967  0.72208410  0.16355982  1
  H+  H276  1  0.36163238  0.22101845  0.49474648  1
  H+  H277  1  0.64103018  0.62228349  0.84471061  1
  H+  H278  1  0.88964346  0.88364910  0.17867662  1
  H+  H279  1  0.62488815  0.59822753  0.68455231  1
  H+  H280  1  0.14595238  0.39004505  0.33281774  1
  H+  H281  1  0.62413511  0.98526596  0.16723427  1
  H+  H282  1  0.22043250  0.86252528  0.66365289  1
  H+  H283  1  0.64145571  0.86483083  0.99213004  1
  H+  H284  1  0.36489726  -0.02685521  0.49717518  1
  H+  H285  1  0.76557792  0.38311571  0.00388332  1
  H+  H286  1  0.40870882  0.58212034  0.23426885  1
  H+  H287  1  0.39837605  0.88778730  0.17953217  1
  H+  H288  1  0.09936645  0.67322269  0.40158284  1
  H+  H289  1  0.41230037  0.32616060  0.56438366  1
  H+  H290  1  0.83028649  0.15343062  0.10124857  1
  H+  H291  1  0.90352657  0.55883660  0.25937386  1
  H+  H292  1  0.33557300  0.16105708  0.43531637  1
  H+  H293  1  0.40670180  0.33788884  0.90613488  1
  H+  H294  1  0.31003047  0.40454777  0.11001007  1
  H+  H295  1  0.92987741  0.09767812  0.23852191  1
  H+  H296  1  0.13284097  0.61279665  0.50046841  1
  H+  H297  1  0.63412556  0.85997223  0.66109745  1
  H+  H298  1  0.41896705  0.84168327  0.26991142  1
  H+  H299  1  0.33537766  0.17844935  0.07084821  1
  H+  H300  1  0.41698720  0.57360252  0.93642385  1
  H+  H301  1  0.16767704  0.83091040  0.56734105  1
  H+  H302  1  0.63409120  0.02989069  0.83813169  1
  H+  H303  1  0.58214072  0.34606433  0.74314246  1
  H+  H304  1  0.71181322  0.11009303  0.49521417  1
  H+  H305  1  0.69338533  0.33622802  0.22029838  1
  H+  H306  1  0.31867269  0.89427871  0.77337894  1
  H+  H307  1  0.32947108  0.67144825  0.42287328  1
  H+  H308  1  0.18529428  0.86277519  0.25215674  1
  H+  H309  1  0.32620019  0.65653741  0.06349548  1
  H+  H310  1  0.33538188  0.93294040  0.09956995  1
  H+  H311  1  0.83035722  0.91242781  0.73021140  1
  H+  H312  1  0.57961638  0.40261281  0.38053266  1
  H+  H313  1  0.65940429  0.07315080  0.59388312  1
  H+  H314  1  0.85405496  0.63189227  -0.01616819  1
  H+  H315  1  0.66213309  0.83286104  0.89801332  1
  H+  H316  1  0.58519853  0.64537142  0.39055988  1
  H+  H317  1  0.33367621  0.91781214  0.39860182  1
  H+  H318  1  0.77250810  0.14200488  0.82765297  1
  H+  H319  1  0.89427640  0.14666403  0.33828057  1
  H+  H320  1  0.83607762  0.91025305  0.43065809  1
  H+  H321  1  0.95855119  0.33913500  0.23998262  1
  H+  H322  1  0.38482130  0.74406995  0.84901380  1
  H+  H323  1  0.60055861  0.66678655  0.55347199  1
  H+  H324  1  0.14936038  0.33764952  0.23711124  1
  H+  H325  1  0.57891056  0.66559110  0.06951836  1
  H+  H326  1  0.62915900  0.35339903  0.00699450  1
  H+  H327  1  0.66352292  0.08421236  0.93616671  1
  H+  H328  1  0.17279919  0.07856447  0.22758254  1
  H+  H329  1  0.39124268  0.57717105  0.61323605  1
  H+  H330  1  0.76743451  0.88541193  0.82444327  1
  H+  H331  1  0.13231390  0.65354691  0.34138284  1
  H+  H332  1  0.82720324  0.16599059  0.76610362  1
  H+  H333  1  0.09936653  0.68051766  0.07821654  1
  H+  H334  1  0.08624303  0.91653111  0.09016155  1
  H+  H335  1  0.92254491  0.33710866  0.89517097  1
  H+  H336  1  0.91557939  0.83205039  0.59789816  1
  H+  H337  1  0.88913901  0.03115185  0.98785865  1
  H+  H338  1  0.15771005  0.32544534  0.56473355  1
  H+  H339  1  0.90897640  0.58587977  0.57178014  1
  H+  H340  1  0.59626616  0.92853756  0.10566265  1
  H+  H341  1  0.36996361  0.73461473  0.34095278  1
  H+  H342  1  0.82168139  0.63447971  0.08747606  1
  H+  H343  1  0.84618391  0.42731829  0.04932521  1
  H+  H344  1  0.75874254  0.65495330  0.57095114  1
  H+  H345  1  0.65743523  0.82742343  0.23312037  1
  H+  H346  1  0.66699372  0.59230077  0.90688489  1
  H+  H347  1  0.57652136  0.91753375  0.76825239  1
  H+  H348  1  0.71310702  0.64137828  0.57918382  1
  H+  H349  1  0.37165883  0.69367762  0.78777033  1
  H+  H350  1  0.57900445  0.16225298  0.09274047  1
  H+  H351  1  0.85088450  0.92088035  0.07569351  1
  H+  H352  1  0.41233574  0.09809062  0.91458732  1
  H+  H353  1  0.81153220  0.30078985  0.36797444  1
  H+  H354  1  0.36931446  -0.00469538  0.15796546  1
  H+  H355  1  0.66735477  0.58098640  0.25893278  1
  H+  H356  1  0.17114713  0.07671562  0.60087024  1
  H+  H357  1  0.35961420  0.63445014  0.00192986  1
  H+  H358  1  0.42455755  0.85672566  0.90925518  1
  H+  H359  1  0.87894564  0.36329437  0.98260652  1
  H+  H360  1  0.58437705  0.17323664  0.39611295  1
  H+  H361  1  0.32996687  0.41571783  0.40197524  1
  H+  H362  1  0.90151892  0.32608381  0.60487177  1
  H+  H363  1  0.60387441  0.36843762  0.47365635  1
  H+  H364  1  0.39649815  0.32969006  0.23929556  1
  H+  H365  1  0.07984021  0.41369599  0.75788436  1
  H+  H366  1  0.10825362  0.21059055  0.66037618  1
  H+  H367  1  0.53564933  0.31292180  0.74704456  1
  H+  H368  1  0.91511059  0.84113691  0.90724137  1
  H+  H369  1  0.07143031  0.41821364  0.06127040  1
  H+  H370  1  0.33038098  0.40812357  0.73482487  1
  H+  H371  1  0.25019953  0.29977867  0.04709736  1
  H+  H372  1  0.42727820  0.09654840  0.22872701  1
  H+  H373  1  0.85687880  0.86316226  0.33795702  1
  H+  H374  1  0.90420062  0.07818075  0.92187903  1
  H+  H375  1  0.92899862  0.85228378  0.26934379  1
  H+  H376  1  0.17305599  0.09480894  0.90990860  1
  H+  H377  1  0.16613151  0.58293172  0.22924850  1
  H+  H378  1  0.15367874  0.58043987  0.59266261  1
  H+  H379  1  0.11834941  0.14789676  0.84071705  1
  H+  H380  1  0.61174846  0.72965597  0.82669508  1
  H+  H381  1  0.78776851  0.39989948  0.45141468  1
  H+  H382  1  0.96940335  0.61666806  0.66336952  1
  H+  H383  1  0.15480603  0.81918622  0.90412717  1
  O2-  O384  1  0.08100308  0.16470432  0.15030603  1
  O2-  O385  1  0.04183807  0.21450851  0.43931496  1
  O2-  O386  1  0.09179874  0.18185179  0.82665294  1
  O2-  O387  1  0.06563912  0.41391296  0.14529123  1
  O2-  O388  1  0.07103743  0.41469331  0.48700644  1
  O2-  O389  1  0.08822580  0.42424141  0.80265491  1
  O2-  O390  1  0.09000688  0.67879926  0.15051446  1
  O2-  O391  1  0.08014568  0.65854430  0.48762256  1
  O2-  O392  1  0.07337014  0.65871111  0.81067462  1
  O2-  O393  1  0.09361007  0.92770094  0.13764284  1
  O2-  O394  1  0.08666449  0.90926902  0.47640772  1
  O2-  O395  1  0.08784606  0.91689801  0.82907938  1
  O2-  O396  1  0.34029232  0.17854450  0.14768831  1
  O2-  O397  1  0.33317351  0.15943431  0.48098144  1
  O2-  O398  1  0.33185524  0.17404767  0.81614792  1
  O2-  O399  1  0.31359301  0.41509413  0.15468872  1
  O2-  O400  1  0.32298831  0.40633275  0.47936133  1
  O2-  O401  1  0.33624127  0.42338284  0.81217355  1
  O2-  O402  1  0.32135426  0.65247027  0.13393117  1
  O2-  O403  1  0.32207936  0.66804554  0.47193470  1
  O2-  O404  1  0.36203695  0.68436673  0.83158556  1
  O2-  O405  1  0.33654306  0.93332433  0.14528890  1
  O2-  O406  1  0.33521189  0.91391305  0.47982866  1
  O2-  O407  1  0.31793840  0.88521597  0.81769050  1
  O2-  O408  1  0.58420425  0.16041766  0.14223727  1
  O2-  O409  1  0.57984540  0.17242648  0.47917013  1
  O2-  O410  1  0.58645461  0.18291004  0.82434430  1
  O2-  O411  1  0.55544031  0.40673887  0.15948427  1
  O2-  O412  1  0.57109197  0.39547980  0.46040099  1
  O2-  O413  1  0.57571592  0.41810557  0.84298978  1
  O2-  O414  1  0.57544758  0.66172652  0.14811643  1
  O2-  O415  1  0.56245780  0.60817332  0.53945992  1
  O2-  O416  1  0.58454724  0.66871610  0.81148903  1
  O2-  O417  1  0.59247995  0.92480863  0.15114373  1
  O2-  O418  1  0.57022249  0.91144767  0.48220763  1
  O2-  O419  1  0.58154858  0.92350757  0.81331876  1
  O2-  O420  1  0.82759235  0.14697514  0.14620467  1
  O2-  O421  1  0.81355427  0.17210844  0.45997320  1
  O2-  O422  1  0.83243020  0.17035230  0.81139008  1
  O2-  O423  1  0.87415574  0.42103074  0.12819199  1
  O2-  O424  1  0.79788448  0.40513070  0.49573203  1
  O2-  O425  1  0.82301764  0.41212521  0.82437296  1
  O2-  O426  1  0.81976486  0.62360788  0.13187193  1
  O2-  O427  1  0.83846252  0.66874313  0.46702451  1
  O2-  O428  1  0.83365562  0.67500360  0.82134561  1
  O2-  O429  1  0.79660092  0.84599418  0.13343972  1
  O2-  O430  1  0.84699130  0.92086964  0.47509076  1
  O2-  O431  1  0.82742691  0.91496186  0.80790808  1
  O2-  O432  1  0.17710670  0.08668978  0.18291560  1
  O2-  O433  1  0.17194695  0.07650791  0.51991099  1
  O2-  O434  1  0.16950448  0.08877212  0.86511292  1
  O2-  O435  1  0.14753140  0.33652359  0.19199955  1
  O2-  O436  1  0.15655408  0.33277261  0.51942728  1
  O2-  O437  1  0.17157834  0.34534775  0.84988821  1
  O2-  O438  1  0.15818587  0.58323905  0.18410715  1
  O2-  O439  1  0.16987882  0.58561259  0.51077048  1
  O2-  O440  1  0.19121477  0.59716311  0.79438522  1
  O2-  O441  1  0.17694873  0.85283293  0.18716579  1
  O2-  O442  1  0.17031229  0.82848866  0.52198857  1
  O2-  O443  1  0.15401302  0.81905857  0.85891815  1
  O2-  O444  1  0.42589899  0.09905086  0.18357452  1
  O2-  O445  1  0.42050221  0.08248876  0.52611433  1
  O2-  O446  1  0.41306820  0.10360993  0.86929237  1
  O2-  O447  1  0.39530424  0.33350472  0.19358233  1
  O2-  O448  1  0.40918776  0.32538869  0.51853967  1
  O2-  O449  1  0.40989231  0.33943710  0.86093591  1
  O2-  O450  1  0.41129858  0.58189626  0.18906753  1
  O2-  O451  1  0.39268621  0.56908103  0.52972993  1
  O2-  O452  1  0.42446144  0.58009659  0.86291550  1
  O2-  O453  1  0.42747323  0.85915553  0.19837263  1
  O2-  O454  1  0.40330155  0.81839010  0.51856315  1
  O2-  O455  1  0.42146751  0.84530295  0.86570295  1
  O2-  O456  1  0.67232153  0.08718259  0.19735407  1
  O2-  O457  1  0.65427069  0.07908971  0.51481361  1
  O2-  O458  1  0.66629200  0.08968576  0.85464204  1
  O2-  O459  1  0.70594431  0.33499360  0.17586530  1
  O2-  O460  1  0.70941463  0.36783991  0.52106144  1
  O2-  O461  1  0.66538842  0.33354664  0.87178392  1
  O2-  O462  1  0.65888052  0.57816877  0.18344561  1
  O2-  O463  1  0.66223304  0.56305298  0.45962340  1
  O2-  O464  1  0.67362049  0.59536660  0.86155650  1
  O2-  O465  1  0.65719895  0.82674233  0.18774848  1
  O2-  O466  1  0.68245316  0.85943701  0.52522004  1
  O2-  O467  1  0.66199031  0.83280189  0.85168497  1
  O2-  O468  1  0.92794629  0.06820950  0.20028353  1
  O2-  O469  1  0.89573409  0.08683624  0.51991818  1
  O2-  O470  1  0.91199742  0.08168436  0.84753819  1
  O2-  O471  1  0.97601968  0.35973456  0.16500311  1
  O2-  O472  1  0.89922867  0.32487875  0.52192389  1
  O2-  O473  1  0.92570641  0.34061520  0.84953102  1
  O2-  O474  1  0.91931485  0.56954900  0.18074709  1
  O2-  O475  1  0.91092817  0.58348849  0.52591454  1
  O2-  O476  1  0.97334957  0.60460432  0.92826468  1
  O2-  O477  1  0.94277776  0.91554295  0.20346554  1
  O2-  O478  1  0.92141250  0.83064811  0.51797087  1
  O2-  O479  1  0.91342088  0.84386199  0.86176428  1
  O2-  O480  1  0.17106355  0.07543899  0.31122362  1
  O2-  O481  1  0.16366652  0.07240683  0.64584044  1
  O2-  O482  1  0.16829965  0.11469286  0.99097469  1
  O2-  O483  1  0.16751175  0.35275762  0.31877387  1
  O2-  O484  1  0.16179911  0.32316867  0.64209179  1
  O2-  O485  1  0.15772706  0.35403618  0.96759351  1
  O2-  O486  1  0.17826972  0.58515871  0.30467526  1
  O2-  O487  1  0.14744374  0.57660809  0.63758996  1
  O2-  O488  1  0.16245451  0.59637753  0.98659286  1
  O2-  O489  1  0.18870485  0.86556995  0.30035312  1
  O2-  O490  1  0.16022876  0.83413432  0.64674980  1
  O2-  O491  1  0.16054977  0.82578460  0.98621280  1
  O2-  O492  1  0.42080521  0.08866689  0.31023792  1
  O2-  O493  1  0.41684540  0.08045414  0.65293448  1
  O2-  O494  1  0.41759195  0.08951942  0.99152180  1
  O2-  O495  1  0.40904354  0.33023644  0.31384349  1
  O2-  O496  1  0.41285851  0.32593001  0.64115515  1
  O2-  O497  1  0.41096635  0.33914149  0.98674795  1
  O2-  O498  1  0.41113754  0.58456620  0.31619693  1
  O2-  O499  1  0.39445369  0.57781906  0.65823824  1
  O2-  O500  1  0.41429510  0.57727419  0.98239818  1
  O2-  O501  1  0.41501851  0.83374227  0.31622166  1
  O2-  O502  1  0.40335332  0.82043040  0.64930172  1
  O2-  O503  1  0.41682631  0.83447308  1.01554503  1
  O2-  O504  1  0.67327505  0.08906018  0.32295437  1
  O2-  O505  1  0.65887485  0.07006091  0.63926483  1
  O2-  O506  1  0.66212479  0.08162027  0.98134795  1
  O2-  O507  1  0.66973958  0.32667161  0.29597704  1
  O2-  O508  1  0.67314707  0.32694284  0.64513669  1
  O2-  O509  1  0.65960895  0.32325537  0.99349181  1
  O2-  O510  1  0.66836694  0.58056780  0.30481598  1
  O2-  O511  1  0.65360491  0.56393727  0.68093315  1
  O2-  O512  1  0.65941963  0.57748098  0.98498791  1
  O2-  O513  1  0.65372868  0.82049206  0.31287470  1
  O2-  O514  1  0.66460508  0.83063061  0.64397163  1
  O2-  O515  1  0.66464421  0.83126073  0.97181445  1
  O2-  O516  1  0.94317639  0.17194516  0.31032294  1
  O2-  O517  1  0.90628075  0.07401582  0.64175712  1
  O2-  O518  1  0.90677890  0.08645946  0.96745887  1
  O2-  O519  1  0.94679886  0.32324104  0.28414378  1
  O2-  O520  1  0.90608053  0.32651094  0.64986780  1
  O2-  O521  1  0.91039407  0.33221204  0.97194177  1
  O2-  O522  1  0.89504716  0.55868869  0.30422654  1
  O2-  O523  1  0.90855264  0.58468339  0.64833321  1
  O2-  O524  1  0.87952593  0.56309742  0.93466933  1
  O2-  O525  1  0.92418139  0.83327558  0.31263340  1
  O2-  O526  1  0.91966078  0.83618745  0.64331464  1
  O2-  O527  1  0.92118868  0.82967625  0.98501809  1
  O2-  O528  1  0.07525992  0.18317799  -0.00512268  1
  O2-  O529  1  0.08052531  0.20732205  0.38196236  1
  O2-  O530  1  0.08032520  0.14800670  0.66861835  1
  O2-  O531  1  0.07332359  0.42651762  0.01675648  1
  O2-  O532  1  0.05752219  0.43286563  0.36166232  1
  O2-  O533  1  0.07665761  0.40734333  0.67906556  1
  O2-  O534  1  0.10152477  0.68012862  0.03200779  1
  O2-  O535  1  0.12273146  0.69688061  0.36129412  1
  O2-  O536  1  0.07392890  0.66971139  0.68752309  1
  O2-  O537  1  0.07737503  0.89648088  0.02397912  1
  O2-  O538  1  0.08881083  0.91236433  0.35365813  1
  O2-  O539  1  0.08148904  0.91863764  0.67422535  1
  O2-  O540  1  0.33475943  0.17832876  0.02523204  1
  O2-  O541  1  0.33697548  0.16547901  0.35733904  1
  O2-  O542  1  0.33469953  0.16352204  0.69404590  1
  O2-  O543  1  0.29110781  0.35949283  0.03677454  1
  O2-  O544  1  0.33387477  0.41973052  0.35642364  1
  O2-  O545  1  0.32869776  0.40576788  0.68910113  1
  O2-  O546  1  0.33015998  0.66507830  0.01710817  1
  O2-  O547  1  0.34023817  0.67420905  0.35906443  1
  O2-  O548  1  0.30283562  0.65333299  0.69798749  1
  O2-  O549  1  0.32769660  0.92897103  0.02226353  1
  O2-  O550  1  0.33579870  0.92017238  0.35317837  1
  O2-  O551  1  0.32278919  0.90937550  0.68962576  1
  O2-  O552  1  0.57177355  0.16847855  0.02915304  1
  O2-  O553  1  0.58492654  0.16951385  0.35109030  1
  O2-  O554  1  0.59639798  0.16890557  0.68904793  1
  O2-  O555  1  0.57359658  0.41422084  0.03045694  1
  O2-  O556  1  0.58209210  0.40811028  0.33533613  1
  O2-  O557  1  0.59230860  0.41047184  0.62661298  1
  O2-  O558  1  0.58184653  0.66491616  0.02410511  1
  O2-  O559  1  0.58059816  0.64977566  0.34668869  1
  O2-  O560  1  0.56589985  0.66057449  0.68918558  1
  O2-  O561  1  0.59739010  0.92427533  0.02682899  1
  O2-  O562  1  0.58257293  0.91663658  0.35663984  1
  O2-  O563  1  0.57567261  0.90687019  0.68679011  1
  O2-  O564  1  0.82841193  0.16754599  0.01909430  1
  O2-  O565  1  0.81799701  0.19607757  0.39487145  1
  O2-  O566  1  0.82518438  0.15904638  0.68749586  1
  O2-  O567  1  0.83006161  0.42127908  0.00560650  1
  O2-  O568  1  0.82584673  0.34987842  0.34093332  1
  O2-  O569  1  0.83580251  0.41924006  0.69418053  1
  O2-  O570  1  0.82921799  0.65963533  0.00927992  1
  O2-  O571  1  0.84078935  0.66536768  0.34220367  1
  O2-  O572  1  0.83229593  0.66916301  0.69650465  1
  O2-  O573  1  0.89206734  0.95597176  0.04305512  1
  O2-  O574  1  0.82014984  0.88859696  0.35142034  1
  O2-  O575  1  0.82919843  0.91048690  0.68443391  1
