# generated using pymatgen
data_H2O
_symmetry_space_group_name_H-M   'P 1'
_cell_length_a   17.97089186
_cell_length_b   17.97578862
_cell_length_c   22.00533546
_cell_angle_alpha   90.01126347
_cell_angle_beta   90.00215365
_cell_angle_gamma   120.01098630
_symmetry_Int_Tables_number   1
_chemical_formula_structural   H2O
_chemical_formula_sum   'H384 O192'
_cell_volume   6155.56760888
_cell_formula_units_Z   192
loop_
 _symmetry_equiv_pos_site_id
 _symmetry_equiv_pos_as_xyz
  1  'x, y, z'
loop_
 _atom_type_symbol
 _atom_type_oxidation_number
  H+  1.0
  O2-  -2.0
loop_
 _atom_site_type_symbol
 _atom_site_label
 _atom_site_symmetry_multiplicity
 _atom_site_fract_x
 _atom_site_fract_y
 _atom_site_fract_z
 _atom_site_occupancy
  H+  H0  1  0.62111191  0.40769343  0.79975535  1
  H+  H1  1  0.27093510  0.88194144  0.34035136  1
  H+  H2  1  0.38499938  0.30427950  0.49672136  1
  H+  H3  1  0.38437501  0.52125895  0.99816664  1
  H+  H4  1  0.71353230  0.85711200  0.64281098  1
  H+  H5  1  0.77112860  0.88305171  0.34207248  1
  H+  H6  1  0.75323903  0.12379428  0.33799553  1
  H+  H7  1  0.38680812  0.76435990  0.50656646  1
  H+  H8  1  0.23073447  0.87042106  0.49639934  1
  H+  H9  1  0.47965975  0.36792721  1.00299808  1
  H+  H10  1  0.48516505  0.59707417  0.17062092  1
  H+  H11  1  0.70335419  0.83664979  0.49932328  1
  H+  H12  1  0.57039232  0.15507709  0.37158772  1
  H+  H13  1  0.87644299  0.64187544  0.82252730  1
  H+  H14  1  0.10976667  0.98756253  0.48967269  1
  H+  H15  1  0.60419567  0.62613484  0.81973824  1
  H+  H16  1  0.31873199  0.39214415  0.77389865  1
  H+  H17  1  0.90503596  0.77318590  0.84768046  1
  H+  H18  1  0.22722632  0.10473792  0.16145390  1
  H+  H19  1  0.52892380  0.39422235  0.50036661  1
  H+  H20  1  0.41528516  0.82787551  0.56347440  1
  H+  H21  1  0.12601726  0.14859816  1.01063793  1
  H+  H22  1  0.10776841  0.97686154  0.33137750  1
  H+  H23  1  0.64396694  0.81321394  0.55773620  1
  H+  H24  1  0.86749610  0.22830601  0.82806190  1
  H+  H25  1  0.87911854  0.10025162  0.16523354  1
  H+  H26  1  0.88507571  0.51656400  0.98644471  1
  H+  H27  1  0.11135857  0.14443991  0.34989900  1
  H+  H28  1  0.63939946  1.02449514  0.51303188  1
  H+  H29  1  0.80616427  0.30001699  0.29045841  1
  H+  H30  1  0.38842004  0.01512987  0.66267067  1
  H+  H31  1  0.61399447  0.87435773  0.82415138  1
  H+  H32  1  0.35983740  0.87286503  0.49029951  1
  H+  H33  1  0.12507520  0.60268091  0.66409371  1
  H+  H34  1  0.23236520  0.85475641  0.84465427  1
  H+  H35  1  0.02519001  0.63761816  0.35786946  1
  H+  H36  1  0.85635284  0.22187534  0.15796731  1
  H+  H37  1  0.36506042  0.22093214  0.14390467  1
  H+  H38  1  -0.02205612  0.62018584  0.16524713  1
  H+  H39  1  0.57754192  0.46767418  0.34510777  1
  H+  H40  1  0.88851468  0.31013647  0.25548314  1
  H+  H41  1  0.63648955  0.37689411  0.51392612  1
  H+  H42  1  0.87512341  0.88188719  0.86005064  1
  H+  H43  1  0.58517018  0.42900958  0.07480552  1
  H+  H44  1  0.86055377  0.63253947  0.33202514  1
  H+  H45  1  0.14640433  1.03044366  0.84986663  1
  H+  H46  1  0.48127746  0.10548402  1.00174718  1
  H+  H47  1  0.72564258  0.60500848  0.64520013  1
  H+  H48  1  0.52390514  0.88183883  0.34135000  1
  H+  H49  1  0.37798206  0.11040215  0.16587926  1
  H+  H50  1  -0.01353186  0.12384519  0.00456012  1
  H+  H51  1  0.13546973  0.27317432  0.84651120  1
  H+  H52  1  0.37059341  0.63415815  0.15538971  1
  H+  H53  1  0.53717032  0.60311512  1.01326073  1
  H+  H54  1  0.13185366  0.52007182  0.85626119  1
  H+  H55  1  0.91513307  0.58010359  0.89440547  1
  H+  H56  1  0.36193829  0.17441034  0.51836516  1
  H+  H57  1  0.60399773  0.11416192  0.32223001  1
  H+  H58  1  0.07524070  0.65668872  0.10200741  1
  H+  H59  1  0.72830184  0.84511832  0.17456284  1
  H+  H60  1  0.83851759  0.22403507  0.32810366  1
  H+  H61  1  0.10820300  0.38505944  0.68179110  1
  H+  H62  1  0.63905023  0.09773328  0.82984801  1
  H+  H63  1  0.11501450  0.71983717  0.82962015  1
  H+  H64  1  0.87140354  0.14742801  1.00812158  1
  H+  H65  1  0.35982371  0.97587367  0.00844866  1
  H+  H66  1  1.02593617  0.13603730  0.83423802  1
  H+  H67  1  0.63684473  0.14715214  0.51975252  1
  H+  H68  1  0.16808581  0.09651799  0.60031019  1
  H+  H69  1  0.77002693  0.37224549  1.01506185  1
  H+  H70  1  0.72138933  0.10682959  0.16998224  1
  H+  H71  1  0.64042012  0.28387890  0.16669546  1
  H+  H72  1  0.37962387  0.72856747  0.81884400  1
  H+  H73  1  0.36635275  0.88501273  0.67415883  1
  H+  H74  1  0.10755519  0.71815400  0.00806886  1
  H+  H75  1  0.52186149  0.12531786  0.67052308  1
  H+  H76  1  0.11253208  0.13569382  0.15989135  1
  H+  H77  1  0.62796792  0.39616629  0.28802818  1
  H+  H78  1  0.05699074  0.83437066  0.98501101  1
  H+  H79  1  0.47152140  0.09888428  0.84016718  1
  H+  H80  1  0.84028583  0.57297600  0.67359669  1
  H+  H81  1  0.34998612  0.39484516  0.35006209  1
  H+  H82  1  0.64571212  0.86958119  0.98477707  1
  H+  H83  1  0.38522372  0.35679611  0.84440850  1
  H+  H84  1  0.27305957  0.64113580  0.35130713  1
  H+  H85  1  0.26417282  0.63221740  0.66540915  1
  H+  H86  1  0.90441350  0.62532951  0.57849546  1
  H+  H87  1  0.60876968  0.88372817  0.49130857  1
  H+  H88  1  0.14679768  0.85221477  0.63717693  1
  H+  H89  1  0.13298320  0.86066446  0.33150151  1
  H+  H90  1  0.61711615  0.52367279  -0.00005236  1
  H+  H91  1  0.79111505  0.64758037  0.81915849  1
  H+  H92  1  0.27090380  0.12606750  0.68290723  1
  H+  H93  1  0.01755513  0.88562223  0.63301533  1
  H+  H94  1  0.23452861  0.11682221  0.33139933  1
  H+  H95  1  0.50473095  0.11575730  0.51038590  1
  H+  H96  1  0.38270225  0.47853726  0.70993850  1
  H+  H97  1  0.63924799  0.86197052  0.32560043  1
  H+  H98  1  0.64978429  0.30901234  0.96199466  1
  H+  H99  1  0.73930413  0.39064700  0.53675964  1
  H+  H100  1  0.75903567  0.16212667  0.48819537  1
  H+  H101  1  0.88383939  0.77050880  0.32136792  1
  H+  H102  1  0.11107634  0.47381004  0.16741116  1
  H+  H103  1  0.64069625  0.61581548  0.65188665  1
  H+  H104  1  0.36677135  0.88237938  0.83005872  1
  H+  H105  1  0.13949344  0.27720555  0.66875708  1
  H+  H106  1  0.60874474  0.72828537  0.33496326  1
  H+  H107  1  0.37042539  1.00485785  0.16265769  1
  H+  H108  1  0.77746645  0.40496257  0.79893706  1
  H+  H109  1  0.38367953  0.53477957  0.63072397  1
  H+  H110  1  0.59057394  0.48887838  0.16812522  1
  H+  H111  1  0.26963862  0.40692467  0.34213163  1
  H+  H112  1  0.61318241  0.38828333  0.02120402  1
  H+  H113  1  0.63214773  0.00843357  0.32462480  1
  H+  H114  1  0.62663053  0.24803062  0.01793354  1
  H+  H115  1  0.18189182  0.55422641  0.50680580  1
  H+  H116  1  0.37390339  0.96706256  0.49271320  1
  H+  H117  1  0.39317807  0.60730983  0.82903224  1
  H+  H118  1  0.39458624  0.27353173  0.99914196  1
  H+  H119  1  0.70046633  0.32410003  0.25041662  1
  H+  H120  1  0.90882716  0.59839094  0.22022286  1
  H+  H121  1  0.86577628  0.48121125  0.15588352  1
  H+  H122  1  0.63108126  0.75813413  0.83452396  1
  H+  H123  1  0.45644116  0.84686173  0.18704040  1
  H+  H124  1  0.34306903  0.38155236  0.00186781  1
  H+  H125  1  0.66619141  0.33564947  0.73224060  1
  H+  H126  1  0.11002433  0.38385384  0.83489182  1
  H+  H127  1  0.13566520  0.27144006  0.17614340  1
  H+  H128  1  0.72300960  0.84438522  0.84330418  1
  H+  H129  1  0.26647733  0.62601599  0.00534308  1
  H+  H130  1  0.02536297  0.39117475  0.33636797  1
  H+  H131  1  0.97735228  0.37846817  0.51114174  1
  H+  H132  1  0.37175891  0.63267343  0.01114637  1
  H+  H133  1  0.39789285  0.78084475  0.00003494  1
  H+  H134  1  0.61272465  0.96923891  0.67400177  1
  H+  H135  1  0.88859030  0.51657689  0.33904882  1
  H+  H136  1  0.35700494  0.88570076  1.01120926  1
  H+  H137  1  0.13978891  0.61716579  0.33518227  1
  H+  H138  1  0.88604639  0.36578960  0.83534960  1
  H+  H139  1  0.64151793  0.10746244  0.66492912  1
  H+  H140  1  0.13717925  0.12742475  0.50466120  1
  H+  H141  1  0.74069207  0.13243080  0.98591648  1
  H+  H142  1  0.37581945  0.13389585  1.00367746  1
  H+  H143  1  0.37581842  0.01164733  0.32002012  1
  H+  H144  1  0.97142823  0.86086170  0.32120072  1
  H+  H145  1  0.48232807  0.87302081  -0.00184943  1
  H+  H146  1  0.16345575  0.33270316  0.90706683  1
  H+  H147  1  0.62895038  0.60820931  0.49406097  1
  H+  H148  1  0.64871065  0.12927879  0.98522723  1
  H+  H149  1  0.38715254  0.51950299  0.16550358  1
  H+  H150  1  0.35742380  0.63858868  0.65858348  1
  H+  H151  1  0.76845328  0.37633396  0.67084740  1
  H+  H152  1  0.40972586  0.33273351  0.08439647  1
  H+  H153  1  0.48364715  0.86395855  0.84103185  1
  H+  H154  1  0.95210200  0.82573189  0.90932031  1
  H+  H155  1  0.36082647  0.96839160  0.83151278  1
  H+  H156  1  0.36006971  0.71901622  0.15558440  1
  H+  H157  1  0.56728334  0.08720292  0.04387434  1
  H+  H158  1  0.64070888  0.61803833  0.33008376  1
  H+  H159  1  0.86614265  0.85432322  0.49114106  1
  H+  H160  1  0.11373975  0.13999754  0.67725373  1
  H+  H161  1  0.39577249  0.86099363  0.33094854  1
  H+  H162  1  0.47302215  0.61639319  0.64734161  1
  H+  H163  1  0.89391983  0.77047506  1.00608918  1
  H+  H164  1  0.78134617  0.13578470  0.82543808  1
  H+  H165  1  0.13660441  0.88117577  0.17419190  1
  H+  H166  1  0.65587400  0.32641519  0.82882999  1
  H+  H167  1  -0.02396248  0.36040658  0.17324519  1
  H+  H168  1  0.60707422  0.19880300  0.81700383  1
  H+  H169  1  0.86817352  0.68458183  0.72869157  1
  H+  H170  1  0.60702604  0.96440787  0.17417050  1
  H+  H171  1  0.22310748  0.60850102  0.17618191  1
  H+  H172  1  0.12289823  0.76500127  0.50084408  1
  H+  H173  1  0.15498347  0.53018983  0.00337221  1
  H+  H174  1  0.44167783  0.35331522  0.35243731  1
  H+  H175  1  0.78214107  0.38649548  0.34321035  1
  H+  H176  1  0.02290342  0.66345935  0.51091329  1
  H+  H177  1  0.88823045  0.52713690  0.83055939  1
  H+  H178  1  0.50027737  0.60014393  0.47709415  1
  H+  H179  1  0.86055300  0.88338146  0.34028905  1
  H+  H180  1  0.60983645  0.21699729  0.68185792  1
  H+  H181  1  1.03781491  0.15282979  0.50060273  1
  H+  H182  1  0.89023252  1.02609854  0.85867086  1
  H+  H183  1  0.15342746  0.03605859  0.99599899  1
  H+  H184  1  0.84512810  0.08129755  0.47227776  1
  H+  H185  1  0.62408576  0.85473115  0.65282728  1
  H+  H186  1  0.98869516  0.02617286  0.54829266  1
  H+  H187  1  0.86686596  0.39608371  0.36742629  1
  H+  H188  1  -0.02545173  0.36482779  0.84012783  1
  H+  H189  1  -0.03132483  0.10361142  0.16698256  1
  H+  H190  1  0.62560655  0.68063219  0.18038906  1
  H+  H191  1  0.23581625  0.12009921  0.84678489  1
  H+  H192  1  0.11280920  0.71284850  0.67320142  1
  H+  H193  1  0.71960744  0.54970075  0.88682133  1
  H+  H194  1  0.31036808  0.64130279  0.55569543  1
  H+  H195  1  0.95501152  0.55898276  0.28594789  1
  H+  H196  1  0.88924358  1.02630920  0.34458916  1
  H+  H197  1  0.38159092  0.77200663  0.65304960  1
  H+  H198  1  0.65281054  0.58347867  0.26842976  1
  H+  H199  1  0.83576448  0.43366097  0.59251609  1
  H+  H200  1  0.10118771  0.62810198  0.16340240  1
  H+  H201  1  0.14017122  0.28292354  0.33149577  1
  H+  H202  1  0.13266345  0.02622434  0.65088994  1
  H+  H203  1  0.64694867  0.52246722  0.83829417  1
  H+  H204  1  0.86745978  0.22089284  0.67361463  1
  H+  H205  1  0.42362499  0.83502495  0.90029023  1
  H+  H206  1  1.02206645  0.14422552  0.35313300  1
  H+  H207  1  0.87674093  0.85755066  0.16576731  1
  H+  H208  1  0.37419450  0.85159238  0.16725011  1
  H+  H209  1  0.97524583  0.35777114  0.66508798  1
  H+  H210  1  0.98704713  0.37571427  0.99245901  1
  H+  H211  1  0.08262368  0.92638495  0.39404690  1
  H+  H212  1  0.12002411  0.39381752  1.00953640  1
  H+  H213  1  0.66493260  0.25470220  0.30416787  1
  H+  H214  1  0.47304607  0.36525111  0.14039200  1
  H+  H215  1  0.39352435  0.77272501  0.34237689  1
  H+  H216  1  0.11664187  0.13871979  0.83329231  1
  H+  H217  1  0.35951756  0.12307066  0.34762804  1
  H+  H218  1  0.20622881  0.85935868  0.99998819  1
  H+  H219  1  0.17948175  0.58767381  0.93983336  1
  H+  H220  1  0.87246644  0.23736160  0.00533481  1
  H+  H221  1  0.62086301  0.96702166  0.82433200  1
  H+  H222  1  0.37977569  0.31235400  0.29593984  1
  H+  H223  1  0.28795397  0.13938874  0.00277647  1
  H+  H224  1  0.84168949  0.09179739  0.50483259  1
  H+  H225  1  0.01583695  0.89108153  0.00374635  1
  H+  H226  1  0.52722077  0.14261268  0.16389471  1
  H+  H227  1  0.62042313  0.48153932  0.49581553  1
  H+  H228  1  0.12033831  0.23655389  0.00954872  1
  H+  H229  1  0.60980560  0.40621976  0.16556108  1
  H+  H230  1  0.89333098  0.77513484  0.64533201  1
  H+  H231  1  0.10486246  0.47216473  0.68148074  1
  H+  H232  1  0.36356320  0.47366069  0.42878093  1
  H+  H233  1  1.01333288  0.87273592  0.15255709  1
  H+  H234  1  0.89202361  0.38321529  0.52467259  1
  H+  H235  1  0.86404420  0.38241137  0.00681153  1
  H+  H236  1  0.86362054  0.95729448  0.49679999  1
  H+  H237  1  0.27762242  0.43661087  0.51234886  1
  H+  H238  1  0.38989768  0.52669729  0.31702897  1
  H+  H239  1  0.35682790  0.12097176  0.68279967  1
  H+  H240  1  0.86170453  0.49984212  0.53637133  1
  H+  H241  1  0.87609339  0.85584095  0.63723122  1
  H+  H242  1  0.03401192  0.88743079  0.83936789  1
  H+  H243  1  0.11898290  0.63597615  0.01007285  1
  H+  H244  1  0.13195185  0.60872283  0.85449910  1
  H+  H245  1  0.97911049  0.10974480  0.66919952  1
  H+  H246  1  0.47418168  0.85864724  0.65635301  1
  H+  H247  1  0.59020983  0.91995625  0.39758037  1
  H+  H248  1  0.46558012  0.09941653  0.31058457  1
  H+  H249  1  0.88555868  0.11279795  0.34683902  1
  H+  H250  1  0.22173573  0.12101579  0.50690925  1
  H+  H251  1  0.22647092  0.36903313  0.66964873  1
  H+  H252  1  0.27191637  0.90155413  0.16018941  1
  H+  H253  1  0.66516870  0.42069703  0.30915680  1
  H+  H254  1  0.26464697  0.37330552  0.83541687  1
  H+  H255  1  0.86240919  0.97468896  0.66140765  1
  H+  H256  1  0.52926262  0.40049149  0.82012595  1
  H+  H257  1  1.02438263  0.89403367  0.48591016  1
  H+  H258  1  0.76505835  0.63723459  0.48150417  1
  H+  H259  1  0.86497788  0.64257419  0.15232300  1
  H+  H260  1  0.09896539  0.96257032  0.14560582  1
  H+  H261  1  0.37078541  0.39761474  0.66880510  1
  H+  H262  1  0.88421613  0.63111926  0.50955373  1
  H+  H263  1  0.85815200  0.96521209  0.15892762  1
  H+  H264  1  0.14974387  0.29887080  0.51312050  1
  H+  H265  1  0.52357964  0.88848487  0.49148707  1
  H+  H266  1  0.32326541  0.58601159  0.50736244  1
  H+  H267  1  0.77040192  0.63271962  0.33081149  1
  H+  H268  1  0.73632917  0.63667770  0.01780146  1
  H+  H269  1  0.41642026  0.10235918  0.48782315  1
  H+  H270  1  0.07900067  0.29480199  -0.03512136  1
  H+  H271  1  0.48791740  0.61814460  0.31501092  1
  H+  H272  1  0.57398631  0.42601693  0.72004610  1
  H+  H273  1  0.12015558  0.41003344  0.51513307  1
  H+  H274  1  0.11218471  0.72772583  0.35346313  1
  H+  H275  1  0.84291538  0.25700954  0.48157149  1
  H+  H276  1  0.62906714  0.00072454  0.99258475  1
  H+  H277  1  0.13772230  0.52777666  0.32920531  1
  H+  H278  1  0.35603642  0.38721683  0.14239876  1
  H+  H279  1  0.14618785  0.85968779  0.84704954  1
  H+  H280  1  0.47010568  0.37254642  0.65123226  1
  H+  H281  1  0.60702374  0.71891361  0.66641182  1
  H+  H282  1  0.11376933  0.39223204  0.33592812  1
  H+  H283  1  0.11109760  0.38443521  0.16570672  1
  H+  H284  1  0.86651836  -0.01626600  1.01489919  1
  H+  H285  1  0.87005498  0.75667938  0.48717522  1
  H+  H286  1  0.57823403  0.69889905  0.48789606  1
  H+  H287  1  0.36902678  0.22418123  0.83466430  1
  H+  H288  1  0.93274328  0.06088930  0.57684631  1
  H+  H289  1  0.33760410  0.91304224  0.73568577  1
  H+  H290  1  0.17248743  0.34719668  0.57722041  1
  H+  H291  1  0.31956861  0.66703719  0.41441689  1
  H+  H292  1  0.42488699  0.58012935  0.24819889  1
  H+  H293  1  0.65054214  0.28928317  0.52592531  1
  H+  H294  1  0.32983656  0.92347189  0.09653794  1
  H+  H295  1  0.57366396  0.14026922  0.75901988  1
  H+  H296  1  0.33634519  0.65968921  0.07281860  1
  H+  H297  1  0.57718827  0.65720772  0.72495581  1
  H+  H298  1  0.41782487  0.07411276  0.60279912  1
  H+  H299  1  0.33734393  0.15402001  0.09152399  1
  H+  H300  1  0.92482018  0.34297543  0.93310953  1
  H+  H301  1  0.60733239  0.47524857  0.65764596  1
  H+  H302  1  0.91973399  0.32725765  0.60308112  1
  H+  H303  1  0.63305607  0.10815338  0.17356181  1
  H+  H304  1  0.38680655  0.10705443  0.84603741  1
  H+  H305  1  0.86319996  0.91927033  0.80049953  1
  H+  H306  1  0.51248999  0.62174144  0.82073291  1
  H+  H307  1  0.20540136  0.16564189  0.28773289  1
  H+  H308  1  0.31677348  0.42096637  0.09354347  1
  H+  H309  1  0.38593072  0.51454346  0.83561547  1
  H+  H310  1  0.08825582  0.17274509  0.10283679  1
  H+  H311  1  0.86103526  0.73571637  0.15810569  1
  H+  H312  1  0.73029067  0.37223584  0.16430888  1
  H+  H313  1  0.73205477  0.10807441  0.66730002  1
  H+  H314  1  0.90712960  0.82674660  0.22598177  1
  H+  H315  1  0.09157297  0.18776590  0.43919493  1
  H+  H316  1  0.42260490  0.41475227  0.24041247  1
  H+  H317  1  0.20936044  0.94038018  0.21963295  1
  H+  H318  1  0.17836268  0.09220925  0.93526498  1
  H+  H319  1  0.64535398  0.58712068  0.94382719  1
  H+  H320  1  0.70437173  0.42441550  0.91233096  1
  H+  H321  1  0.67165571  0.82652339  0.26896868  1
  H+  H322  1  0.33655860  0.16745269  0.44670221  1
  H+  H323  1  0.25505214  0.38362414  -0.00227985  1
  H+  H324  1  0.78091354  0.89285876  0.00704933  1
  H+  H325  1  0.16273677  0.83006512  0.27414594  1
  H+  H326  1  0.08299270  0.65507745  0.73246720  1
  H+  H327  1  0.02359209  0.63400654  0.82780622  1
  H+  H328  1  0.66706918  0.59012600  0.55537903  1
  H+  H329  1  0.58068152  0.90544122  0.73101036  1
  H+  H330  1  0.08064787  0.41521902  0.77594201  1
  H+  H331  1  0.66948134  0.82545205  0.93368090  1
  H+  H332  1  0.82975770  0.90791405  0.09835343  1
  H+  H333  1  0.85921861  0.37747668  0.66275597  1
  H+  H334  1  0.16907503  0.33707837  0.26908102  1
  H+  H335  1  0.63248883  0.94953795  0.04869112  1
  H+  H336  1  0.33527530  0.91624901  0.39677577  1
  H+  H337  1  0.56042910  0.89090410  0.12551271  1
  H+  H338  1  0.16103765  0.82335580  0.93632200  1
  H+  H339  1  0.55920521  0.41887621  0.40856938  1
  H+  H340  1  0.88855480  0.36442510  0.16871288  1
  H+  H341  1  0.16796076  0.58625244  0.23741435  1
  H+  H342  1  0.08925173  0.42330259  0.06974276  1
  H+  H343  1  0.88898982  0.10889527  0.66323378  1
  H+  H344  1  0.22992358  0.85508996  0.66401053  1
  H+  H345  1  0.46715207  0.42277473  0.24641204  1
  H+  H346  1  0.08432666  0.16730055  0.73864956  1
  H+  H347  1  0.82797973  0.90666287  0.43130149  1
  H+  H348  1  0.33304504  0.15782665  0.77765798  1
  H+  H349  1  0.16937507  0.07249160  0.22077049  1
  H+  H350  1  0.06919707  0.88732659  0.68919744  1
  H+  H351  1  0.34893466  0.67464125  0.75745783  1
  H+  H352  1  0.63948902  0.19929655  0.46277241  1
  H+  H353  1  0.97546491  0.60185922  0.98676101  1
  H+  H354  1  0.85595400  0.43496013  0.75355727  1
  H+  H355  1  0.56821093  0.66018342  0.39082268  1
  H+  H356  1  0.67462692  0.07794867  0.57650573  1
  H+  H357  1  0.14088861  0.55536704  0.60674421  1
  H+  H358  1  0.84199683  0.16444464  0.73453902  1
  H+  H359  1  0.81388095  0.66620805  0.09639327  1
  H+  H360  1  0.09996517  0.92611535  0.78392334  1
  H+  H361  1  0.82799150  0.66293493  0.42168714  1
  H+  H362  1  0.42238930  0.07781586  0.93913589  1
  H+  H363  1  0.81483384  0.89557055  0.70668066  1
  H+  H364  1  0.67596559  0.08355847  0.89154002  1
  H+  H365  1  0.80685094  0.18260504  0.40112182  1
  H+  H366  1  0.63040970  0.35186630  0.67142289  1
  H+  H367  1  0.42480552  0.33798168  0.90283241  1
  H+  H368  1  0.14358044  0.87949358  0.49350433  1
  H+  H369  1  0.35389451  0.20947105  0.35787819  1
  H+  H370  1  0.74523231  0.42288672  0.90867462  1
  H+  H371  1  0.92759737  0.09582513  0.94493062  1
  H+  H372  1  0.07955967  0.67823736  0.44777453  1
  H+  H373  1  0.89157334  0.11555779  0.84690512  1
  H+  H374  1  0.40841023  0.40383828  0.49470016  1
  H+  H375  1  0.82633085  0.16603812  0.09769344  1
  H+  H376  1  0.66460568  0.06998184  0.26310846  1
  H+  H377  1  0.90084063  0.81825854  0.55185850  1
  H+  H378  1  0.22315357  0.36243846  0.17302516  1
  H+  H379  1  0.40039363  0.07251047  0.22977598  1
  H+  H380  1  0.63552783  0.83504370  0.17976999  1
  H+  H381  1  0.58071252  0.16534774  0.10214751  1
  H+  H382  1  0.41279065  0.35738644  0.59260660  1
  H+  H383  1  0.83895741  0.41872181  0.09814319  1
  O2-  O384  1  0.08498194  0.16953030  0.14857165  1
  O2-  O385  1  0.09657062  0.19012558  0.48496191  1
  O2-  O386  1  0.08518515  0.16688137  0.81667372  1
  O2-  O387  1  0.08039398  0.41420709  0.15021491  1
  O2-  O388  1  0.08609145  0.43574894  0.49792877  1
  O2-  O389  1  0.07876092  0.41398942  0.82139981  1
  O2-  O390  1  0.06965002  0.65607969  0.14721700  1
  O2-  O391  1  0.08221485  0.69094794  0.49310370  1
  O2-  O392  1  0.08492909  0.65940615  0.81498256  1
  O2-  O393  1  0.07354255  0.90046550  0.13716548  1
  O2-  O394  1  0.08438305  0.92797505  0.47196187  1
  O2-  O395  1  0.09725349  0.92246134  0.82802716  1
  O2-  O396  1  0.33540056  0.15676185  0.13793256  1
  O2-  O397  1  0.33002508  0.18694621  0.48814955  1
  O2-  O398  1  0.33555108  0.16186004  0.82374541  1
  O2-  O399  1  0.32452155  0.41964866  0.13849801  1
  O2-  O400  1  0.39238384  0.48696643  0.46997865  1
  O2-  O401  1  0.32482322  0.39744628  0.81848740  1
  O2-  O402  1  0.33447691  0.65776559  0.13982058  1
  O2-  O403  1  0.30615569  0.63087018  0.51187277  1
  O2-  O404  1  0.35950401  0.67125987  0.80102506  1
  O2-  O405  1  0.33258844  0.92838357  0.14346109  1
  O2-  O406  1  0.33496906  0.90913542  0.47602938  1
  O2-  O407  1  0.33225772  0.90862857  0.81486867  1
  O2-  O408  1  0.58661629  0.17124584  0.14875400  1
  O2-  O409  1  0.61517834  0.18698714  0.50370880  1
  O2-  O410  1  0.57409366  0.13839916  0.80551804  1
  O2-  O411  1  0.57623597  0.42990777  0.14662791  1
  O2-  O412  1  0.59039761  0.41792980  0.48683671  1
  O2-  O413  1  0.58437444  0.43812106  0.79897411  1
  O2-  O414  1  0.58776466  0.62237785  0.16380083  1
  O2-  O415  1  0.56074944  0.64268590  0.46794600  1
  O2-  O416  1  0.57553836  0.65602232  0.80400882  1
  O2-  O417  1  0.57538969  0.90047115  0.16845289  1
  O2-  O418  1  0.58521891  0.92148617  0.47916124  1
  O2-  O419  1  0.58556002  0.90680437  0.80919305  1
  O2-  O420  1  0.82253101  0.16155448  0.14302894  1
  O2-  O421  1  0.79331835  0.20937887  0.45896275  1
  O2-  O422  1  0.84333193  0.16782308  0.81306157  1
  O2-  O423  1  0.83799077  0.41971709  0.14407085  1
  O2-  O424  1  0.83078746  0.43712126  0.54621974  1
  O2-  O425  1  0.84314688  0.42865417  0.79737215  1
  O2-  O426  1  0.82951055  0.67128430  0.14301046  1
  O2-  O427  1  0.82726237  0.66829733  0.46760970  1
  O2-  O428  1  0.85188485  0.67826002  0.80549358  1
  O2-  O429  1  0.82839939  0.90331225  0.14485982  1
  O2-  O430  1  0.82677118  0.89933822  0.47782017  1
  O2-  O431  1  0.84495547  0.91132841  0.84277424  1
  O2-  O432  1  0.16646962  0.07322053  0.17613896  1
  O2-  O433  1  0.15990452  0.08901599  0.51851495  1
  O2-  O434  1  0.17455064  0.09168835  0.86276716  1
  O2-  O435  1  0.16479013  0.33217828  0.19188956  1
  O2-  O436  1  0.17621585  0.35687018  0.53199917  1
  O2-  O437  1  0.16663517  0.33412999  0.86028575  1
  O2-  O438  1  0.16360582  0.58023833  0.19199498  1
  O2-  O439  1  0.12381376  0.52197186  0.52523688  1
  O2-  O440  1  0.15811527  0.57785822  0.87525069  1
  O2-  O441  1  0.18649083  0.88447846  0.19989827  1
  O2-  O442  1  0.16893674  0.84488350  0.50896127  1
  O2-  O443  1  0.17188435  0.82511960  0.86108901  1
  O2-  O444  1  0.40409015  0.07437890  0.18310139  1
  O2-  O445  1  0.44123050  0.07943842  0.51643285  1
  O2-  O446  1  0.41415488  0.07304883  0.85995580  1
  O2-  O447  1  0.40983850  0.32861606  0.12910099  1
  O2-  O448  1  0.42530690  0.36283149  0.51155793  1
  O2-  O449  1  0.42268185  0.33305349  0.85814764  1
  O2-  O450  1  0.42385243  0.57939157  0.18214895  1
  O2-  O451  1  0.33168116  0.49494197  0.51049785  1
  O2-  O452  1  0.42234742  0.57618598  0.84525284  1
  O2-  O453  1  0.39356714  0.81266938  0.18210946  1
  O2-  O454  1  0.41479180  0.82562916  0.51734740  1
  O2-  O455  1  0.42267494  0.83569762  0.85532261  1
  O2-  O456  1  0.66142461  0.07542992  0.18757542  1
  O2-  O457  1  0.67118801  0.08358909  0.53095008  1
  O2-  O458  1  0.67527031  0.07485881  0.84656352  1
  O2-  O459  1  0.67168586  0.34355144  0.18308134  1
  O2-  O460  1  0.67081145  0.35124945  0.53585234  1
  O2-  O461  1  0.67810543  0.36814484  0.79614181  1
  O2-  O462  1  0.60665997  0.56581343  0.20143568  1
  O2-  O463  1  0.66722507  0.58672424  0.50960756  1
  O2-  O464  1  0.69014858  0.57374821  0.86366074  1
  O2-  O465  1  0.67018744  0.81003474  0.19427975  1
  O2-  O466  1  0.64270437  0.80998019  0.51200654  1
  O2-  O467  1  0.66081424  0.81824338  0.85096563  1
  O2-  O468  1  0.90747343  0.06805853  0.17842159  1
  O2-  O469  1  0.94756132  0.04406240  0.53688400  1
  O2-  O470  1  0.92356095  0.08891856  0.86579863  1
  O2-  O471  1  0.91340073  0.32924929  0.18464629  1
  O2-  O472  1  0.91512282  0.34344839  0.52313041  1
  O2-  O473  1  0.91270993  0.33422921  0.85402560  1
  O2-  O474  1  0.91245574  0.59352875  0.17627751  1
  O2-  O475  1  0.91716555  0.61364744  0.53692013  1
  O2-  O476  1  0.91616150  0.58656322  0.84843908  1
  O2-  O477  1  0.90668900  0.82422777  0.18069388  1
  O2-  O478  1  0.90130079  0.82066899  0.50463483  1
  O2-  O479  1  0.93669970  0.83173014  0.86686324  1
  O2-  O480  1  0.18397953  0.10923337  0.30659047  1
  O2-  O481  1  0.16441724  0.08956550  0.64521857  1
  O2-  O482  1  0.18284451  0.09518736  0.98157647  1
  O2-  O483  1  0.17088605  0.34239135  0.31465775  1
  O2-  O484  1  0.16694385  0.33773049  0.65367435  1
  O2-  O485  1  0.13924999  0.32303656  0.97724450  1
  O2-  O486  1  0.16945282  0.58965147  0.31562439  1
  O2-  O487  1  0.15504426  0.56922702  0.65008438  1
  O2-  O488  1  0.19008150  0.59161116  0.98760681  1
  O2-  O489  1  0.16145302  0.82745599  0.31920702  1
  O2-  O490  1  0.17206858  0.81649557  0.64670961  1
  O2-  O491  1  0.14914042  0.82340974  0.98113803  1
  O2-  O492  1  0.40262518  0.07180213  0.30181870  1
  O2-  O493  1  0.41923229  0.07652911  0.64746162  1
  O2-  O494  1  0.41896161  0.07753740  0.98448895  1
  O2-  O495  1  0.37878701  0.31119015  0.34030752  1
  O2-  O496  1  0.40989411  0.35167385  0.63735683  1
  O2-  O497  1  0.41644548  0.33645168  0.99357860  1
  O2-  O498  1  0.42636224  0.58436302  0.29625158  1
  O2-  O499  1  0.41598150  0.59757503  0.62852375  1
  O2-  O500  1  0.42381592  0.58474336  0.99231863  1
  O2-  O501  1  0.42858232  0.83135380  0.32419878  1
  O2-  O502  1  0.41524225  0.83354146  0.63865544  1
  O2-  O503  1  0.42130842  0.84030307  0.98522629  1
  O2-  O504  1  0.66266060  0.07103598  0.30906036  1
  O2-  O505  1  0.67178333  0.07630882  0.65109722  1
  O2-  O506  1  0.68087296  0.10190564  0.96800151  1
  O2-  O507  1  0.71719637  0.30646754  0.28957684  1
  O2-  O508  1  0.66143756  0.32226324  0.68545932  1
  O2-  O509  1  0.65592393  0.31037820  1.00604233  1
  O2-  O510  1  0.66826370  0.58661450  0.31297342  1
  O2-  O511  1  0.66644340  0.58417092  0.63083265  1
  O2-  O512  1  0.63657994  0.58441713  0.98819919  1
  O2-  O513  1  0.66987382  0.83007537  0.31479859  1
  O2-  O514  1  0.65129509  0.82271719  0.63398158  1
  O2-  O515  1  0.67723749  0.83893988  0.97760877  1
  O2-  O516  1  0.92331460  0.08931508  0.33845640  1
  O2-  O517  1  0.91958598  0.07691308  0.65101207  1
  O2-  O518  1  0.92557091  0.09692851  0.99018218  1
  O2-  O519  1  0.86149019  0.29962800  0.29757416  1
  O2-  O520  1  0.91503327  0.32409907  0.64828413  1
  O2-  O521  1  0.92604436  0.34207411  0.97863018  1
  O2-  O522  1  0.92691514  0.57412279  0.31767577  1
  O2-  O523  1  0.83694920  0.61801103  0.65009793  1
  O2-  O524  1  0.91762896  0.57430788  0.96794837  1
  O2-  O525  1  0.91082157  0.83125380  0.30700475  1
  O2-  O526  1  0.90695040  0.82717691  0.61973779  1
  O2-  O527  1  0.83329442  0.75218953  1.01576123  1
  O2-  O528  1  0.09396151  0.17541504  0.02744595  1
  O2-  O529  1  0.08592495  0.17874090  0.36409627  1
  O2-  O530  1  0.08193127  0.16853025  0.69308145  1
  O2-  O531  1  0.09448722  0.43025643  0.02462594  1
  O2-  O532  1  0.08499255  0.42469358  0.34919209  1
  O2-  O533  1  0.07406338  0.41105838  0.69701860  1
  O2-  O534  1  0.08090793  0.65787287  0.02332754  1
  O2-  O535  1  0.08468949  0.67046399  0.37420662  1
  O2-  O536  1  0.08065657  0.65201055  0.68739609  1
  O2-  O537  1  0.00450762  0.83997398  -0.01901823  1
  O2-  O538  1  0.08080395  0.91901127  0.34878261  1
  O2-  O539  1  0.07749615  0.91249350  0.64882464  1
  O2-  O540  1  0.34759824  0.16706693  0.01956790  1
  O2-  O541  1  0.32810094  0.14741078  0.37007899  1
  O2-  O542  1  0.32543034  0.14482044  0.70465971  1
  O2-  O543  1  0.31424606  0.41403347  0.01411073  1
  O2-  O544  1  0.33202482  0.43856660  0.35521852  1
  O2-  O545  1  0.33928189  0.42618026  0.69020893  1
  O2-  O546  1  0.33781513  0.66163603  0.02488170  1
  O2-  O547  1  0.33068790  0.67179163  0.37087218  1
  O2-  O548  1  0.32727851  0.66948893  0.67298527  1
  O2-  O549  1  0.32636868  0.91577686  0.02589897  1
  O2-  O550  1  0.33284308  0.91747217  0.35144326  1
  O2-  O551  1  0.33803649  0.91669502  0.69028639  1
  O2-  O552  1  0.57124051  0.14108607  0.03118589  1
  O2-  O553  1  0.57377956  0.14892431  0.32787817  1
  O2-  O554  1  0.58193205  0.15253110  0.68740461  1
  O2-  O555  1  0.58373151  0.42135090  0.02881822  1
  O2-  O556  1  0.53203632  0.42341492  0.37076977  1
  O2-  O557  1  0.57487626  0.41663625  0.67523414  1
  O2-  O558  1  0.49164956  0.60484294  0.03767815  1
  O2-  O559  1  0.57418297  0.66509980  0.34563969  1
  O2-  O560  1  0.58012850  0.65769948  0.67937690  1
  O2-  O561  1  0.59900468  0.94177573  0.01200124  1
  O2-  O562  1  0.58867401  0.91648744  0.35234210  1
  O2-  O563  1  0.57943419  0.90710625  0.68537355  1
  O2-  O564  1  0.83740515  0.17629570  0.01904602  1
  O2-  O565  1  0.81356709  0.16561423  0.35535685  1
  O2-  O566  1  0.83832643  0.16005725  0.68904379  1
  O2-  O567  1  0.83222037  0.41024247  0.02377498  1
  O2-  O568  1  0.83233704  0.42423104  0.36945591  1
  O2-  O569  1  0.83202362  0.41445026  0.66371408  1
  O2-  O570  1  0.79845037  0.66165967  0.03122008  1
  O2-  O571  1  0.83187559  0.66343726  0.34701521  1
  O2-  O572  1  0.89157699  0.69694265  0.68551611  1
  O2-  O573  1  0.83848287  0.92271122  0.02701691  1
  O2-  O574  1  0.83091422  0.91177959  0.35988690  1
  O2-  O575  1  0.82662002  0.90915718  0.66366842  1
