# generated using pymatgen
data_H2O
_symmetry_space_group_name_H-M   'P 1'
_cell_length_a   17.99181195
_cell_length_b   17.98678475
_cell_length_c   22.00770224
_cell_angle_alpha   89.99555327
_cell_angle_beta   89.99398510
_cell_angle_gamma   119.97693814
_symmetry_Int_Tables_number   1
_chemical_formula_structural   H2O
_chemical_formula_sum   'H384 O192'
_cell_volume   6169.28230212
_cell_formula_units_Z   192
loop_
 _symmetry_equiv_pos_site_id
 _symmetry_equiv_pos_as_xyz
  1  'x, y, z'
loop_
 _atom_type_symbol
 _atom_type_oxidation_number
  H+  1.0
  O2-  -2.0
loop_
 _atom_site_type_symbol
 _atom_site_label
 _atom_site_symmetry_multiplicity
 _atom_site_fract_x
 _atom_site_fract_y
 _atom_site_fract_z
 _atom_site_occupancy
  H+  H0  1  0.09377488  0.45805969  0.00612138  1
  H+  H1  1  0.87673406  0.02199107  0.16626732  1
  H+  H2  1  0.86162547  0.37100518  0.83031167  1
  H+  H3  1  0.89908620  0.58626903  0.25725552  1
  H+  H4  1  0.90699849  0.07572600  0.26227176  1
  H+  H5  1  0.62438598  0.87101402  0.16226999  1
  H+  H6  1  0.33686651  0.66196352  0.07732048  1
  H+  H7  1  0.50358108  0.11772235  0.49730964  1
  H+  H8  1  0.72751171  0.11218395  0.99965921  1
  H+  H9  1  0.71916557  0.35549739  0.67788145  1
  H+  H10  1  0.62848836  0.96451034  0.15961263  1
  H+  H11  1  0.38562891  0.01662457  0.32001926  1
  H+  H12  1  0.25923135  0.13011902  0.67802332  1
  H+  H13  1  0.40328571  0.27983016  0.32906826  1
  H+  H14  1  0.57959305  0.18606222  0.09382185  1
  H+  H15  1  0.01649571  0.87124656  0.14811754  1
  H+  H16  1  0.62337558  0.39504468  1.00036895  1
  H+  H17  1  0.11596367  0.00749196  0.51266897  1
  H+  H18  1  0.36722664  0.15625404  0.04327807  1
  H+  H19  1  0.10310590  0.22059012  0.16198380  1
  H+  H20  1  0.57125924  0.84254122  0.81303764  1
  H+  H21  1  0.64418680  0.86243196  0.66170996  1
  H+  H22  1  0.86227192  0.13659568  0.15624182  1
  H+  H23  1  0.86088318  0.22526079  0.00482493  1
  H+  H24  1  0.61019844  0.88427361  0.34070351  1
  H+  H25  1  0.85378608  0.88136023  0.00136608  1
  H+  H26  1  0.02684197  0.13910373  0.00472246  1
  H+  H27  1  0.86094965  0.98089582  0.33439590  1
  H+  H28  1  -0.01212063  0.10869366  0.84218361  1
  H+  H29  1  0.86898042  0.61420911  0.16821609  1
  H+  H30  1  0.85001495  0.62494137  0.33593017  1
  H+  H31  1  0.16793629  0.10277529  0.23518773  1
  H+  H32  1  0.11620135  0.47841456  0.68395166  1
  H+  H33  1  0.88019637  0.86711477  0.16209848  1
  H+  H34  1  0.10952882  0.47710674  0.82509095  1
  H+  H35  1  0.66306571  0.34598420  0.52000282  1
  H+  H36  1  0.21431393  0.84775544  0.84392186  1
  H+  H37  1  0.88197741  0.36634392  0.16707550  1
  H+  H38  1  0.67340509  0.83380743  0.60267865  1
  H+  H39  1  0.77372959  0.88914924  0.33492664  1
  H+  H40  1  0.38360027  0.76333491  0.31785655  1
  H+  H41  1  0.59546330  0.24377788  0.15251877  1
  H+  H42  1  0.01267169  0.87910650  0.66347991  1
  H+  H43  1  0.68233775  0.59101591  0.90320865  1
  H+  H44  1  0.88513589  0.86110276  0.66053494  1
  H+  H45  1  0.62427361  0.00943886  0.49000306  1
  H+  H46  1  0.36938103  0.23273502  0.82674721  1
  H+  H47  1  0.78877617  0.40678030  0.00629708  1
  H+  H48  1  1.00623247  0.38827604  0.15504409  1
  H+  H49  1  0.08883514  0.92436907  0.39748797  1
  H+  H50  1  0.33235991  0.20150642  0.49040615  1
  H+  H51  1  0.22834939  0.36528637  0.84161506  1
  H+  H52  1  0.13378543  0.52607917  0.51187790  1
  H+  H53  1  0.34343008  0.96855142  0.66796862  1
  H+  H54  1  0.85906771  0.48086912  0.15790377  1
  H+  H55  1  0.57570946  0.86049623  0.84484142  1
  H+  H56  1  0.13274029  0.12184193  0.17244153  1
  H+  H57  1  0.89743828  0.89031356  0.32087327  1
  H+  H58  1  0.13707081  0.60746887  0.30268053  1
  H+  H59  1  0.39237730  0.62322633  -0.00007820  1
  H+  H60  1  0.71338832  0.60330578  0.32291825  1
  H+  H61  1  0.83076427  0.91979123  0.42831666  1
  H+  H62  1  0.66108397  0.84299980  0.84688764  1
  H+  H63  1  0.80581388  0.64189674  0.83228069  1
  H+  H64  1  0.64551661  0.29150864  0.99644182  1
  H+  H65  1  0.61231467  1.01277596  0.31661906  1
  H+  H66  1  0.52955588  0.39436460  0.83703321  1
  H+  H67  1  0.32639587  0.19147331  0.08879254  1
  H+  H68  1  0.85934524  0.89016695  0.48903563  1
  H+  H69  1  0.87084083  0.01804165  0.50647671  1
  H+  H70  1  0.41753732  0.84392131  0.71390097  1
  H+  H71  1  0.60113883  0.55542021  0.52912410  1
  H+  H72  1  0.28743937  0.91583057  0.01552553  1
  H+  H73  1  0.11622181  0.40038972  0.34363968  1
  H+  H74  1  1.01934156  0.38240942  0.82936583  1
  H+  H75  1  0.79345648  0.88230825  0.83397852  1
  H+  H76  1  0.23509599  0.37031076  -0.00706281  1
  H+  H77  1  0.12810625  0.57324990  1.06730365  1
  H+  H78  1  0.64998020  0.24332184  0.33777119  1
  H+  H79  1  0.73603954  0.63444184  0.49482967  1
  H+  H80  1  0.37833788  0.75809732  0.67634062  1
  H+  H81  1  0.59109934  0.22871028  0.68832957  1
  H+  H82  1  0.11719484  0.38090133  1.00384358  1
  H+  H83  1  0.22580280  0.44611461  0.28447104  1
  H+  H84  1  0.59466753  0.91037135  1.07086336  1
  H+  H85  1  0.86838952  0.22559610  0.33176374  1
  H+  H86  1  0.62164395  0.71171871  0.83308728  1
  H+  H87  1  0.33748810  0.42168300  0.77627178  1
  H+  H88  1  0.92339506  0.33561927  0.90573588  1
  H+  H89  1  0.11527263  0.76420710  0.66728104  1
  H+  H90  1  0.35340149  0.24833278  0.66862199  1
  H+  H91  1  0.47595181  0.61075274  0.84520040  1
  H+  H92  1  0.26935476  0.38790997  0.68213193  1
  H+  H93  1  0.86375923  0.48144483  0.32198411  1
  H+  H94  1  0.16503438  0.79568417  1.01565562  1
  H+  H95  1  0.14005230  0.86813675  0.32076983  1
  H+  H96  1  0.36091729  0.63392829  0.83390503  1
  H+  H97  1  0.34003728  0.87791212  0.66742952  1
  H+  H98  1  0.61434296  0.63329499  0.67633613  1
  H+  H99  1  0.36259005  0.63393047  0.33115127  1
  H+  H100  1  0.92135508  0.08174677  0.93666843  1
  H+  H101  1  0.11838695  -0.02548797  1.00029274  1
  H+  H102  1  0.63181899  0.01459344  0.63490155  1
  H+  H103  1  0.64514708  0.37440737  0.84591472  1
  H+  H104  1  0.41296766  0.30761411  0.18080656  1
  H+  H105  1  0.47727971  0.60786808  0.66557779  1
  H+  H106  1  0.39620316  0.38090796  0.00000294  1
  H+  H107  1  0.52755167  0.39825667  0.00334292  1
  H+  H108  1  0.39859222  0.12475030  0.96537891  1
  H+  H109  1  0.11859816  0.22478003  0.82788384  1
  H+  H110  1  0.72268266  0.10294698  0.62904346  1
  H+  H111  1  0.38987336  0.36802654  0.84680868  1
  H+  H112  1  0.04976746  0.53551421  0.94484951  1
  H+  H113  1  0.34247385  0.43403619  0.06345974  1
  H+  H114  1  0.49730261  0.63000985  0.50945906  1
  H+  H115  1  0.88645518  1.02065694  0.66337423  1
  H+  H116  1  0.93110643  0.84985047  0.90753672  1
  H+  H117  1  0.36161606  0.86991354  0.32407094  1
  H+  H118  1  0.72715891  0.37799521  0.16338493  1
  H+  H119  1  1.00811222  0.87477235  0.49077140  1
  H+  H120  1  0.88846303  0.11308573  -0.00592202  1
  H+  H121  1  0.90768616  0.78817415  0.84588202  1
  H+  H122  1  0.85607951  0.12434428  0.65833021  1
  H+  H123  1  0.37117996  0.49452392  1.00349725  1
  H+  H124  1  0.78330792  0.38995952  0.83549958  1
  H+  H125  1  0.02818170  0.88386027  -0.00403302  1
  H+  H126  1  0.22897440  0.11826819  1.00339341  1
  H+  H127  1  0.10366730  0.63535455  0.68308685  1
  H+  H128  1  0.13154888  0.12509338  0.32578201  1
  H+  H129  1  0.41888779  0.33690380  0.90532676  1
  H+  H130  1  0.12457052  0.13861824  0.82808054  1
  H+  H131  1  0.36206128  0.35319876  0.66835631  1
  H+  H132  1  0.61186216  0.64131213  0.33524997  1
  H+  H133  1  0.28205751  0.14215665  0.82924089  1
  H+  H134  1  0.86725799  0.65660651  1.01681885  1
  H+  H135  1  0.27707613  0.62971424  0.49134917  1
  H+  H136  1  0.22476299  0.34936650  0.17880844  1
  H+  H137  1  0.96209627  0.49724148  0.54845968  1
  H+  H138  1  0.52883094  0.88368341  0.66392746  1
  H+  H139  1  0.08207043  0.37801404  0.48436354  1
  H+  H140  1  0.96719443  0.11024133  0.16848858  1
  H+  H141  1  0.89871568  0.01737256  0.84207921  1
  H+  H142  1  0.29922689  0.42580780  0.47641475  1
  H+  H143  1  0.55569894  0.44871492  0.17417329  1
  H+  H144  1  1.01428680  0.13200661  0.33777480  1
  H+  H145  1  0.36564760  0.73767396  0.16540119  1
  H+  H146  1  0.14563554  0.87116538  -0.00081337  1
  H+  H147  1  0.86888571  0.27100611  0.64558308  1
  H+  H148  1  0.18352952  0.82951585  0.46187322  1
  H+  H149  1  0.64476926  0.36898210  0.31784694  1
  H+  H150  1  0.76948264  0.42757339  0.45920366  1
  H+  H151  1  0.38671613  0.14604809  0.33297886  1
  H+  H152  1  0.73043835  0.61345341  0.66689440  1
  H+  H153  1  0.66107285  0.56240900  0.58510039  1
  H+  H154  1  0.63319613  0.10954908  0.31525905  1
  H+  H155  1  0.01740777  0.69029446  -0.01709259  1
  H+  H156  1  0.12819879  0.26345362  0.67132404  1
  H+  H157  1  0.10743240  0.72848801  0.31256872  1
  H+  H158  1  0.22937729  0.37108418  0.49463413  1
  H+  H159  1  0.54644197  0.15360425  0.83520973  1
  H+  H160  1  0.76668968  0.13629535  0.48294871  1
  H+  H161  1  0.76680892  0.88402302  0.15681095  1
  H+  H162  1  0.85916890  0.62264919  0.52020925  1
  H+  H163  1  0.73088162  0.62480243  1.00080255  1
  H+  H164  1  0.86706532  0.74739027  0.00955922  1
  H+  H165  1  0.22180273  0.60442739  0.67200201  1
  H+  H166  1  0.21829417  0.61247059  0.83147560  1
  H+  H167  1  0.52636456  0.89319974  0.49836708  1
  H+  H168  1  0.64012702  0.78320882  0.32437719  1
  H+  H169  1  0.47569916  0.10846978  0.15964163  1
  H+  H170  1  0.77801968  0.88494464  0.67811370  1
  H+  H171  1  0.04818935  0.92097169  0.33287634  1
  H+  H172  1  0.39614854  0.03869511  0.98901471  1
  H+  H173  1  0.07395599  0.72961127  0.83504859  1
  H+  H174  1  0.63723738  0.61551817  0.00366793  1
  H+  H175  1  0.61065446  0.18263800  0.78068581  1
  H+  H176  1  0.65680442  0.68169896  0.47134786  1
  H+  H177  1  0.61458216  0.39201454  0.68287124  1
  H+  H178  1  0.61031951  0.72233394  1.01864918  1
  H+  H179  1  0.10698090  0.96896126  0.66804582  1
  H+  H180  1  0.08233322  0.66136869  0.36515362  1
  H+  H181  1  0.51682792  0.87512671  0.34109979  1
  H+  H182  1  0.01267006  0.62934881  0.67772928  1
  H+  H183  1  0.87400006  0.10900017  0.50952595  1
  H+  H184  1  0.11754791  0.22797703  1.00465003  1
  H+  H185  1  0.09280152  0.49176091  0.13052827  1
  H+  H186  1  0.09836010  0.72489735  0.15477067  1
  H+  H187  1  0.36969949  0.35564667  0.50530864  1
  H+  H188  1  0.62453948  0.49379256  0.00279343  1
  H+  H189  1  0.84976655  0.38159997  0.67481337  1
  H+  H190  1  0.39152973  0.48652762  0.33207583  1
  H+  H191  1  0.89300691  0.64811831  0.49688669  1
  H+  H192  1  0.36926464  0.63940184  0.48856162  1
  H+  H193  1  0.89660908  0.26678473  0.85246518  1
  H+  H194  1  0.49142803  0.63175384  0.31190747  1
  H+  H195  1  0.64450594  0.46612554  0.50602367  1
  H+  H196  1  0.48142857  0.62076097  0.99868902  1
  H+  H197  1  0.39380875  0.29080751  0.00847804  1
  H+  H198  1  0.65273634  0.61340046  0.84151730  1
  H+  H199  1  0.84553722  0.72715750  0.16210578  1
  H+  H200  1  0.40896858  0.12819706  0.83073016  1
  H+  H201  1  0.15206620  0.03091196  0.84516219  1
  H+  H202  1  0.97754586  0.36674283  0.31856125  1
  H+  H203  1  0.65325681  0.40185369  0.17006454  1
  H+  H204  1  0.10176333  0.88212118  0.49165541  1
  H+  H205  1  0.85723688  0.77329433  0.50202681  1
  H+  H206  1  1.00421994  0.12049788  0.49569330  1
  H+  H207  1  0.62524058  0.74519008  0.48983698  1
  H+  H208  1  0.93058030  0.82293347  0.32310100  1
  H+  H209  1  0.88846603  0.36541091  0.31500882  1
  H+  H210  1  0.15141818  0.61875494  0.53406679  1
  H+  H211  1  0.36194040  0.62858979  0.67754413  1
  H+  H212  1  0.88568131  0.89116891  0.83034639  1
  H+  H213  1  0.02014826  0.13470118  0.67547416  1
  H+  H214  1  0.96668018  0.61710803  0.31159574  1
  H+  H215  1  0.64028478  0.52191536  0.67267385  1
  H+  H216  1  0.48304350  0.62713158  0.21265506  1
  H+  H217  1  0.72329425  0.09710122  0.16553207  1
  H+  H218  1  0.61062072  0.72568708  0.17371743  1
  H+  H219  1  0.95901762  0.92482374  0.97697335  1
  H+  H220  1  0.73474678  0.10650962  0.84731155  1
  H+  H221  1  0.43872438  0.32922397  0.52017420  1
  H+  H222  1  0.36257825  0.43345231  0.42148882  1
  H+  H223  1  0.33744732  0.11623058  0.48989328  1
  H+  H224  1  0.85177022  0.22701614  0.48897437  1
  H+  H225  1  0.57770846  0.37350878  0.48125694  1
  H+  H226  1  0.11254347  0.38377612  0.68457287  1
  H+  H227  1  0.42691570  0.90054192  0.17530206  1
  H+  H228  1  0.04623146  0.64312128  0.54009866  1
  H+  H229  1  0.93222536  0.49110105  0.86597490  1
  H+  H230  1  0.83369290  0.70319385  0.32972196  1
  H+  H231  1  0.52184256  1.00160681  0.77798458  1
  H+  H232  1  0.33170636  0.65597358  0.73887322  1
  H+  H233  1  0.63913052  0.86962066  0.50817201  1
  H+  H234  1  0.85495875  0.97141109  0.00256215  1
  H+  H235  1  0.88091520  0.10915382  0.32214349  1
  H+  H236  1  0.09039663  0.11707858  0.49581787  1
  H+  H237  1  0.72942502  0.87167872  0.50494064  1
  H+  H238  1  0.87562444  0.49771757  0.01486868  1
  H+  H239  1  0.37658549  0.39878875  0.16253323  1
  H+  H240  1  0.51398196  0.18725896  0.73399996  1
  H+  H241  1  0.65199135  0.57167689  0.26424786  1
  H+  H242  1  0.22371411  0.85783996  0.31502549  1
  H+  H243  1  0.72780714  0.31218840  0.53050807  1
  H+  H244  1  0.20505482  0.09437128  0.50800001  1
  H+  H245  1  0.37016369  0.10660403  0.65995142  1
  H+  H246  1  0.37557610  0.91594381  0.02391495  1
  H+  H247  1  0.61793907  0.48092485  0.33814031  1
  H+  H248  1  0.04348366  0.67098695  0.77587440  1
  H+  H249  1  0.77589659  0.39005481  0.32096699  1
  H+  H250  1  0.15321968  1.04902670  0.32559464  1
  H+  H251  1  0.59849018  1.00554529  0.81493005  1
  H+  H252  1  0.12952517  0.10450270  0.66341347  1
  H+  H253  1  0.41450518  0.53909045  0.50437831  1
  H+  H254  1  0.13743240  0.36171242  0.84091966  1
  H+  H255  1  0.62209975  0.48197287  0.83654187  1
  H+  H256  1  0.12903124  0.84773694  0.16078435  1
  H+  H257  1  0.71907261  0.85599841  0.99713468  1
  H+  H258  1  0.34328768  0.87297361  0.82290695  1
  H+  H259  1  0.36444232  0.48039749  0.83612541  1
  H+  H260  1  -0.04513114  0.36743790  0.49277057  1
  H+  H261  1  0.65192157  0.06308922  0.21900217  1
  H+  H262  1  0.25756006  0.15894262  0.17302478  1
  H+  H263  1  0.41402384  0.91301585  0.53932095  1
  H+  H264  1  0.86503685  0.36385059  0.48557353  1
  H+  H265  1  0.53808256  0.15369502  -0.00318288  1
  H+  H266  1  0.61387189  0.09922175  0.49352846  1
  H+  H267  1  -0.02530358  0.35648903  -0.00337132  1
  H+  H268  1  0.38671699  0.39394946  0.33819424  1
  H+  H269  1  0.36099867  0.72279643  0.83042376  1
  H+  H270  1  0.12810246  0.73744857  0.53985466  1
  H+  H271  1  0.36464891  0.72449737  0.02185716  1
  H+  H272  1  0.61626445  -0.02520219  1.01364141  1
  H+  H273  1  0.86383489  0.63584435  0.67273709  1
  H+  H274  1  0.91655964  0.33644493  0.22478175  1
  H+  H275  1  0.87556856  0.51470585  0.67000123  1
  H+  H276  1  0.89377872  0.37184454  0.99562275  1
  H+  H277  1  0.46766110  0.87983538  0.83653771  1
  H+  H278  1  0.13941519  0.11427144  0.99651231  1
  H+  H279  1  0.62417095  0.15009736  0.00489409  1
  H+  H280  1  0.12284601  0.33950557  0.49121000  1
  H+  H281  1  0.87798062  0.12647826  0.84191476  1
  H+  H282  1  0.90135131  0.50713030  0.50302570  1
  H+  H283  1  0.59631353  0.20212118  0.50372566  1
  H+  H284  1  0.04187462  0.90415070  0.83897787  1
  H+  H285  1  0.41001230  0.83979388  1.07542597  1
  H+  H286  1  0.16097124  0.82166890  0.21986026  1
  H+  H287  1  0.85963319  0.22492546  0.15493142  1
  H+  H288  1  0.37702387  0.31267609  0.60362567  1
  H+  H289  1  0.90403380  0.66419930  0.82076672  1
  H+  H290  1  0.07963188  0.90163883  0.09147291  1
  H+  H291  1  0.08153721  0.16238388  0.73523683  1
  H+  H292  1  0.89022541  0.33392375  0.59033315  1
  H+  H293  1  0.61622328  0.42801620  0.39721015  1
  H+  H294  1  0.16185007  0.32626307  0.61194018  1
  H+  H295  1  0.17395861  0.33521494  0.93397031  1
  H+  H296  1  0.83053100  0.42634775  0.40728369  1
  H+  H297  1  0.16426278  0.32472649  0.55819485  1
  H+  H298  1  0.30824781  0.90043388  0.76560006  1
  H+  H299  1  0.39571559  0.06612423  0.56955308  1
  H+  H300  1  0.66131964  0.31724969  0.61860258  1
  H+  H301  1  0.12602372  0.89762040  0.84286619  1
  H+  H302  1  0.65106686  0.28764326  0.84951474  1
  H+  H303  1  0.58835057  0.42487785  0.74127286  1
  H+  H304  1  0.44172485  0.35995038  0.24163459  1
  H+  H305  1  0.58439208  0.65757022  0.77172957  1
  H+  H306  1  0.14381313  0.70843475  0.43283346  1
  H+  H307  1  0.65678533  0.12581270  0.84924045  1
  H+  H308  1  0.58362757  0.93911401  0.71843787  1
  H+  H309  1  0.33808633  0.16436971  0.38692614  1
  H+  H310  1  0.07034678  0.40073786  0.09620805  1
  H+  H311  1  0.16729076  0.32290125  0.23745624  1
  H+  H312  1  0.82263679  0.91539714  0.09436146  1
  H+  H313  1  0.58574468  0.67730558  0.39353833  1
  H+  H314  1  0.90359841  0.82747780  0.56247698  1
  H+  H315  1  0.22318066  0.60640585  0.31809764  1
  H+  H316  1  0.57505865  0.66298126  0.07844731  1
  H+  H317  1  0.78101574  0.66822809  0.43033343  1
  H+  H318  1  0.41700258  0.84117787  0.89816747  1
  H+  H319  1  0.99811171  0.58923817  0.86278825  1
  H+  H320  1  0.83430838  0.16567534  0.06414254  1
  H+  H321  1  0.42258027  0.82884096  0.26029839  1
  H+  H322  1  0.61359185  0.72173551  0.67544735  1
  H+  H323  1  0.07616466  0.16628724  0.09949402  1
  H+  H324  1  0.16364054  0.57077546  0.61297331  1
  H+  H325  1  0.66968554  0.34272871  0.25468442  1
  H+  H326  1  0.60072597  0.17626510  0.38987601  1
  H+  H327  1  0.67523734  0.35189321  0.93724534  1
  H+  H328  1  0.08175535  0.41446905  0.75303828  1
  H+  H329  1  0.88464435  0.77109815  0.65889576  1
  H+  H330  1  0.23947032  0.89500644  0.51162602  1
  H+  H331  1  0.41523168  0.07008658  0.26002194  1
  H+  H332  1  0.66997364  0.83858293  0.26372355  1
  H+  H333  1  0.91151578  0.07630105  0.60141270  1
  H+  H334  1  0.35653222  0.64920231  0.18211246  1
  H+  H335  1  0.34942804  0.16054600  0.17251987  1
  H+  H336  1  0.91823850  0.84868877  0.22182940  1
  H+  H337  1  0.71214577  0.60082740  0.16866020  1
  H+  H338  1  0.83118066  0.41107473  0.74035357  1
  H+  H339  1  0.66705835  0.07851555  0.94169388  1
  H+  H340  1  0.86077591  0.17152013  0.78680427  1
  H+  H341  1  0.42274847  0.58317322  0.60449761  1
  H+  H342  1  0.43565840  0.09018665  0.88583732  1
  H+  H343  1  0.48104886  0.87578841  1.02525489  1
  H+  H344  1  0.20555058  0.85506113  0.66209285  1
  H+  H345  1  0.81938207  0.67449688  0.10077122  1
  H+  H346  1  0.32343692  0.88553428  0.38354452  1
  H+  H347  1  0.15841562  0.07390202  0.60354090  1
  H+  H348  1  0.14165690  0.66555292  0.43672527  1
  H+  H349  1  0.57474571  0.90719163  0.43154966  1
  H+  H350  1  0.96005643  0.61693709  0.16909140  1
  H+  H351  1  0.84104797  0.91528082  0.73661204  1
  H+  H352  1  0.41933100  0.58997230  0.90578528  1
  H+  H353  1  0.04015889  0.67153909  0.09621081  1
  H+  H354  1  0.49789302  0.87067481  0.17003153  1
  H+  H355  1  0.67779923  0.81463441  0.90998142  1
  H+  H356  1  0.10937165  0.48393111  0.33665593  1
  H+  H357  1  0.59501302  0.62875531  0.17011935  1
  H+  H358  1  0.42897900  0.85517247  0.58599163  1
  H+  H359  1  0.25496900  0.39835259  0.32864419  1
  H+  H360  1  0.05009339  0.57888048  1.00366138  1
  H+  H361  1  0.84105814  0.16964669  0.39205483  1
  H+  H362  1  0.06716167  0.15640700  0.39930164  1
  H+  H363  1  0.65539692  0.07149317  0.55714223  1
  H+  H364  1  0.18191185  0.09586554  0.90164828  1
  H+  H365  1  0.33070872  0.65867776  0.39207920  1
  H+  H366  1  0.45799155  0.10643126  0.66229828  1
  H+  H367  1  0.84416994  0.67294761  0.73282942  1
  H+  H368  1  0.10042979  0.60639373  0.12568169  1
  H+  H369  1  0.12375968  0.60044790  0.84409770  1
  H+  H370  1  0.36259153  0.47424149  0.67540512  1
  H+  H371  1  0.91263407  0.56430819  0.60794632  1
  H+  H372  1  0.37387137  0.97847067  0.10979008  1
  H+  H373  1  0.32606859  0.16762374  0.73703600  1
  H+  H374  1  0.30558474  0.33239373  0.12151032  1
  H+  H375  1  0.71735602  0.79327557  0.21029759  1
  H+  H376  1  0.62936884  0.85427982  0.99421231  1
  H+  H377  1  0.10794076  0.86655716  0.66513557  1
  H+  H378  1  0.79927554  0.14423587  0.70444016  1
  H+  H379  1  0.83797356  0.42413716  0.09748724  1
  H+  H380  1  0.49018455  0.37050439  0.33373753  1
  H+  H381  1  0.07053571  0.42446870  0.42501415  1
  H+  H382  1  0.37578921  0.97613810  0.46671328  1
  H+  H383  1  0.16790173  0.82553333  0.90896645  1
  O2-  O384  1  0.06874127  0.16121982  0.14437586  1
  O2-  O385  1  0.06404568  0.15014829  0.48022781  1
  O2-  O386  1  0.09004570  0.16469097  0.81206953  1
  O2-  O387  1  0.06865014  0.42159598  0.13866946  1
  O2-  O388  1  0.06436667  0.41972039  0.47225230  1
  O2-  O389  1  0.07961595  0.41322193  0.81149158  1
  O2-  O390  1  0.05560353  0.66350233  0.13780936  1
  O2-  O391  1  0.10653946  0.67776105  0.55272245  1
  O2-  O392  1  0.02492284  0.67633394  0.81723449  1
  O2-  O393  1  0.07684602  0.89384454  0.13609658  1
  O2-  O394  1  0.06928502  0.90998855  0.47740684  1
  O2-  O395  1  0.10378719  0.93477089  0.82759004  1
  O2-  O396  1  0.32560903  0.19601760  0.15857754  1
  O2-  O397  1  0.30451167  0.14266224  0.47426786  1
  O2-  O398  1  0.34088554  0.17344410  0.80948711  1
  O2-  O399  1  0.32707117  0.39055204  0.13684767  1
  O2-  O400  1  0.35626167  0.43192609  0.46924430  1
  O2-  O401  1  0.33470843  0.41922803  0.82124123  1
  O2-  O402  1  0.33308406  0.67580044  0.15540406  1
  O2-  O403  1  0.33162664  0.65692634  0.46832373  1
  O2-  O404  1  0.33075848  0.66281668  0.81539580  1
  O2-  O405  1  0.39729551  0.98200730  0.15129823  1
  O2-  O406  1  0.35924878  0.97186379  0.50984371  1
  O2-  O407  1  0.30862371  0.89874383  0.81038249  1
  O2-  O408  1  0.56318063  0.18455870  0.13690443  1
  O2-  O409  1  0.56394104  0.14596443  0.48278373  1
  O2-  O410  1  0.61078001  0.18304065  0.82555039  1
  O2-  O411  1  0.61615629  0.48142115  0.15866782  1
  O2-  O412  1  0.63894120  0.41538530  0.48170927  1
  O2-  O413  1  0.58961240  0.42126624  0.82152947  1
  O2-  O414  1  0.56662077  0.66237555  0.16126197  1
  O2-  O415  1  0.60408269  0.68613964  0.47188031  1
  O2-  O416  1  0.58459440  0.65252960  0.81692959  1
  O2-  O417  1  0.59546158  0.90037148  0.14520085  1
  O2-  O418  1  0.58311911  0.91607543  0.47772178  1
  O2-  O419  1  0.54757092  0.96660540  0.78837863  1
  O2-  O420  1  0.83168302  0.16571449  0.13842614  1
  O2-  O421  1  0.82938927  0.16619604  0.47688792  1
  O2-  O422  1  0.84711211  0.15929991  0.82969522  1
  O2-  O423  1  0.83204969  0.42017234  0.14309761  1
  O2-  O424  1  0.82341169  0.42767985  0.45378354  1
  O2-  O425  1  0.84055819  0.40995134  0.81648337  1
  O2-  O426  1  0.81378976  0.66659062  0.14611790  1
  O2-  O427  1  0.76436151  0.68570915  0.46818363  1
  O2-  O428  1  0.86047701  0.68052300  0.81115620  1
  O2-  O429  1  0.82722771  0.91927379  0.13960234  1
  O2-  O430  1  0.82772358  0.91905021  0.47400267  1
  O2-  O431  1  0.85049438  0.91801200  0.81463573  1
  O2-  O432  1  0.17394479  0.10536762  0.18905426  1
  O2-  O433  1  0.14860431  0.06716470  0.52954717  1
  O2-  O434  1  0.18263961  0.09528263  0.85635492  1
  O2-  O435  1  0.16489673  0.31596879  0.19313240  1
  O2-  O436  1  0.16792666  0.32551464  0.50946835  1
  O2-  O437  1  0.16710402  0.33102866  0.85537129  1
  O2-  O438  1  0.12816245  0.57205562  0.11192041  1
  O2-  O439  1  0.17437736  0.57787323  0.53483768  1
  O2-  O440  1  0.15652961  0.57121352  0.83803386  1
  O2-  O441  1  0.15735077  0.81446793  0.17529326  1
  O2-  O442  1  0.18005846  0.84938015  0.50248591  1
  O2-  O443  1  0.15669065  0.82157457  0.86470939  1
  O2-  O444  1  0.41434664  0.06576928  0.17440133  1
  O2-  O445  1  0.39609768  0.06467958  0.52317879  1
  O2-  O446  1  0.44615065  0.10410766  0.84196297  1
  O2-  O447  1  0.44641593  0.36743042  0.19618068  1
  O2-  O448  1  0.37890062  0.31208320  0.52787531  1
  O2-  O449  1  0.42044895  0.33718286  0.86016429  1
  O2-  O450  1  0.42498421  0.60810191  0.23204191  1
  O2-  O451  1  0.43774852  0.59538171  0.52475443  1
  O2-  O452  1  0.41559899  0.58455131  0.85992081  1
  O2-  O453  1  0.43609271  0.85144602  0.18111186  1
  O2-  O454  1  0.44716330  0.88395363  0.54660787  1
  O2-  O455  1  0.41290970  0.83390481  0.85414954  1
  O2-  O456  1  0.66266516  0.05597698  0.17516395  1
  O2-  O457  1  0.65192194  0.07315783  0.50519965  1
  O2-  O458  1  0.67346458  0.08155951  0.85905871  1
  O2-  O459  1  0.66718223  0.35629892  0.17873473  1
  O2-  O460  1  0.66956636  0.29963861  0.53991780  1
  O2-  O461  1  0.67887550  0.34860136  0.86348347  1
  O2-  O462  1  0.65190491  0.56708154  0.18670165  1
  O2-  O463  1  0.65113885  0.54991246  0.53872632  1
  O2-  O464  1  0.68649303  0.58773385  0.85836681  1
  O2-  O465  1  0.68079976  0.81520842  0.19547450  1
  O2-  O466  1  0.67029720  0.84037020  0.52355700  1
  O2-  O467  1  0.68901063  0.81344486  0.86484010  1
  O2-  O468  1  0.90628827  0.08149861  0.18354002  1
  O2-  O469  1  0.89984070  0.07568431  0.52671236  1
  O2-  O470  1  0.92750531  0.07827425  0.85805437  1
  O2-  O471  1  0.91477263  0.33679384  0.17893796  1
  O2-  O472  1  0.89419593  0.33719434  0.50725955  1
  O2-  O473  1  0.92416614  0.32951304  0.86000730  1
  O2-  O474  1  0.89903406  0.58432317  0.18463271  1
  O2-  O475  1  0.94314062  0.53724382  0.53643550  1
  O2-  O476  1  0.98673744  0.53554204  0.88378901  1
  O2-  O477  1  0.90641735  0.83310100  0.17830814  1
  O2-  O478  1  0.90354379  0.82988617  0.51707881  1
  O2-  O479  1  0.93437170  0.84850898  0.85951614  1
  O2-  O480  1  0.16916700  0.10453374  0.30699560  1
  O2-  O481  1  0.16097683  0.07486683  0.64977763  1
  O2-  O482  1  0.17288817  0.08650277  0.98249472  1
  O2-  O483  1  0.20284530  0.39498044  0.31008006  1
  O2-  O484  1  0.15990569  0.32725888  0.65724372  1
  O2-  O485  1  0.17391189  0.33615553  0.97942344  1
  O2-  O486  1  0.16372991  0.57110210  0.30212547  1
  O2-  O487  1  0.16057779  0.57199612  0.65854338  1
  O2-  O488  1  0.07767729  0.54836069  0.98563618  1
  O2-  O489  1  0.16225174  0.83178934  0.30295650  1
  O2-  O490  1  0.14320058  0.82465687  0.65054374  1
  O2-  O491  1  0.18530573  0.84655040  0.99026500  1
  O2-  O492  1  0.41513176  0.07584873  0.30463453  1
  O2-  O493  1  0.39881799  0.07519843  0.64448406  1
  O2-  O494  1  0.43162233  0.09533159  0.96629666  1
  O2-  O495  1  0.43086272  0.34388225  0.31709072  1
  O2-  O496  1  0.38145626  0.31307485  0.64932562  1
  O2-  O497  1  0.42617736  0.34807230  0.98831025  1
  O2-  O498  1  0.42981253  0.59336152  0.29772610  1
  O2-  O499  1  0.41673401  0.57711875  0.64965355  1
  O2-  O500  1  0.42269634  0.59395972  0.98042496  1
  O2-  O501  1  0.41585950  0.82530506  0.30543843  1
  O2-  O502  1  0.40873588  0.82344777  0.67190412  1
  O2-  O503  1  0.41689053  0.84951065  1.03137796  1
  O2-  O504  1  0.61771677  0.05852111  0.28946167  1
  O2-  O505  1  0.66128523  0.07265133  0.61500300  1
  O2-  O506  1  0.66551447  0.08194751  0.98667500  1
  O2-  O507  1  0.67574905  0.34137721  0.29997359  1
  O2-  O508  1  0.65768891  0.32434715  0.66295356  1
  O2-  O509  1  0.67261206  0.35326361  0.98325666  1
  O2-  O510  1  0.65228970  0.57684260  0.30957623  1
  O2-  O511  1  0.66914512  0.58180034  0.65297249  1
  O2-  O512  1  0.66972036  0.58838312  0.98629110  1
  O2-  O513  1  0.66947934  0.84388506  0.31040771  1
  O2-  O514  1  0.67291369  0.83050126  0.64816650  1
  O2-  O515  1  0.65806301  0.82089250  0.98226330  1
  O2-  O516  1  0.90718987  0.07375230  0.30764587  1
  O2-  O517  1  0.91473781  0.08096499  0.64730929  1
  O2-  O518  1  0.91886995  0.08136639  0.98196952  1
  O2-  O519  1  0.91897787  0.33516886  0.30054180  1
  O2-  O520  1  0.89159061  0.33180580  0.63513595  1
  O2-  O521  1  0.91524219  0.33354204  0.98030120  1
  O2-  O522  1  0.90338401  0.58596808  0.30344605  1
  O2-  O523  1  0.90800866  0.57400964  0.65178046  1
  O2-  O524  1  0.90755820  0.59766939  1.01156593  1
  O2-  O525  1  0.93917551  0.87389955  0.30171295  1
  O2-  O526  1  0.91378768  0.83097804  0.64178532  1
  O2-  O527  1  0.93208816  0.86244442  0.97435856  1
  O2-  O528  1  0.08736447  0.16759014  0.01976233  1
  O2-  O529  1  0.07326131  0.16458272  0.35457135  1
  O2-  O530  1  0.08143705  0.16571861  0.68944394  1
  O2-  O531  1  0.07784753  0.40011897  0.02153511  1
  O2-  O532  1  0.07837576  0.42359399  0.35578512  1
  O2-  O533  1  0.08568130  0.41668114  0.70108438  1
  O2-  O534  1  0.00302221  0.65003301  0.01672078  1
  O2-  O535  1  0.07495315  0.66441682  0.32137892  1
  O2-  O536  1  0.07160898  0.66439333  0.69537905  1
  O2-  O537  1  0.09002849  0.91258916  0.01154661  1
  O2-  O538  1  0.10149467  0.93083210  0.35309265  1
  O2-  O539  1  0.07424017  0.90611794  0.67856012  1
  O2-  O540  1  0.33467679  0.18629594  0.04254638  1
  O2-  O541  1  0.37483643  0.18995425  0.35131908  1
  O2-  O542  1  0.32175366  0.16627396  0.69048989  1
  O2-  O543  1  0.34231075  0.43274405  0.01820558  1
  O2-  O544  1  0.36074795  0.43046394  0.35336790  1
  O2-  O545  1  0.33117547  0.41426465  0.69298245  1
  O2-  O546  1  0.34073962  0.66346715  0.03186000  1
  O2-  O547  1  0.32999538  0.66111558  0.34629643  1
  O2-  O548  1  0.33035544  0.65739442  0.69311806  1
  O2-  O549  1  0.34870332  0.95296432  0.02838687  1
  O2-  O550  1  0.32805301  0.89771966  0.34028065  1
  O2-  O551  1  0.30955322  0.90746282  0.68154717  1
  O2-  O552  1  0.59691966  0.18564183  0.01398491  1
  O2-  O553  1  0.64923244  0.19653608  0.36199692  1
  O2-  O554  1  0.54704144  0.17174809  0.70685419  1
  O2-  O555  1  0.59153644  0.42855963  0.01379821  1
  O2-  O556  1  0.59758917  0.42144198  0.35463668  1
  O2-  O557  1  0.58942157  0.42744453  0.69607857  1
  O2-  O558  1  0.58053468  0.66148844  0.03331040  1
  O2-  O559  1  0.58431759  0.67513278  0.34812173  1
  O2-  O560  1  0.58168801  0.66157505  0.69094223  1
  O2-  O561  1  0.58576975  0.91286624  0.02553363  1
  O2-  O562  1  0.57473797  0.90665379  0.36022946  1
  O2-  O563  1  0.58908611  0.92298638  0.67605650  1
  O2-  O564  1  0.83321593  0.16413744  0.01806587  1
  O2-  O565  1  0.84142699  0.16620427  0.34740936  1
  O2-  O566  1  0.81880196  0.15233763  0.66247417  1
  O2-  O567  1  0.84835613  0.43248847  0.02144468  1
  O2-  O568  1  0.83679390  0.42088157  0.33738781  1
  O2-  O569  1  0.82244858  0.41218471  0.69521411  1
  O2-  O570  1  0.83288975  0.68776644  0.02436737  1
  O2-  O571  1  0.81380153  0.64999837  0.35225998  1
  O2-  O572  1  0.83686298  0.66958149  0.68760670  1
  O2-  O573  1  0.82113102  0.91025728  0.01623525  1
  O2-  O574  1  0.83437882  0.91920779  0.35055231  1
  O2-  O575  1  0.83952220  0.91683982  0.69097475  1
