# generated using pymatgen
data_H2O
_symmetry_space_group_name_H-M   'P 1'
_cell_length_a   17.98527556
_cell_length_b   17.99597453
_cell_length_c   21.99456870
_cell_angle_alpha   89.98807878
_cell_angle_beta   90.03983148
_cell_angle_gamma   119.99245486
_symmetry_Int_Tables_number   1
_chemical_formula_structural   H2O
_chemical_formula_sum   'H384 O192'
_cell_volume   6165.54471293
_cell_formula_units_Z   192
loop_
 _symmetry_equiv_pos_site_id
 _symmetry_equiv_pos_as_xyz
  1  'x, y, z'
loop_
 _atom_type_symbol
 _atom_type_oxidation_number
  H+  1.0
  O2-  -2.0
loop_
 _atom_site_type_symbol
 _atom_site_label
 _atom_site_symmetry_multiplicity
 _atom_site_fract_x
 _atom_site_fract_y
 _atom_site_fract_z
 _atom_site_occupancy
  H+  H0  1  0.38655262  0.53662094  0.13565516  1
  H+  H1  1  0.52896318  0.88985760  0.32966172  1
  H+  H2  1  1.01981416  0.87597806  0.33686563  1
  H+  H3  1  0.37509476  0.86164774  0.33161826  1
  H+  H4  1  0.20476126  0.35874918  0.84862099  1
  H+  H5  1  0.13829142  0.00856819  0.82158723  1
  H+  H6  1  0.49052033  0.10383594  0.33164984  1
  H+  H7  1  0.10735266  0.87955907  0.49369851  1
  H+  H8  1  0.84334841  0.17927523  0.78439316  1
  H+  H9  1  0.36153479  0.13851121  0.01967388  1
  H+  H10  1  0.13127119  0.28422734  1.00692280  1
  H+  H11  1  0.88644541  0.86544773  0.85581361  1
  H+  H12  1  0.11633385  0.71841058  0.49691203  1
  H+  H13  1  0.33449237  0.99133928  0.47757506  1
  H+  H14  1  0.34003514  0.41798044  0.21429212  1
  H+  H15  1  0.52059383  0.64329389  0.82914824  1
  H+  H16  1  0.35658352  0.63968817  0.67470007  1
  H+  H17  1  0.76645654  0.62073288  0.49579031  1
  H+  H18  1  0.82946965  0.65735552  0.40042033  1
  H+  H19  1  0.90040925  0.10920610  0.17187763  1
  H+  H20  1  0.53053782  0.13443767  0.67514980  1
  H+  H21  1  0.17388120  0.83050718  0.22478944  1
  H+  H22  1  0.12730850  0.62205425  0.82480004  1
  H+  H23  1  0.73011459  0.10563630  0.33104834  1
  H+  H24  1  0.84583512  0.42824522  0.44948238  1
  H+  H25  1  0.52605043  0.63525001  0.14955939  1
  H+  H26  1  0.11884031  0.19758308  0.16951574  1
  H+  H27  1  0.01337645  0.20862590  0.39105677  1
  H+  H28  1  0.88622037  0.10259326  0.67102448  1
  H+  H29  1  0.52870701  0.14207176  0.83530579  1
  H+  H30  1  0.26686490  0.64457892  0.82778548  1
  H+  H31  1  0.16552474  0.58757095  0.27027398  1
  H+  H32  1  0.62663079  0.60977815  0.83771235  1
  H+  H33  1  0.65827023  0.56898621  0.66281545  1
  H+  H34  1  0.22005089  0.85959067  0.50861068  1
  H+  H35  1  0.62491780  0.76491496  0.50207919  1
  H+  H36  1  0.46252495  0.88067492  0.17921163  1
  H+  H37  1  0.11387257  0.48444432  0.34038211  1
  H+  H38  1  0.36970657  0.19877987  0.36071712  1
  H+  H39  1  0.46811341  0.10820847  1.00511042  1
  H+  H40  1  0.27788306  0.89967621  0.83315579  1
  H+  H41  1  0.72218147  0.86881907  0.85320356  1
  H+  H42  1  0.77393148  0.14699203  0.01078251  1
  H+  H43  1  0.88379672  0.76510320  0.32885172  1
  H+  H44  1  0.11510350  0.72785897  0.15807492  1
  H+  H45  1  0.85274525  0.96939757  0.49637382  1
  H+  H46  1  0.77187023  0.37191404  0.67952132  1
  H+  H47  1  0.19602191  0.82751352  1.00014338  1
  H+  H48  1  1.02207529  0.12628064  0.67804090  1
  H+  H49  1  0.02482085  0.11442647  0.16618586  1
  H+  H50  1  -0.02102193  0.84834474  -0.00345082  1
  H+  H51  1  0.91475509  0.32321835  0.56785797  1
  H+  H52  1  0.37545616  0.31860113  0.19568168  1
  H+  H53  1  0.22240568  0.11464736  1.00682800  1
  H+  H54  1  0.72364844  0.85140442  0.32651013  1
  H+  H55  1  0.63971275  1.03926676  0.00452515  1
  H+  H56  1  0.55760341  0.16944394  0.16922499  1
  H+  H57  1  0.84321666  0.45690039  -0.00261616  1
  H+  H58  1  0.42733637  0.08906630  0.90289987  1
  H+  H59  1  0.15798813  0.10947607  0.33745276  1
  H+  H60  1  0.87306218  0.40058990  0.35431719  1
  H+  H61  1  0.97596165  0.59516389  0.17301397  1
  H+  H62  1  0.41353487  0.08256456  0.17255398  1
  H+  H63  1  0.11919380  0.40324371  0.15860567  1
  H+  H64  1  0.35381180  0.99379762  0.66750582  1
  H+  H65  1  0.61988510  -0.02088892  0.32840481  1
  H+  H66  1  0.58926478  0.16105529  0.40389593  1
  H+  H67  1  0.13411145  0.76670551  0.67477585  1
  H+  H68  1  0.41807155  0.10662915  0.58500419  1
  H+  H69  1  0.12845851  0.90598538  1.00850636  1
  H+  H70  1  0.67504343  0.32658400  0.56711210  1
  H+  H71  1  0.53175985  0.36456345  0.68462374  1
  H+  H72  1  0.86392390  0.12591037  0.33437907  1
  H+  H73  1  0.11514259  0.72527855  0.33976023  1
  H+  H74  1  0.10293421  0.46174086  0.67241967  1
  H+  H75  1  0.63506580  0.25914645  0.84173268  1
  H+  H76  1  0.86339334  0.75552820  0.50700851  1
  H+  H77  1  0.36506374  0.84611765  1.01561285  1
  H+  H78  1  0.23473380  0.08686836  0.51022011  1
  H+  H79  1  -0.02791602  0.36651879  0.00157307  1
  H+  H80  1  0.61814304  0.26269886  0.99285001  1
  H+  H81  1  0.62805123  0.85587217  0.49701675  1
  H+  H82  1  0.51679733  1.00529165  0.14073381  1
  H+  H83  1  0.13726750  0.85595504  0.16751935  1
  H+  H84  1  0.22940069  0.34715374  0.50969035  1
  H+  H85  1  0.76775244  0.63145989  0.15904753  1
  H+  H86  1  0.16845639  0.32191306  0.60373114  1
  H+  H87  1  0.38860109  0.77831762  0.17835783  1
  H+  H88  1  0.34789055  0.84946468  0.12754576  1
  H+  H89  1  0.11085520  -0.03804575  0.16474931  1
  H+  H90  1  0.52139807  0.15699594  0.49158936  1
  H+  H91  1  0.51394037  0.38573989  1.01431995  1
  H+  H92  1  0.11100847  0.96382454  0.33833938  1
  H+  H93  1  0.84550768  0.16591699  0.10240303  1
  H+  H94  1  0.51768485  0.62524077  0.49093596  1
  H+  H95  1  0.11988621  0.12432037  0.49544436  1
  H+  H96  1  0.38803176  0.33801337  0.33610244  1
  H+  H97  1  0.86460162  0.14538322  0.00297503  1
  H+  H98  1  0.08493524  -0.08146984  1.06789107  1
  H+  H99  1  0.38619209  0.76195230  0.65229595  1
  H+  H100  1  0.36533944  0.45371541  0.49771262  1
  H+  H101  1  0.87226886  0.39000528  0.50567686  1
  H+  H102  1  0.26751894  0.63932902  0.67820447  1
  H+  H103  1  0.89217200  0.52951897  0.33661474  1
  H+  H104  1  0.60491056  0.47129762  0.00854166  1
  H+  H105  1  0.45122543  0.04467572  0.60041926  1
  H+  H106  1  0.36570220  0.20614755  0.17960661  1
  H+  H107  1  0.11786250  0.26732653  0.84749497  1
  H+  H108  1  0.30102005  0.95355907  -0.00322039  1
  H+  H109  1  0.65111968  0.36215943  0.34021653  1
  H+  H110  1  0.38022956  0.59879181  0.30357987  1
  H+  H111  1  0.50082401  0.62744313  -0.00302327  1
  H+  H112  1  0.41488678  0.31862715  0.65902717  1
  H+  H113  1  1.02540850  0.39536846  0.33952570  1
  H+  H114  1  0.61961608  0.22932399  0.49657166  1
  H+  H115  1  0.85467878  0.72198045  0.15575429  1
  H+  H116  1  0.65367285  0.83965432  0.94297974  1
  H+  H117  1  0.37669156  0.37535565  1.03293116  1
  H+  H118  1  0.59605186  0.73568345  0.67512597  1
  H+  H119  1  0.02494138  0.63726989  0.34146269  1
  H+  H120  1  1.01888233  0.87595273  0.16094339  1
  H+  H121  1  0.08248050  0.28233904  0.19041692  1
  H+  H122  1  0.71421728  0.60676971  0.99539625  1
  H+  H123  1  0.62902806  0.78102140  0.00106935  1
  H+  H124  1  0.78096572  0.88497539  0.16206628  1
  H+  H125  1  0.34559963  0.90597259  0.68312888  1
  H+  H126  1  1.02454823  0.63678690  0.68979649  1
  H+  H127  1  0.65383720  0.27554264  0.34144235  1
  H+  H128  1  0.13931942  0.01036085  0.50329351  1
  H+  H129  1  0.37787531  0.77825849  0.84726293  1
  H+  H130  1  0.10604843  0.39519925  0.00839860  1
  H+  H131  1  0.14828229  0.51969696  0.50478232  1
  H+  H132  1  0.61829923  0.32226196  0.15900347  1
  H+  H133  1  0.26067905  0.83965223  0.11144825  1
  H+  H134  1  0.87902969  0.22545247  0.16076950  1
  H+  H135  1  0.87959112  0.26320503  1.00351390  1
  H+  H136  1  0.38467877  0.59674219  0.49920498  1
  H+  H137  1  0.35872390  0.22659012  0.02932025  1
  H+  H138  1  0.61081784  0.46735541  0.34508062  1
  H+  H139  1  0.02652297  0.37599820  0.49795286  1
  H+  H140  1  0.55419988  0.95595277  0.10108320  1
  H+  H141  1  0.22701652  0.86005851  0.32279563  1
  H+  H142  1  0.86170940  0.63321030  0.33987996  1
  H+  H143  1  0.84976334  0.86262345  0.65759607  1
  H+  H144  1  0.84989866  0.39030697  0.78555158  1
  H+  H145  1  0.88412878  1.01326159  0.66087292  1
  H+  H146  1  0.63124930  0.60626888  0.50002377  1
  H+  H147  1  0.33244605  0.91409953  0.39703319  1
  H+  H148  1  0.64051168  0.25963681  0.66426711  1
  H+  H149  1  0.97283113  0.10202124  0.51164908  1
  H+  H150  1  0.27442559  0.63543316  0.00063087  1
  H+  H151  1  0.86480561  0.21525178  0.68538461  1
  H+  H152  1  0.61616086  0.12822981  0.68391196  1
  H+  H153  1  0.24083259  0.09897109  0.33841142  1
  H+  H154  1  0.36570821  0.71962298  -0.00084235  1
  H+  H155  1  0.76516682  0.57255412  0.69950820  1
  H+  H156  1  0.97329325  0.12445862  0.99428689  1
  H+  H157  1  0.07806782  0.16281536  0.07080266  1
  H+  H158  1  0.28133567  0.41858808  0.04773015  1
  H+  H159  1  0.96866991  0.39339373  0.82374846  1
  H+  H160  1  0.27370624  0.63775601  0.33138377  1
  H+  H161  1  0.48356749  0.86356574  0.48341990  1
  H+  H162  1  0.61877066  0.97665620  0.48129163  1
  H+  H163  1  0.74507952  0.11658548  0.17894831  1
  H+  H164  1  0.62796478  0.33931609  0.65889278  1
  H+  H165  1  0.48023385  0.34489861  0.33881417  1
  H+  H166  1  0.13646490  0.85691022  0.32221214  1
  H+  H167  1  0.36313442  0.46059176  0.33650688  1
  H+  H168  1  0.60984111  0.88104213  0.67747131  1
  H+  H169  1  0.63520241  1.01576705  0.67671698  1
  H+  H170  1  0.89718256  0.52823625  0.52599584  1
  H+  H171  1  0.46696521  0.59756443  0.30553977  1
  H+  H172  1  -0.03178267  0.34532382  0.66114147  1
  H+  H173  1  0.23119245  0.62398598  0.17627275  1
  H+  H174  1  0.07852301  0.15750015  0.77653956  1
  H+  H175  1  0.92116656  0.57749821  0.27247459  1
  H+  H176  1  0.07877844  0.70697984  0.00778227  1
  H+  H177  1  0.86220862  0.13815730  0.49469750  1
  H+  H178  1  0.61925356  0.71823665  0.15562123  1
  H+  H179  1  0.85711270  0.96273916  0.34058503  1
  H+  H180  1  0.60656917  0.13864263  0.01261304  1
  H+  H181  1  0.89468646  0.64167974  0.84837349  1
  H+  H182  1  0.00393021  0.84341366  0.82696833  1
  H+  H183  1  0.85580080  0.71245998  0.67919024  1
  H+  H184  1  0.02509722  0.64773494  0.78688550  1
  H+  H185  1  0.37540859  0.53171439  0.84563301  1
  H+  H186  1  0.20900090  0.86410652  0.66754584  1
  H+  H187  1  0.53776030  0.36593450  0.65027904  1
  H+  H188  1  0.62217296  0.13289269  0.34442667  1
  H+  H189  1  0.38642583  0.87119277  0.84210631  1
  H+  H190  1  0.28247057  0.63161227  0.48121199  1
  H+  H191  1  0.25207653  0.34305052  0.19140159  1
  H+  H192  1  0.26695486  0.11253368  0.17305253  1
  H+  H193  1  0.71734973  0.86036439  0.64902871  1
  H+  H194  1  0.13907640  0.37219074  0.33165700  1
  H+  H195  1  0.87116892  0.98786442  0.85523271  1
  H+  H196  1  0.96924172  0.10281164  0.32993736  1
  H+  H197  1  0.60087659  0.89587074  0.01654711  1
  H+  H198  1  0.81838743  0.29733454  0.29613479  1
  H+  H199  1  0.14217716  0.53488338  0.17475844  1
  H+  H200  1  0.12817253  0.84854792  0.84000356  1
  H+  H201  1  0.91274956  0.62665124  0.67693474  1
  H+  H202  1  0.39846263  0.09724881  0.32869486  1
  H+  H203  1  0.59522779  0.64752800  0.67295880  1
  H+  H204  1  0.33125649  0.23010654  0.65643547  1
  H+  H205  1  0.51871603  0.90778534  0.00849035  1
  H+  H206  1  0.38205601  0.62349141  0.84493042  1
  H+  H207  1  0.50770942  0.87236569  0.83450969  1
  H+  H208  1  -0.02009440  0.37043841  0.17056956  1
  H+  H209  1  0.16170076  0.78403489  0.85180432  1
  H+  H210  1  0.39574176  0.61886343  -0.00423027  1
  H+  H211  1  0.10252552  0.37927952  0.83035789  1
  H+  H212  1  -0.01561654  0.61557980  0.51737217  1
  H+  H213  1  0.73511722  0.12991602  0.85837834  1
  H+  H214  1  0.60454441  0.87147206  0.83467030  1
  H+  H215  1  0.88951043  0.50495767  0.17697242  1
  H+  H216  1  0.78160689  0.39360927  0.35779436  1
  H+  H217  1  0.12791590  0.27958026  0.33849582  1
  H+  H218  1  0.37617594  0.76325138  0.32500311  1
  H+  H219  1  0.33049442  0.10687159  0.68291619  1
  H+  H220  1  0.11187110  0.53262901  0.84684482  1
  H+  H221  1  0.37507253  0.97180826  0.33663131  1
  H+  H222  1  0.34321390  0.39732108  0.83039301  1
  H+  H223  1  0.87321712  0.35700920  0.99735983  1
  H+  H224  1  0.27271894  0.37675532  0.34217511  1
  H+  H225  1  0.62231667  0.35474472  -0.00710785  1
  H+  H226  1  0.38736933  0.32766664  0.50085096  1
  H+  H227  1  0.82512456  0.90643070  0.40145839  1
  H+  H228  1  0.62869593  0.59359592  0.17264224  1
  H+  H229  1  0.76723638  0.64131024  0.83475099  1
  H+  H230  1  0.39834712  0.85647101  0.94382915  1
  H+  H231  1  0.64454794  0.12282617  0.85364849  1
  H+  H232  1  0.39713132  0.96177389  0.99747336  1
  H+  H233  1  0.60262693  0.62433932  0.33605077  1
  H+  H234  1  0.86175234  0.21490643  0.33218099  1
  H+  H235  1  0.13888535  0.15460173  0.85430318  1
  H+  H236  1  0.24082497  0.15957833  0.85201835  1
  H+  H237  1  0.11824246  0.21224417  0.50339519  1
  H+  H238  1  0.37554509  0.53340675  0.66331333  1
  H+  H239  1  0.39246993  0.84646380  0.62544382  1
  H+  H240  1  0.15380535  0.06067654  0.59887428  1
  H+  H241  1  0.12080007  0.09054591  0.65820333  1
  H+  H242  1  0.85604367  0.99063213  0.01173320  1
  H+  H243  1  0.58407336  0.38841076  0.78117449  1
  H+  H244  1  0.51986388  0.36095253  0.16413425  1
  H+  H245  1  0.85537929  0.73390469  0.83761316  1
  H+  H246  1  0.36622161  0.92038660  0.49019381  1
  H+  H247  1  0.72178825  0.60549246  0.33083257  1
  H+  H248  1  0.40018125  1.03169814  0.84371179  1
  H+  H249  1  0.64388984  0.04939620  0.17607932  1
  H+  H250  1  0.60126860  0.71221838  0.33343952  1
  H+  H251  1  0.34857463  0.39832185  0.68296155  1
  H+  H252  1  0.75636169  0.36659454  0.00113298  1
  H+  H253  1  0.77750018  0.12759616  0.69271996  1
  H+  H254  1  0.83810786  0.61883714  1.00791773  1
  H+  H255  1  0.14459529  0.46832753  0.79715980  1
  H+  H256  1  0.14060657  0.34922418  0.50864832  1
  H+  H257  1  0.67450823  0.46181112  0.76185225  1
  H+  H258  1  0.73941885  0.36439899  0.51074889  1
  H+  H259  1  0.88336962  0.85348072  0.32971134  1
  H+  H260  1  0.15415587  0.63738069  -0.00384643  1
  H+  H261  1  0.63222348  0.50674592  0.17660789  1
  H+  H262  1  0.42709458  0.59583501  0.93185140  1
  H+  H263  1  0.76016263  0.35567067  0.15420412  1
  H+  H264  1  0.89010924  0.86139627  0.17290875  1
  H+  H265  1  0.59567627  0.92315649  0.41796621  1
  H+  H266  1  0.46524418  0.62229143  0.66209870  1
  H+  H267  1  0.51952035  0.87682901  0.67646858  1
  H+  H268  1  -0.04972045  0.83797752  0.65603365  1
  H+  H269  1  0.64206014  0.85215622  0.17390582  1
  H+  H270  1  0.13042044  0.99472454  0.85430127  1
  H+  H271  1  0.63878922  0.52622500  0.83533178  1
  H+  H272  1  0.88768489  0.27126262  0.50522730  1
  H+  H273  1  0.44701433  0.37773663  0.78957003  1
  H+  H274  1  0.76685265  0.90365462  1.01492444  1
  H+  H275  1  0.08545182  0.86098575  0.66935270  1
  H+  H276  1  0.86196968  0.84449149  0.50992034  1
  H+  H277  1  0.35757120  0.23102666  0.81837853  1
  H+  H278  1  0.08399926  0.66070937  0.43719509  1
  H+  H279  1  0.00925951  0.12547291  0.83676128  1
  H+  H280  1  0.11043697  0.14363937  0.01019922  1
  H+  H281  1  0.63530416  0.77551972  0.84512979  1
  H+  H282  1  0.60942831  0.10142299  0.52084536  1
  H+  H283  1  0.88729711  0.80488998  0.59624245  1
  H+  H284  1  0.13026302  0.60423926  0.67600430  1
  H+  H285  1  0.94470013  0.58451370  0.99914777  1
  H+  H286  1  0.89207629  0.09032337  0.82513487  1
  H+  H287  1  0.82031620  0.39741659  0.09698619  1
  H+  H288  1  0.30348036  0.15325380  0.77309208  1
  H+  H289  1  0.83690914  0.16730280  0.43406785  1
  H+  H290  1  0.32947889  0.67556294  0.77030911  1
  H+  H291  1  0.66901302  0.82215725  0.23388408  1
  H+  H292  1  0.41698486  0.29465975  0.25109781  1
  H+  H293  1  0.13307546  0.02709569  0.99794483  1
  H+  H294  1  0.37170285  0.71952589  0.47631887  1
  H+  H295  1  0.66159122  0.57110573  0.27196330  1
  H+  H296  1  0.11280170  0.21279541  0.67712505  1
  H+  H297  1  0.45055815  0.07553155  0.23545419  1
  H+  H298  1  0.08446820  0.94853872  0.67183808  1
  H+  H299  1  0.40777233  0.57139596  0.20589927  1
  H+  H300  1  0.31960467  0.40429076  0.10872197  1
  H+  H301  1  0.66531649  0.36753600  0.83804738  1
  H+  H302  1  0.11890700  0.64136539  0.15681729  1
  H+  H303  1  0.15736403  0.33923453  0.94691346  1
  H+  H304  1  0.66279454  0.07501552  0.61802995  1
  H+  H305  1  0.85977152  0.62868154  0.50073218  1
  H+  H306  1  0.88142722  0.17950963  0.85058656  1
  H+  H307  1  0.62158867  0.38364069  0.49966561  1
  H+  H308  1  0.33162098  0.68123887  0.09996596  1
  H+  H309  1  0.89234901  0.01546088  0.17229008  1
  H+  H310  1  0.42972920  0.82453513  0.54305773  1
  H+  H311  1  0.39780057  0.29703615  0.56473863  1
  H+  H312  1  0.33566730  0.39801593  0.43766083  1
  H+  H313  1  0.12911561  0.34873735  0.65922482  1
  H+  H314  1  0.46196506  0.37490880  0.85887529  1
  H+  H315  1  0.52785849  0.37244138  0.50185316  1
  H+  H316  1  0.57719138  0.67479570  0.76875281  1
  H+  H317  1  0.15788994  0.58028326  0.61228487  1
  H+  H318  1  0.87889445  0.34252209  0.66857372  1
  H+  H319  1  0.25874047  0.39083151  0.67789577  1
  H+  H320  1  0.07030186  0.39607794  0.72758977  1
  H+  H321  1  0.67748330  0.08799943  0.26883391  1
  H+  H322  1  0.34106310  0.66285743  0.38583094  1
  H+  H323  1  0.64951842  0.83159393  0.59471905  1
  H+  H324  1  0.16085282  0.82310732  0.56823023  1
  H+  H325  1  0.67094571  0.09952917  0.94506817  1
  H+  H326  1  0.14621478  0.60709358  0.50208132  1
  H+  H327  1  0.63760183  0.85682445  0.32061405  1
  H+  H328  1  0.10433251  0.48412720  0.00452763  1
  H+  H329  1  0.76151866  0.88194634  0.49420742  1
  H+  H330  1  0.34016588  0.12153302  0.41177823  1
  H+  H331  1  0.41015431  0.57564047  0.56351403  1
  H+  H332  1  0.36644023  0.64810513  0.15254955  1
  H+  H333  1  0.88402375  0.30747940  0.83597568  1
  H+  H334  1  0.58890139  0.17225183  0.77421740  1
  H+  H335  1  0.58208023  0.66135149  0.06384384  1
  H+  H336  1  0.66094747  0.32421837  0.90722077  1
  H+  H337  1  0.14169095  0.09511301  0.17989773  1
  H+  H338  1  0.80885430  0.88136278  0.71408463  1
  H+  H339  1  0.08599839  0.43095702  0.09959655  1
  H+  H340  1  0.91505948  0.82707314  0.23263986  1
  H+  H341  1  0.37880450  0.33887877  0.96868080  1
  H+  H342  1  0.60876773  0.63006321  0.00170796  1
  H+  H343  1  0.63030461  0.51695591  0.50954616  1
  H+  H344  1  0.17848478  0.12492056  0.91788415  1
  H+  H345  1  0.88698268  0.75949011  0.99608225  1
  H+  H346  1  0.30959869  0.42740166  0.77483882  1
  H+  H347  1  0.91058060  0.58484673  0.93276031  1
  H+  H348  1  0.08357845  0.40583776  0.43772511  1
  H+  H349  1  0.13719327  0.61679202  0.33115654  1
  H+  H350  1  0.33197641  0.15254283  0.11133314  1
  H+  H351  1  0.17609062  0.07174037  0.24131969  1
  H+  H352  1  0.91276166  0.07832560  0.56948760  1
  H+  H353  1  0.83600540  0.92200690  0.10090978  1
  H+  H354  1  0.23676690  0.09684483  0.67612103  1
  H+  H355  1  0.57219552  0.65628957  0.42940254  1
  H+  H356  1  0.90043017  0.32516007  0.25726418  1
  H+  H357  1  0.06946802  0.17163542  0.41608946  1
  H+  H358  1  0.41301944  0.19977436  0.51365417  1
  H+  H359  1  0.56832642  0.89597708  0.76867337  1
  H+  H360  1  0.84651621  0.67332366  0.74753507  1
  H+  H361  1  0.08360880  0.91026224  0.43286864  1
  H+  H362  1  0.91972335  0.07073742  0.26572972  1
  H+  H363  1  0.58071538  0.18087241  0.06759363  1
  H+  H364  1  0.94544235  0.60018368  0.61624772  1
  H+  H365  1  0.91682444  0.09467811  0.93291723  1
  H+  H366  1  0.11654319  0.69762697  0.07081234  1
  H+  H367  1  0.33377921  0.93513757  0.77324105  1
  H+  H368  1  0.64996124  0.59861034  0.59662299  1
  H+  H369  1  0.56023893  0.01083095  0.55088367  1
  H+  H370  1  0.14713886  0.32657962  0.24570471  1
  H+  H371  1  0.05446992  0.86188762  0.76410816  1
  H+  H372  1  0.20077693  0.87017764  0.93507032  1
  H+  H373  1  0.88329949  0.35446835  0.16537325  1
  H+  H374  1  0.81528294  0.65769912  0.06679791  1
  H+  H375  1  0.91771085  0.82497556  0.90873070  1
  H+  H376  1  0.16574020  0.59955525  0.93384185  1
  H+  H377  1  0.58548837  0.41046302  0.40580372  1
  H+  H378  1  0.65415445  0.57640926  0.93527716  1
  H+  H379  1  0.83818037  0.92772232  0.79851703  1
  H+  H380  1  0.98614457  0.69557674  0.87510294  1
  H+  H381  1  0.72163646  0.48231561  0.66656041  1
  H+  H382  1  0.57523136  0.39869865  0.10311320  1
  H+  H383  1  0.40506815  0.83156992  0.26359489  1
  O2-  O384  1  0.08695761  0.14043672  0.15120328  1
  O2-  O385  1  0.08632702  0.15328497  0.48527693  1
  O2-  O386  1  0.07611293  0.16330529  0.82146223  1
  O2-  O387  1  0.08790816  0.43232494  0.14523101  1
  O2-  O388  1  0.08708724  0.40254890  0.48245986  1
  O2-  O389  1  0.08833059  0.41983440  0.80742853  1
  O2-  O390  1  0.08908471  0.66968977  0.13766980  1
  O2-  O391  1  0.08655584  0.65751060  0.48240584  1
  O2-  O392  1  0.08664577  0.67020054  0.77750305  1
  O2-  O393  1  0.07949860  0.90551715  0.14432538  1
  O2-  O394  1  0.08694887  0.91753142  0.47760071  1
  O2-  O395  1  0.05083838  0.83932425  0.80590345  1
  O2-  O396  1  0.33087364  0.14463211  0.15780045  1
  O2-  O397  1  0.41528240  0.14547347  0.51603973  1
  O2-  O398  1  0.31319679  0.17004940  0.81687675  1
  O2-  O399  1  0.31496723  0.37055300  0.18511130  1
  O2-  O400  1  0.33512559  0.39338046  0.48266944  1
  O2-  O401  1  0.31037511  0.42632888  0.82057647  1
  O2-  O402  1  0.33561370  0.68044090  0.14483850  1
  O2-  O403  1  0.34155188  0.65831561  0.46313308  1
  O2-  O404  1  0.32840074  0.67523511  0.81607956  1
  O2-  O405  1  0.31145004  0.84259584  0.09225134  1
  O2-  O406  1  0.32247824  0.92961724  0.47064341  1
  O2-  O407  1  0.33835174  0.92721531  0.81739512  1
  O2-  O408  1  0.60525714  0.20807545  0.14101086  1
  O2-  O409  1  0.58036492  0.16760537  0.48432244  1
  O2-  O410  1  0.59095805  0.17650079  0.81951986  1
  O2-  O411  1  0.57888445  0.39254453  0.14797084  1
  O2-  O412  1  0.58701398  0.41014560  0.48608435  1
  O2-  O413  1  0.63887172  0.43031176  0.79908989  1
  O2-  O414  1  0.58708746  0.65971645  0.13701076  1
  O2-  O415  1  0.57739580  0.65953589  0.47457353  1
  O2-  O416  1  0.58096687  0.67241644  0.81456144  1
  O2-  O417  1  0.54135340  0.96739535  0.14321609  1
  O2-  O418  1  0.59130744  0.91851247  0.46359556  1
  O2-  O419  1  0.56758828  0.89538740  0.81571154  1
  O2-  O420  1  0.85159482  0.16430423  0.14723638  1
  O2-  O421  1  0.83759686  0.17275222  0.47884212  1
  O2-  O422  1  0.84207226  0.19279321  0.82866324  1
  O2-  O423  1  0.82138776  0.39258477  0.14182144  1
  O2-  O424  1  0.84276103  0.42318076  0.49493677  1
  O2-  O425  1  0.80482165  0.39678511  0.76255539  1
  O2-  O426  1  0.82251911  0.66430593  0.13685840  1
  O2-  O427  1  0.82644286  0.65139104  0.47956917  1
  O2-  O428  1  0.82839346  0.67252392  0.82181304  1
  O2-  O429  1  0.84083583  0.91775910  0.14698049  1
  O2-  O430  1  0.82174517  0.91029107  0.47892855  1
  O2-  O431  1  0.83095516  0.92268802  0.84245315  1
  O2-  O432  1  0.17670036  0.06962566  0.19566809  1
  O2-  O433  1  0.17506509  0.07103556  0.52133475  1
  O2-  O434  1  0.19273553  0.16040177  0.87929598  1
  O2-  O435  1  0.14321514  0.32098326  0.19924638  1
  O2-  O436  1  0.16930385  0.31837513  0.52580945  1
  O2-  O437  1  0.14465194  0.32732910  0.86406648  1
  O2-  O438  1  0.17129383  0.59403845  0.19215743  1
  O2-  O439  1  0.18024178  0.58080117  0.51755871  1
  O2-  O440  1  0.15192369  0.59438746  0.85150777  1
  O2-  O441  1  0.17114024  0.82814831  0.17948012  1
  O2-  O442  1  0.16042302  0.82211792  0.52314848  1
  O2-  O443  1  0.17676601  0.84291041  0.86162963  1
  O2-  O444  1  0.46170375  0.07974278  0.19057244  1
  O2-  O445  1  0.33670767  0.08311689  0.48069092  1
  O2-  O446  1  0.43576469  0.09156068  0.85873760  1
  O2-  O447  1  0.41002290  0.29069268  0.20479659  1
  O2-  O448  1  0.41806866  0.30213676  0.52202479  1
  O2-  O449  1  0.41714367  0.35344508  0.82786803  1
  O2-  O450  1  0.41562651  0.58779736  0.16179140  1
  O2-  O451  1  0.41263640  0.56711720  0.51897200  1
  O2-  O452  1  0.41199587  0.59253893  0.85961147  1
  O2-  O453  1  0.40704742  0.83548417  0.19771511  1
  O2-  O454  1  0.42342543  0.83250561  0.49944488  1
  O2-  O455  1  0.41244483  0.83904035  0.86200956  1
  O2-  O456  1  0.68894429  0.09928365  0.19817454  1
  O2-  O457  1  0.61828411  0.05638877  0.54139106  1
  O2-  O458  1  0.67533081  0.09683185  0.87359079  1
  O2-  O459  1  0.64979806  0.29164391  0.17148806  1
  O2-  O460  1  0.67642621  0.33033807  0.52206857  1
  O2-  O461  1  0.67252670  0.32317020  0.86136215  1
  O2-  O462  1  0.65906531  0.56648178  0.19189388  1
  O2-  O463  1  0.66112164  0.57905646  0.52067216  1
  O2-  O464  1  0.65738240  0.58160924  0.85588030  1
  O2-  O465  1  0.67039872  0.82098146  0.18758397  1
  O2-  O466  1  0.65338202  0.82485438  0.51848171  1
  O2-  O467  1  0.65848375  0.83529658  0.86158431  1
  O2-  O468  1  0.92794560  0.07657928  0.18818996  1
  O2-  O469  1  0.91194621  0.07639556  0.52418938  1
  O2-  O470  1  0.92470054  0.08353508  0.85795352  1
  O2-  O471  1  0.91950822  0.33129678  0.18334542  1
  O2-  O472  1  0.92075084  0.33129667  0.52303079  1
  O2-  O473  1  0.90869533  0.37056337  0.83559778  1
  O2-  O474  1  0.92593236  0.55900916  0.19875117  1
  O2-  O475  1  0.92759132  0.58988442  0.53848405  1
  O2-  O476  1  0.94390541  0.63607458  0.86558305  1
  O2-  O477  1  0.91830299  0.82874709  0.18721385  1
  O2-  O478  1  0.88625389  0.81116877  0.52865119  1
  O2-  O479  1  0.91230587  0.82863676  0.86239808  1
  O2-  O480  1  0.18238259  0.07738246  0.31869660  1
  O2-  O481  1  0.14611751  0.05496699  0.64427986  1
  O2-  O482  1  0.16539223  0.09019463  0.98704337  1
  O2-  O483  1  0.16381117  0.33595138  0.31744430  1
  O2-  O484  1  0.16575575  0.32306315  0.64932972  1
  O2-  O485  1  0.15995500  0.34475180  0.99201368  1
  O2-  O486  1  0.16740484  0.58557721  0.31576670  1
  O2-  O487  1  0.15869715  0.57411637  0.65697122  1
  O2-  O488  1  0.17192648  0.59722035  0.97860731  1
  O2-  O489  1  0.16798014  0.82790954  0.30628884  1
  O2-  O490  1  0.15268533  0.82093549  0.65122517  1
  O2-  O491  1  0.21529882  0.88377547  0.97967501  1
  O2-  O492  1  0.43128557  0.06996120  0.31292779  1
  O2-  O493  1  0.42985631  0.07836791  0.62101975  1
  O2-  O494  1  0.40591014  0.07944523  0.98777335  1
  O2-  O495  1  0.41878032  0.30710205  0.32475155  1
  O2-  O496  1  0.35816741  0.28999499  0.64000213  1
  O2-  O497  1  0.39647903  0.33945565  1.01070620  1
  O2-  O498  1  0.40766650  0.56669969  0.28755841  1
  O2-  O499  1  0.40520883  0.59162594  0.64480974  1
  O2-  O500  1  0.43207063  0.59591298  0.97820967  1
  O2-  O501  1  0.40528826  0.82776451  0.31185277  1
  O2-  O502  1  0.42640688  0.81858913  0.63140256  1
  O2-  O503  1  0.40984880  0.88190876  0.98548921  1
  O2-  O504  1  0.67018661  0.07938054  0.31492726  1
  O2-  O505  1  0.66736899  0.07687205  0.66315513  1
  O2-  O506  1  0.67008439  0.10068763  0.99176149  1
  O2-  O507  1  0.68853332  0.33751167  0.33153938  1
  O2-  O508  1  0.66818775  0.31995359  0.64777454  1
  O2-  O509  1  0.65103832  0.32320817  0.97669069  1
  O2-  O510  1  0.66021638  0.57326860  0.31727016  1
  O2-  O511  1  0.64687720  0.60973881  0.64068062  1
  O2-  O512  1  0.65193596  0.57593333  0.98069146  1
  O2-  O513  1  0.66449609  0.82231050  0.30792537  1
  O2-  O514  1  0.65488240  0.83654591  0.64036748  1
  O2-  O515  1  0.65123703  0.84098785  0.98813107  1
  O2-  O516  1  0.91198973  0.06799449  0.31103977  1
  O2-  O517  1  0.91654846  0.07544773  0.65091171  1
  O2-  O518  1  0.91352098  0.09809940  0.97855143  1
  O2-  O519  1  0.87911272  0.31493987  0.30078698  1
  O2-  O520  1  0.90607724  0.31143953  0.64990237  1
  O2-  O521  1  0.91010172  0.32918432  0.98783128  1
  O2-  O522  1  0.92172395  0.58765547  0.31753934  1
  O2-  O523  1  0.94890017  0.60256738  0.66187233  1
  O2-  O524  1  0.89205564  0.56163175  0.97540659  1
  O2-  O525  1  0.91496319  0.82551033  0.31297149  1
  O2-  O526  1  0.88842138  0.80593301  0.64361868  1
  O2-  O527  1  0.92158895  0.81722808  0.97767616  1
  O2-  O528  1  0.08011895  0.17311497  0.02640741  1
  O2-  O529  1  0.05233004  0.18926225  0.37671302  1
  O2-  O530  1  0.08263413  0.15298668  0.69312250  1
  O2-  O531  1  0.07342933  0.42505090  0.02166843  1
  O2-  O532  1  0.08458924  0.42229513  0.35410993  1
  O2-  O533  1  0.07349745  0.39922448  0.68251972  1
  O2-  O534  1  0.13197319  0.71487390  0.02548926  1
  O2-  O535  1  0.08605123  0.66568646  0.35661675  1
  O2-  O536  1  0.09169957  0.66673463  0.70997117  1
  O2-  O537  1  0.08888066  0.92547690  0.02235071  1
  O2-  O538  1  0.08109003  0.90296210  0.35095170  1
  O2-  O539  1  0.05236637  0.88762696  0.68559800  1
  O2-  O540  1  0.33086341  0.16484591  0.04067295  1
  O2-  O541  1  0.33800171  0.13567462  0.36683329  1
  O2-  O542  1  0.29656756  0.13291304  0.69507977  1
  O2-  O543  1  0.33555084  0.43474601  0.06909381  1
  O2-  O544  1  0.33401690  0.40221349  0.35422346  1
  O2-  O545  1  0.31801462  0.42769364  0.69666584  1
  O2-  O546  1  0.33526725  0.66225462  0.01687353  1
  O2-  O547  1  0.33731816  0.66834664  0.34037589  1
  O2-  O548  1  0.32910169  0.67300699  0.69105748  1
  O2-  O549  1  0.36579132  0.99315628  0.01423435  1
  O2-  O550  1  0.33870699  0.91015280  0.35158121  1
  O2-  O551  1  0.32034835  0.94141311  0.69293411  1
  O2-  O552  1  0.56908887  0.16409380  0.02359816  1
  O2-  O553  1  0.58994417  0.16185155  0.35864474  1
  O2-  O554  1  0.58730912  0.16235237  0.69509874  1
  O2-  O555  1  0.57584348  0.41036472  0.02333013  1
  O2-  O556  1  0.58264481  0.40690830  0.36045328  1
  O2-  O557  1  0.71040788  0.51326161  0.69825606  1
  O2-  O558  1  0.57811762  0.66162465  0.01751335  1
  O2-  O559  1  0.56693891  0.65118637  0.34655077  1
  O2-  O560  1  0.56500034  0.67662922  0.69268370  1
  O2-  O561  1  0.57528330  0.93196095  0.02857869  1
  O2-  O562  1  0.58935651  0.91643499  0.34223833  1
  O2-  O563  1  0.57603841  0.90579248  0.69790454  1
  O2-  O564  1  0.83703335  0.17765226  0.02213214  1
  O2-  O565  1  0.83676359  0.15784866  0.35197976  1
  O2-  O566  1  0.83822187  0.15783898  0.70651107  1
  O2-  O567  1  0.81791756  0.39753221  0.01436889  1
  O2-  O568  1  0.84423120  0.42974504  0.37190130  1
  O2-  O569  1  0.82975184  0.39800140  0.69858396  1
  O2-  O570  1  0.81197010  0.65349239  0.01999707  1
  O2-  O571  1  0.82838937  0.66053433  0.35502144  1
  O2-  O572  1  0.84736673  0.66093131  0.70306603  1
  O2-  O573  1  0.82644100  0.93256668  0.02993719  1
  O2-  O574  1  0.82520256  0.90261068  0.35580958  1
  O2-  O575  1  0.82167928  0.89817527  0.67169125  1
