# generated using pymatgen
data_H2O
_symmetry_space_group_name_H-M   'P 1'
_cell_length_a   17.98454654
_cell_length_b   17.99255284
_cell_length_c   21.97600602
_cell_angle_alpha   90.00998533
_cell_angle_beta   89.97850550
_cell_angle_gamma   120.01871533
_symmetry_Int_Tables_number   1
_chemical_formula_structural   H2O
_chemical_formula_sum   'H384 O192'
_cell_volume   6157.29146183
_cell_formula_units_Z   192
loop_
 _symmetry_equiv_pos_site_id
 _symmetry_equiv_pos_as_xyz
  1  'x, y, z'
loop_
 _atom_type_symbol
 _atom_type_oxidation_number
  H+  1.0
  O2-  -2.0
loop_
 _atom_site_type_symbol
 _atom_site_label
 _atom_site_symmetry_multiplicity
 _atom_site_fract_x
 _atom_site_fract_y
 _atom_site_fract_z
 _atom_site_occupancy
  H+  H0  1  0.10363211  0.22347801  1.00581903  1
  H+  H1  1  0.21807883  0.59972526  1.00440777  1
  H+  H2  1  0.86542526  0.89506201  0.66262110  1
  H+  H3  1  0.93942087  0.10480484  0.60703609  1
  H+  H4  1  0.65549567  0.79008375  0.34294462  1
  H+  H5  1  0.85604444  0.46151536  0.15204694  1
  H+  H6  1  0.13571082  0.86052107  -0.00622097  1
  H+  H7  1  0.35413420  0.13822773  0.50076810  1
  H+  H8  1  0.33448339  0.72171616  0.32510571  1
  H+  H9  1  0.72660793  0.85835186  0.99524619  1
  H+  H10  1  0.85046287  0.63152601  0.13324867  1
  H+  H11  1  -0.02744809  0.87252504  0.66205474  1
  H+  H12  1  0.39559293  0.87169190  0.51432752  1
  H+  H13  1  0.29016662  0.90880723  0.15338938  1
  H+  H14  1  0.39373018  0.51124882  0.50355910  1
  H+  H15  1  0.13963034  0.50572517  0.16661399  1
  H+  H16  1  0.61470786  1.00999908  -0.01969258  1
  H+  H17  1  0.60641150  0.24073822  0.16218062  1
  H+  H18  1  0.81929660  0.12299327  0.15503869  1
  H+  H19  1  0.13714057  0.63754448  0.64542621  1
  H+  H20  1  0.26695901  0.14416603  0.50083259  1
  H+  H21  1  0.62576150  0.51964052  0.66188213  1
  H+  H22  1  0.88527489  0.40959558  0.83660427  1
  H+  H23  1  0.72405012  0.36345993  0.17698753  1
  H+  H24  1  0.55939407  -0.00851672  0.29829134  1
  H+  H25  1  0.87495207  0.37128456  0.33839316  1
  H+  H26  1  0.78099442  0.95635810  0.79476181  1
  H+  H27  1  0.11253020  0.98261176  0.82511638  1
  H+  H28  1  0.14044415  0.39313672  0.84316602  1
  H+  H29  1  0.14440136  0.91485446  0.48775662  1
  H+  H30  1  0.72159013  0.61886832  0.17087737  1
  H+  H31  1  0.67527842  0.92267163  0.37427051  1
  H+  H32  1  0.41022074  0.04435227  0.83769204  1
  H+  H33  1  0.61956986  0.73678303  0.51544726  1
  H+  H34  1  0.22257830  0.87339642  0.66156309  1
  H+  H35  1  0.11524041  0.99577976  0.15214994  1
  H+  H36  1  0.91563446  0.83917630  0.60041055  1
  H+  H37  1  0.45757947  0.59783332  0.84147055  1
  H+  H38  1  0.63984652  0.53361553  0.33041010  1
  H+  H39  1  0.71311934  0.96557643  0.70494552  1
  H+  H40  1  0.99803900  0.62549775  0.84905107  1
  H+  H41  1  0.14956224  0.12368243  0.66484419  1
  H+  H42  1  0.38749098  0.27965586  0.16814031  1
  H+  H43  1  0.50850309  0.83583184  0.31592011  1
  H+  H44  1  0.88142373  0.87539762  0.36087130  1
  H+  H45  1  0.96490796  0.59681270  0.14374600  1
  H+  H46  1  0.38897861  0.11288832  0.99374800  1
  H+  H47  1  0.52263174  0.87572935  1.01418794  1
  H+  H48  1  0.15644853  0.81167287  0.14382045  1
  H+  H49  1  0.63924851  1.02647529  0.52497993  1
  H+  H50  1  0.39301457  0.11727252  0.66278126  1
  H+  H51  1  0.31763665  0.85137645  0.85257187  1
  H+  H52  1  0.62651032  0.14772412  0.68036346  1
  H+  H53  1  0.61330242  0.88171463  1.01181321  1
  H+  H54  1  0.96804254  0.77998901  0.20634429  1
  H+  H55  1  0.58729607  0.62383153  0.81579175  1
  H+  H56  1  0.94888335  1.00088681  0.34388494  1
  H+  H57  1  0.86340568  0.98475438  0.00032937  1
  H+  H58  1  0.17182699  0.07108036  0.91663535  1
  H+  H59  1  0.29573499  1.02396143  0.79872589  1
  H+  H60  1  0.88852807  0.52118864  0.51240462  1
  H+  H61  1  0.76796701  0.62881630  0.50613787  1
  H+  H62  1  0.86774243  0.86979078  0.83016227  1
  H+  H63  1  0.25705374  0.37912827  0.82540272  1
  H+  H64  1  0.21708804  0.11912909  0.83242006  1
  H+  H65  1  0.66169282  0.04459714  0.67169875  1
  H+  H66  1  0.08022143  0.93151317  0.06040123  1
  H+  H67  1  0.86283317  0.72338197  0.14594838  1
  H+  H68  1  1.00974675  0.33227675  0.63393083  1
  H+  H69  1  0.21797797  0.87688924  0.84089655  1
  H+  H70  1  0.63420075  0.26759360  1.00222289  1
  H+  H71  1  0.85758129  0.63091841  0.35681635  1
  H+  H72  1  0.61323876  0.48497474  0.16277005  1
  H+  H73  1  0.06779224  0.39698121  0.10614564  1
  H+  H74  1  0.89642555  0.03869514  0.82522906  1
  H+  H75  1  0.63286530  0.01102690  0.34584272  1
  H+  H76  1  0.28007831  0.88747615  1.00242297  1
  H+  H77  1  0.36996589  -0.01379349  0.50179046  1
  H+  H78  1  0.02133668  0.63820378  0.50202207  1
  H+  H79  1  0.34898662  0.46106130  0.82407517  1
  H+  H80  1  0.39175532  1.02468471  -0.00868140  1
  H+  H81  1  0.85900783  0.73463008  0.66638906  1
  H+  H82  1  0.34894762  0.71359993  0.67714607  1
  H+  H83  1  0.92017135  0.31137439  0.82768996  1
  H+  H84  1  0.11658630  0.63746377  0.00512731  1
  H+  H85  1  0.91052326  1.08486840  -0.07532691  1
  H+  H86  1  0.89955717  0.52221953  0.84879151  1
  H+  H87  1  0.38675374  0.27722519  0.50496376  1
  H+  H88  1  0.86429998  0.61315841  -0.01114108  1
  H+  H89  1  0.86401719  0.34425693  0.67089211  1
  H+  H90  1  0.87025267  0.15616602  0.78192420  1
  H+  H91  1  0.48892954  0.61742190  0.51427372  1
  H+  H92  1  0.36997878  0.39031982  0.16561994  1
  H+  H93  1  0.12975597  0.37667545  -0.00115520  1
  H+  H94  1  0.77132736  0.63739588  0.34690886  1
  H+  H95  1  0.70392628  0.15164948  0.83449371  1
  H+  H96  1  0.03934418  0.86599933  0.33445576  1
  H+  H97  1  0.63348884  0.35720047  1.00201748  1
  H+  H98  1  0.35329671  0.62342070  0.03333581  1
  H+  H99  1  0.88195051  0.35763889  0.18249544  1
  H+  H100  1  0.59953459  0.71967493  0.65780070  1
  H+  H101  1  0.61322189  0.47790309  0.49582143  1
  H+  H102  1  0.41704909  0.85194305  0.85232890  1
  H+  H103  1  0.63452091  0.27309291  0.33072467  1
  H+  H104  1  0.86384734  0.47421019  0.35701266  1
  H+  H105  1  0.36612844  0.34997956  0.65532956  1
  H+  H106  1  0.61602579  0.39734165  0.16377266  1
  H+  H107  1  0.61274875  0.13686598  0.49880611  1
  H+  H108  1  0.54051791  0.13963308  0.83300154  1
  H+  H109  1  0.15145368  0.24876297  0.67746990  1
  H+  H110  1  0.57921020  0.41618767  0.06951275  1
  H+  H111  1  0.10902442  0.47548100  0.33668834  1
  H+  H112  1  0.53412693  0.65735426  0.34692121  1
  H+  H113  1  0.38639734  0.52466995  0.17389334  1
  H+  H114  1  0.50727380  0.38435871  0.66927004  1
  H+  H115  1  0.77028222  0.38503296  0.49803933  1
  H+  H116  1  0.56927284  0.66948712  0.72246392  1
  H+  H117  1  0.11710368  0.66338939  0.51880232  1
  H+  H118  1  0.85529993  0.46037468  0.01511573  1
  H+  H119  1  0.91702555  0.30183593  0.48650516  1
  H+  H120  1  0.98367415  0.61145985  0.35203375  1
  H+  H121  1  0.50459027  0.38237492  0.82459125  1
  H+  H122  1  0.60331429  0.46386069  1.00458714  1
  H+  H123  1  0.52082577  0.64336418  1.01377984  1
  H+  H124  1  0.37146977  0.40823840  0.34949836  1
  H+  H125  1  0.11792730  0.64078303  0.83263131  1
  H+  H126  1  0.36750880  0.59255871  0.84500409  1
  H+  H127  1  0.70800598  0.37217780  0.65500875  1
  H+  H128  1  0.89322887  0.76151885  0.33986684  1
  H+  H129  1  0.99289553  0.86411692  0.17119672  1
  H+  H130  1  0.38684497  0.85232686  -0.00412145  1
  H+  H131  1  0.68233578  0.10094223  0.57431507  1
  H+  H132  1  0.63321914  0.61872080  0.17723207  1
  H+  H133  1  0.38246684  0.35374455  1.00112263  1
  H+  H134  1  0.73107561  0.85884803  0.62811780  1
  H+  H135  1  0.69658619  0.60573001  0.83712775  1
  H+  H136  1  0.59114167  0.71224275  0.82308670  1
  H+  H137  1  0.53139238  0.88672982  0.51354161  1
  H+  H138  1  0.73901444  0.36360691  0.85623943  1
  H+  H139  1  0.36717885  0.50912313  0.65645092  1
  H+  H140  1  0.29732754  0.39255574  0.72417787  1
  H+  H141  1  0.88483377  0.60848501  0.51329574  1
  H+  H142  1  0.87162505  0.98796508  0.66289718  1
  H+  H143  1  0.12239224  0.72980388  1.00703295  1
  H+  H144  1  0.88003869  0.26888995  0.18566492  1
  H+  H145  1  0.45855523  0.59853981  0.65942542  1
  H+  H146  1  0.14856974  0.38638441  0.67349035  1
  H+  H147  1  0.40832081  0.33012911  0.59764735  1
  H+  H148  1  0.88908859  0.78785254  0.98819355  1
  H+  H149  1  0.84210309  0.64074880  0.82572821  1
  H+  H150  1  0.35552507  0.70747354  0.83067418  1
  H+  H151  1  0.38152448  0.51580327  1.00598275  1
  H+  H152  1  0.64876478  0.56762676  0.91971279  1
  H+  H153  1  0.11013847  -0.01709024  0.67339074  1
  H+  H154  1  0.88580817  0.63060269  0.66155863  1
  H+  H155  1  0.01998816  0.64970151  0.67674116  1
  H+  H156  1  0.08369050  0.04931310  0.30860972  1
  H+  H157  1  0.26930916  0.14337084  0.34734003  1
  H+  H158  1  0.88064084  0.85533442  0.51317994  1
  H+  H159  1  0.92458859  0.59334498  0.90828377  1
  H+  H160  1  0.40022176  0.31979654  0.90001055  1
  H+  H161  1  0.88140395  0.76745262  0.51636412  1
  H+  H162  1  0.11443770  0.97482927  -0.00856470  1
  H+  H163  1  0.27522081  0.13255324  0.66935632  1
  H+  H164  1  0.28337347  0.41003272  0.34733200  1
  H+  H165  1  0.63455761  0.76741123  -0.00114144  1
  H+  H166  1  0.69424047  0.51915833  0.93688495  1
  H+  H167  1  0.13829706  0.36066552  0.18044731  1
  H+  H168  1  0.15615322  0.06801677  0.25135128  1
  H+  H169  1  0.90339696  0.06631932  0.17552735  1
  H+  H170  1  0.83324959  0.71985864  0.84562120  1
  H+  H171  1  0.38454341  0.12373940  0.33245916  1
  H+  H172  1  0.09525314  0.46738130  0.01618837  1
  H+  H173  1  0.05436060  0.16494644  0.67427128  1
  H+  H174  1  0.46204029  0.84941260  0.16873155  1
  H+  H175  1  0.05928025  0.14207772  0.36621068  1
  H+  H176  1  0.08066439  0.37929514  0.72172869  1
  H+  H177  1  0.49155904  0.85046980  0.34172165  1
  H+  H178  1  0.59447033  0.87333621  0.17151597  1
  H+  H179  1  0.81506698  0.52501333  0.95660488  1
  H+  H180  1  0.64301215  0.89014258  0.66843285  1
  H+  H181  1  0.13722836  0.03814383  0.50250915  1
  H+  H182  1  0.64356448  0.15622475  0.19166833  1
  H+  H183  1  0.61383166  0.09633396  0.97955409  1
  H+  H184  1  0.61378341  0.39484506  0.33970788  1
  H+  H185  1  0.14543239  0.12651076  0.17473368  1
  H+  H186  1  0.11934213  0.73242289  0.83352942  1
  H+  H187  1  0.47703895  0.36815693  0.16824607  1
  H+  H188  1  0.13014971  0.23965412  0.16709045  1
  H+  H189  1  0.71905300  0.85829335  0.18391038  1
  H+  H190  1  0.10754016  0.89329014  0.67165767  1
  H+  H191  1  0.63229508  0.85673395  0.84065235  1
  H+  H192  1  0.81666237  0.31112381  0.67210780  1
  H+  H193  1  0.91607864  0.14843086  0.33386930  1
  H+  H194  1  0.11077169  0.10951187  0.51790206  1
  H+  H195  1  0.11358346  0.62587770  0.34355293  1
  H+  H196  1  0.53854311  0.86519371  0.83373279  1
  H+  H197  1  0.90887734  0.12659723  0.66978206  1
  H+  H198  1  0.47526048  0.37652702  0.33931086  1
  H+  H199  1  0.89226218  0.88144816  -0.00409206  1
  H+  H200  1  0.13047944  0.45023120  0.49773897  1
  H+  H201  1  0.08546891  0.67554061  0.73256831  1
  H+  H202  1  0.23096191  0.80618148  0.28712997  1
  H+  H203  1  0.26623423  0.62105372  0.12962738  1
  H+  H204  1  0.42400515  0.59979641  0.26893367  1
  H+  H205  1  0.37007700  0.89338173  0.15237722  1
  H+  H206  1  0.27440746  0.64394653  0.48731219  1
  H+  H207  1  0.45563286  0.85067152  0.66437206  1
  H+  H208  1  0.85557862  0.37731595  0.50084054  1
  H+  H209  1  0.35341019  0.85982695  0.31358609  1
  H+  H210  1  0.17043059  0.35781663  0.51375775  1
  H+  H211  1  0.72327881  0.36118143  0.33434063  1
  H+  H212  1  0.85734394  0.26908239  0.33841093  1
  H+  H213  1  0.22188347  0.60647858  0.32006133  1
  H+  H214  1  0.77056403  0.64854177  -0.01448342  1
  H+  H215  1  0.09620175  0.68044873  0.16078025  1
  H+  H216  1  0.52411296  0.13952522  0.00989496  1
  H+  H217  1  0.13058882  0.87035225  0.32169509  1
  H+  H218  1  0.00833894  0.37585461  0.00828574  1
  H+  H219  1  0.12054854  0.56194660  0.49049290  1
  H+  H220  1  0.36533969  0.34450655  0.84057528  1
  H+  H221  1  0.47019507  0.35242711  -0.00306246  1
  H+  H222  1  1.01728015  0.37482241  0.17004928  1
  H+  H223  1  0.22133839  0.02473179  0.93938641  1
  H+  H224  1  0.52002398  0.14923402  0.16476319  1
  H+  H225  1  0.77120819  0.88848182  0.51307591  1
  H+  H226  1  0.39613520  0.54533538  0.33038234  1
  H+  H227  1  0.92223635  0.82228660  0.28083784  1
  H+  H228  1  0.76579953  0.37236606  0.01163630  1
  H+  H229  1  0.23308244  0.11872724  0.17379045  1
  H+  H230  1  0.90610939  0.11867464  0.49947145  1
  H+  H231  1  0.30706409  0.82831510  0.82231920  1
  H+  H232  1  0.39424537  0.03335709  0.17560991  1
  H+  H233  1  0.51812749  0.14323088  0.34374915  1
  H+  H234  1  0.13730907  0.75133154  0.31348887  1
  H+  H235  1  0.13397049  0.78358794  0.66155599  1
  H+  H236  1  0.38475797  0.29009876  0.34382749  1
  H+  H237  1  0.63321027  0.36243816  0.50203430  1
  H+  H238  1  0.60824065  0.72686889  0.17203661  1
  H+  H239  1  0.59443126  0.38163480  0.66770614  1
  H+  H240  1  0.61908282  0.65063761  0.34879777  1
  H+  H241  1  0.77234662  0.64288143  0.66505574  1
  H+  H242  1  0.14732745  0.28942437  0.34179944  1
  H+  H243  1  0.85441184  0.51026009  0.69529048  1
  H+  H244  1  1.02139599  0.38622999  0.34486090  1
  H+  H245  1  0.84161949  0.84846355  0.15454053  1
  H+  H246  1  0.13147292  0.12728378  0.84148685  1
  H+  H247  1  0.38704130  0.03624342  0.33513768  1
  H+  H248  1  0.85627849  0.13686946  0.00113782  1
  H+  H249  1  0.76047663  0.16169090  0.17139137  1
  H+  H250  1  0.36181498  0.64861963  0.33254992  1
  H+  H251  1  0.14017777  0.78915848  0.50751068  1
  H+  H252  1  0.88329998  0.35440372  -0.01155162  1
  H+  H253  1  0.05381518  0.45061344  0.84208494  1
  H+  H254  1  0.75022827  0.13278639  0.67496018  1
  H+  H255  1  0.27405555  0.37783062  0.02089163  1
  H+  H256  1  0.14427861  0.18978516  0.40511994  1
  H+  H257  1  0.72578865  0.84084093  0.84573206  1
  H+  H258  1  0.76192384  0.14961697  0.33199299  1
  H+  H259  1  0.29219914  0.39739843  0.50264610  1
  H+  H260  1  0.34608034  0.62344692  0.67430609  1
  H+  H261  1  0.27994967  0.39102692  0.16920279  1
  H+  H262  1  0.52541519  0.38783249  0.49276423  1
  H+  H263  1  0.76363043  0.11205309  0.48711916  1
  H+  H264  1  0.40110660  0.57380947  0.94664925  1
  H+  H265  1  0.38547744  0.61157899  0.16200752  1
  H+  H266  1  0.35877522  0.13696439  0.16375887  1
  H+  H267  1  0.13125335  0.99052174  0.31035688  1
  H+  H268  1  0.14064869  0.37229706  0.33046678  1
  H+  H269  1  0.21880146  0.62535556  0.64744735  1
  H+  H270  1  0.99705042  0.88524757  0.99811626  1
  H+  H271  1  0.92314931  0.17735620  0.30696829  1
  H+  H272  1  0.91856022  0.24841280  0.64555349  1
  H+  H273  1  0.04286139  0.15076657  0.17164546  1
  H+  H274  1  0.83079640  0.40823338  0.41352309  1
  H+  H275  1  0.32644441  0.16123103  0.10225315  1
  H+  H276  1  0.27623978  0.12988166  0.00341481  1
  H+  H277  1  0.63663295  0.61509482  0.51281670  1
  H+  H278  1  0.27778842  0.90830214  0.35887312  1
  H+  H279  1  0.28244930  0.89535906  0.50064352  1
  H+  H280  1  0.47471379  0.11946861  0.50829299  1
  H+  H281  1  0.70041785  0.10811090  0.89551486  1
  H+  H282  1  0.58119728  0.67458139  0.07195649  1
  H+  H283  1  0.34868719  0.20926322  0.82656126  1
  H+  H284  1  0.35209937  0.88928390  0.67961089  1
  H+  H285  1  0.86843562  0.93651510  0.18243462  1
  H+  H286  1  0.36094345  0.22257792  0.00843686  1
  H+  H287  1  0.39696787  0.37142168  0.50379489  1
  H+  H288  1  0.57248767  0.90352882  0.10948067  1
  H+  H289  1  0.60920453  0.90063340  0.77441055  1
  H+  H290  1  0.82048356  0.67835080  0.04944838  1
  H+  H291  1  0.48226796  0.11611358  0.66420353  1
  H+  H292  1  0.09689121  0.66583920  0.40543222  1
  H+  H293  1  0.82463185  0.38996417  0.10248432  1
  H+  H294  1  0.12268963  0.91146938  0.14854200  1
  H+  H295  1  0.63419947  0.24411116  0.83361235  1
  H+  H296  1  0.59322857  0.68678674  0.44991243  1
  H+  H297  1  0.33581469  0.41193881  0.07909087  1
  H+  H298  1  0.35818253  0.81894174  0.24819178  1
  H+  H299  1  0.67126062  0.32445619  0.91079873  1
  H+  H300  1  0.16719852  0.83183844  0.21544638  1
  H+  H301  1  0.83871129  0.92845730  0.06292617  1
  H+  H302  1  0.61515097  0.23049879  0.67296353  1
  H+  H303  1  0.16586387  0.08830554  0.60252841  1
  H+  H304  1  0.10922029  0.24245414  0.82675119  1
  H+  H305  1  0.92146006  0.58264378  0.29660234  1
  H+  H306  1  0.80292362  0.16533869  0.39955898  1
  H+  H307  1  0.76461548  0.05263560  0.43619500  1
  H+  H308  1  0.13315851  0.58883892  0.15742842  1
  H+  H309  1  0.82783233  0.17153837  0.05864755  1
  H+  H310  1  0.52010759  0.63783223  0.16518232  1
  H+  H311  1  0.12681664  0.86624870  0.84012969  1
  H+  H312  1  0.16246053  0.57570748  0.26050469  1
  H+  H313  1  0.85062409  0.91578827  0.41457467  1
  H+  H314  1  0.83442449  0.41478514  0.69849125  1
  H+  H315  1  0.88490999  0.26657233  0.98618337  1
  H+  H316  1  0.41917483  0.09081260  0.56933990  1
  H+  H317  1  0.59865345  0.18411221  0.76602608  1
  H+  H318  1  0.31666921  0.95952508  0.76272485  1
  H+  H319  1  0.62620018  0.60891813  0.65963908  1
  H+  H320  1  0.08077829  0.65273991  0.08790470  1
  H+  H321  1  0.16999439  0.84546370  0.56824356  1
  H+  H322  1  0.82125298  0.92235281  0.74530088  1
  H+  H323  1  0.32209539  0.15989283  0.76316269  1
  H+  H324  1  0.96714568  0.11335235  0.98618246  1
  H+  H325  1  0.91352254  0.30636039  0.55776231  1
  H+  H326  1  0.83980808  0.44511137  0.78675163  1
  H+  H327  1  0.16380121  0.57836865  0.55651207  1
  H+  H328  1  0.09621557  0.18568309  0.76743595  1
  H+  H329  1  0.63458500  0.94289662  0.43354710  1
  H+  H330  1  0.58229348  0.16873944  0.06993885  1
  H+  H331  1  0.65497334  0.33037215  0.59375364  1
  H+  H332  1  0.17232609  0.33677023  0.24128814  1
  H+  H333  1  0.59627705  0.12660385  0.34247076  1
  H+  H334  1  0.36179535  0.22328861  0.67033922  1
  H+  H335  1  0.08578213  0.92171117  0.76709380  1
  H+  H336  1  0.03433699  0.16494956  0.46538159  1
  H+  H337  1  0.10385367  0.39787008  0.43731574  1
  H+  H338  1  0.31888873  0.65152284  0.76957163  1
  H+  H339  1  0.65948140  0.57817573  0.57148306  1
  H+  H340  1  0.66593392  0.33998430  0.23717982  1
  H+  H341  1  0.63192701  0.27146892  0.50360168  1
  H+  H342  1  0.92049413  0.12385421  0.23269536  1
  H+  H343  1  0.21636668  0.34969440  0.57588196  1
  H+  H344  1  0.66236774  0.10529257  0.24370071  1
  H+  H345  1  0.58897380  0.42660463  0.40002057  1
  H+  H346  1  0.62070803  0.88635897  0.52612209  1
  H+  H347  1  0.16440354  0.56957435  0.94167218  1
  H+  H348  1  0.38672780  0.77938899  0.50829479  1
  H+  H349  1  0.56286860  0.41361796  0.76483790  1
  H+  H350  1  0.90265613  0.33231427  0.27381163  1
  H+  H351  1  0.67047154  0.82010390  0.91136674  1
  H+  H352  1  0.37034201  0.76622022  0.15353284  1
  H+  H353  1  0.91658327  0.58679994  0.61011292  1
  H+  H354  1  0.60587358  0.51517275  0.82901672  1
  H+  H355  1  0.34818488  0.43813166  0.43603916  1
  H+  H356  1  0.36422501  0.98318555  0.67088630  1
  H+  H357  1  0.67114532  0.59535433  0.27229489  1
  H+  H358  1  0.16540207  0.83583854  0.93245189  1
  H+  H359  1  0.75125311  0.87027149  0.33826913  1
  H+  H360  1  0.86467599  0.97383457  0.50670344  1
  H+  H361  1  0.58149829  0.16295782  0.43750485  1
  H+  H362  1  0.21499707  0.59421033  0.84225552  1
  H+  H363  1  0.32491364  0.16789568  0.40824546  1
  H+  H364  1  0.38197552  0.76224423  1.00802689  1
  H+  H365  1  0.92878914  0.34335003  0.89708541  1
  H+  H366  1  0.12191453  0.93756277  0.42316395  1
  H+  H367  1  0.90073529  0.58118903  0.19745701  1
  H+  H368  1  0.22055077  0.42712159  0.96915894  1
  H+  H369  1  0.32945201  0.68380717  0.42780960  1
  H+  H370  1  0.15469511  0.34684109  0.89958601  1
  H+  H371  1  0.34340239  0.92206237  0.05997530  1
  H+  H372  1  0.67151206  0.83831477  0.24786802  1
  H+  H373  1  0.97678932  0.05890927  0.28367765  1
  H+  H374  1  0.82689350  0.66115188  0.44700385  1
  H+  H375  1  0.07539163  0.17197834  0.06695723  1
  H+  H376  1  0.41581491  0.57680802  0.57001650  1
  H+  H377  1  0.40228190  0.82540028  0.60347344  1
  H+  H378  1  0.34414331  0.93113927  0.41226517  1
  H+  H379  1  0.90791294  0.85390661  0.88907781  1
  H+  H380  1  0.41401058  0.08977778  0.23732826  1
  H+  H381  1  0.44946657  0.08831461  0.90291322  1
  H+  H382  1  0.98033014  0.12893352  0.83048852  1
  H+  H383  1  0.43620659  0.81580209  0.91088642  1
  O2-  O384  1  0.09913747  0.17819304  0.15119112  1
  O2-  O385  1  0.02852017  0.14754063  0.50884594  1
  O2-  O386  1  0.08589946  0.18237810  0.81271832  1
  O2-  O387  1  0.07539207  0.39986526  0.15151020  1
  O2-  O388  1  0.10765881  0.39140185  0.48144305  1
  O2-  O389  1  0.11584357  0.48024235  0.83048855  1
  O2-  O390  1  0.06670342  0.63132227  0.13376670  1
  O2-  O391  1  0.08319847  0.67108509  0.48723021  1
  O2-  O392  1  0.08671691  0.67066820  0.81985177  1
  O2-  O393  1  0.08566353  0.93533016  0.13533140  1
  O2-  O394  1  0.13012980  0.95450741  0.46599029  1
  O2-  O395  1  0.09155090  0.92262367  0.81235080  1
  O2-  O396  1  0.32426499  0.16272562  0.14783401  1
  O2-  O397  1  0.32615988  0.16998355  0.48395837  1
  O2-  O398  1  0.31343701  0.15100876  0.80810045  1
  O2-  O399  1  0.33898269  0.42262175  0.15191813  1
  O2-  O400  1  0.35556506  0.43595639  0.48171402  1
  O2-  O401  1  0.31544155  0.40147652  0.80773825  1
  O2-  O402  1  0.32753630  0.65664604  0.11462010  1
  O2-  O403  1  0.33127459  0.68877984  0.47265001  1
  O2-  O404  1  0.31705436  0.64874939  0.81557631  1
  O2-  O405  1  0.34981474  0.93395512  0.13881936  1
  O2-  O406  1  0.34348347  0.92576976  0.48595423  1
  O2-  O407  1  0.31063013  0.97882243  0.80418410  1
  O2-  O408  1  0.58010661  0.17944283  0.14881845  1
  O2-  O409  1  0.58087840  0.16513155  0.48295015  1
  O2-  O410  1  0.60230059  0.18291031  0.81245295  1
  O2-  O411  1  0.58556390  0.42565898  0.14563154  1
  O2-  O412  1  0.58619202  0.41885897  0.47765555  1
  O2-  O413  1  0.56413734  0.41980456  0.80977711  1
  O2-  O414  1  0.58203888  0.66921158  0.15246366  1
  O2-  O415  1  0.58920581  0.67805804  0.49470755  1
  O2-  O416  1  0.55797995  0.65708754  0.80184914  1
  O2-  O417  1  0.56080584  0.89788516  0.15411619  1
  O2-  O418  1  0.59466171  0.91924304  0.50610967  1
  O2-  O419  1  0.60057729  0.89176340  0.81961802  1
  O2-  O420  1  0.81508827  0.17401609  0.14766052  1
  O2-  O421  1  0.80295450  0.10899892  0.45604318  1
  O2-  O422  1  0.87188292  0.20318847  0.75787493  1
  O2-  O423  1  0.82783741  0.39818307  0.14794197  1
  O2-  O424  1  0.83155709  0.41411825  0.48420811  1
  O2-  O425  1  0.85290002  0.44233171  0.83152142  1
  O2-  O426  1  0.82350390  0.66772119  0.12647750  1
  O2-  O427  1  0.82932087  0.65769199  0.49197426  1
  O2-  O428  1  0.80622851  0.65628432  0.84957480  1
  O2-  O429  1  0.83207602  0.89721209  0.15064568  1
  O2-  O430  1  0.82798923  0.91510293  0.49094269  1
  O2-  O431  1  0.81188051  0.92479682  0.79146863  1
  O2-  O432  1  0.16962614  0.08869053  0.18854032  1
  O2-  O433  1  0.15560247  0.09387121  0.52433963  1
  O2-  O434  1  0.15858879  0.09209851  0.85268588  1
  O2-  O435  1  0.17302929  0.33508687  0.19557617  1
  O2-  O436  1  0.21474061  0.34457664  0.53002329  1
  O2-  O437  1  0.15462601  0.34833280  0.85435273  1
  O2-  O438  1  0.17213528  0.56948683  0.17371366  1
  O2-  O439  1  0.16650942  0.56060411  0.51293817  1
  O2-  O440  1  0.15474329  0.56583067  0.86025762  1
  O2-  O441  1  0.17431238  0.85760512  0.17372080  1
  O2-  O442  1  0.17706369  0.84823168  0.52262327  1
  O2-  O443  1  0.15948626  0.83685599  0.85640201  1
  O2-  O444  1  0.41556830  0.09241412  0.19182392  1
  O2-  O445  1  0.41429731  0.09047883  0.52385801  1
  O2-  O446  1  0.46436674  0.08165750  0.86030494  1
  O2-  O447  1  0.41609477  0.34002064  0.18150733  1
  O2-  O448  1  0.42244888  0.33730940  0.52027464  1
  O2-  O449  1  0.39723673  0.31569996  0.85485436  1
  O2-  O450  1  0.41478856  0.58724594  0.18576036  1
  O2-  O451  1  0.42567250  0.57930498  0.52439354  1
  O2-  O452  1  0.39991456  0.56532984  0.86120621  1
  O2-  O453  1  0.39682019  0.82146166  0.17560281  1
  O2-  O454  1  0.41980600  0.83641523  0.53042380  1
  O2-  O455  1  0.44321447  0.81809428  0.86516474  1
  O2-  O456  1  0.69015025  0.15403466  0.21541342  1
  O2-  O457  1  0.67174531  0.09050152  0.52989464  1
  O2-  O458  1  0.73951201  0.13901601  0.86105319  1
  O2-  O459  1  0.66436807  0.34220572  0.19172699  1
  O2-  O460  1  0.66282479  0.33211902  0.51901956  1
  O2-  O461  1  0.67773360  0.32568335  0.86540292  1
  O2-  O462  1  0.66562441  0.58989066  0.19211193  1
  O2-  O463  1  0.66225417  0.57953011  0.52550091  1
  O2-  O464  1  0.63341535  0.57725386  0.84497747  1
  O2-  O465  1  0.66185829  0.83059641  0.20292185  1
  O2-  O466  1  0.67025780  0.83417227  0.54842732  1
  O2-  O467  1  0.66755595  0.81596241  0.86351273  1
  O2-  O468  1  0.93900144  0.08752931  0.21202911  1
  O2-  O469  1  0.93569104  0.09152147  0.52044211  1
  O2-  O470  1  0.91831510  0.09593523  0.84301572  1
  O2-  O471  1  0.91105265  0.32853997  0.20291637  1
  O2-  O472  1  0.88480316  0.31018449  0.51871270  1
  O2-  O473  1  0.93995386  0.36289073  0.85301083  1
  O2-  O474  1  0.90192331  0.57455863  0.15357658  1
  O2-  O475  1  0.92000698  0.58205795  0.52666175  1
  O2-  O476  1  0.93452207  0.59163733  0.86313212  1
  O2-  O477  1  0.94326868  0.81478299  0.19288452  1
  O2-  O478  1  0.91340086  0.82870351  0.52872439  1
  O2-  O479  1  0.87946026  0.82839651  0.85059929  1
  O2-  O480  1  0.14085285  0.05095065  0.29860631  1
  O2-  O481  1  0.17208778  0.08700453  0.64768326  1
  O2-  O482  1  0.18815408  0.04964744  0.95586616  1
  O2-  O483  1  0.17455772  0.34399373  0.31865120  1
  O2-  O484  1  0.21556407  0.34975342  0.65335196  1
  O2-  O485  1  0.17573388  0.36828389  0.97797782  1
  O2-  O486  1  0.15994126  0.57612325  0.30562325  1
  O2-  O487  1  0.17466069  0.62422720  0.62010390  1
  O2-  O488  1  0.15962544  0.57179532  0.98669025  1
  O2-  O489  1  0.17436286  0.80528245  0.29013408  1
  O2-  O490  1  0.16305197  0.84329537  0.64454298  1
  O2-  O491  1  0.16988102  0.83562168  0.97837876  1
  O2-  O492  1  0.41554007  0.09467718  0.31637212  1
  O2-  O493  1  0.42301338  0.08638691  0.64716044  1
  O2-  O494  1  0.42219589  0.08599870  0.97822359  1
  O2-  O495  1  0.41253216  0.35138066  0.33338080  1
  O2-  O496  1  0.40371110  0.32638098  0.64315138  1
  O2-  O497  1  0.40923957  0.32209704  0.98242835  1
  O2-  O498  1  0.42613496  0.60549536  0.31398860  1
  O2-  O499  1  0.39880415  0.57014951  0.64275436  1
  O2-  O500  1  0.40181913  0.57579623  0.99194304  1
  O2-  O501  1  0.32616584  0.80792512  0.28760414  1
  O2-  O502  1  0.39657331  0.82240940  0.64979753  1
  O2-  O503  1  0.41468938  0.81742616  0.98610358  1
  O2-  O504  1  0.61264374  0.03851530  0.31457903  1
  O2-  O505  1  0.68847751  0.10478569  0.65866399  1
  O2-  O506  1  0.61625173  0.05380758  0.95262380  1
  O2-  O507  1  0.66518288  0.33391986  0.31608444  1
  O2-  O508  1  0.65084313  0.33015132  0.63987159  1
  O2-  O509  1  0.66700698  0.32982027  0.98770614  1
  O2-  O510  1  0.67220934  0.59570580  0.31778567  1
  O2-  O511  1  0.65824540  0.58004911  0.64615295  1
  O2-  O512  1  0.67358574  0.55404136  0.95671410  1
  O2-  O513  1  0.69064088  0.85054531  0.32737563  1
  O2-  O514  1  0.66890704  0.82757974  0.61713929  1
  O2-  O515  1  0.66740999  0.82730829  0.97863732  1
  O2-  O516  1  1.00013928  0.04933236  0.32149732  1
  O2-  O517  1  0.94076049  0.09833388  0.65154486  1
  O2-  O518  1  0.90727724  0.07946448  0.97012603  1
  O2-  O519  1  0.90148460  0.33374036  0.32083944  1
  O2-  O520  1  0.95758116  0.28727247  0.61318797  1
  O2-  O521  1  0.91731628  0.32927570  0.97163864  1
  O2-  O522  1  0.92026249  0.58155388  0.34084948  1
  O2-  O523  1  0.91705418  0.59626651  0.65474741  1
  O2-  O524  1  0.87163957  0.56446351  0.97356748  1
  O2-  O525  1  0.93160397  0.82291541  0.32500778  1
  O2-  O526  1  0.91214601  0.84329890  0.64661095  1
  O2-  O527  1  0.92523188  0.85212801  0.98031942  1
  O2-  O528  1  0.06680302  0.16616502  0.02239322  1
  O2-  O529  1  0.09488448  0.19395354  0.39142126  1
  O2-  O530  1  0.11251868  0.18775446  0.69237531  1
  O2-  O531  1  0.06666605  0.40607606  0.02918621  1
  O2-  O532  1  0.08297795  0.41641378  0.35451683  1
  O2-  O533  1  0.10172800  0.40035460  0.68096231  1
  O2-  O534  1  0.09047490  0.66999524  0.02293295  1
  O2-  O535  1  0.08752825  0.65973844  0.36058989  1
  O2-  O536  1  0.08271644  0.68014378  0.68799969  1
  O2-  O537  1  0.07317258  0.91979902  0.01505528  1
  O2-  O538  1  0.10369458  0.90341824  0.33658367  1
  O2-  O539  1  0.07715937  0.92238869  0.68851790  1
  O2-  O540  1  0.33250074  0.16145581  0.02410328  1
  O2-  O541  1  0.32824166  0.17062024  0.36228661  1
  O2-  O542  1  0.33576164  0.16287466  0.68555772  1
  O2-  O543  1  0.33502258  0.40860309  0.03275406  1
  O2-  O544  1  0.34350932  0.44335047  0.36222050  1
  O2-  O545  1  0.30507690  0.39705917  0.67897842  1
  O2-  O546  1  0.32171348  0.65403832  0.04717734  1
  O2-  O547  1  0.31970764  0.66681204  0.34543361  1
  O2-  O548  1  0.31820280  0.65382148  0.69305921  1
  O2-  O549  1  0.34159665  0.91607969  0.01463593  1
  O2-  O550  1  0.33932378  0.93372315  0.36614404  1
  O2-  O551  1  0.32661810  0.92548845  0.69003881  1
  O2-  O552  1  0.58479309  0.16962969  0.02453010  1
  O2-  O553  1  0.57893281  0.16737174  0.35810152  1
  O2-  O554  1  0.59053417  0.17333069  0.69357149  1
  O2-  O555  1  0.57478166  0.40648808  0.02415334  1
  O2-  O556  1  0.58822373  0.42938109  0.35443978  1
  O2-  O557  1  0.56811878  0.41468037  0.68398589  1
  O2-  O558  1  0.58152412  0.67642505  0.02663318  1
  O2-  O559  1  0.59285889  0.68411243  0.36494822  1
  O2-  O560  1  0.56764933  0.66243130  0.67720633  1
  O2-  O561  1  0.58262939  0.90971561  0.02915129  1
  O2-  O562  1  0.67059887  0.96885300  0.39609035  1
  O2-  O563  1  0.65051914  0.93169299  0.70154915  1
  O2-  O564  1  0.83373712  0.17457760  0.01420527  1
  O2-  O565  1  0.79434767  0.19401374  0.36209974  1
  O2-  O566  1  0.85002381  0.16674253  0.69481863  1
  O2-  O567  1  0.82774821  0.39920741  0.02600795  1
  O2-  O568  1  0.83268626  0.41149097  0.36644649  1
  O2-  O569  1  0.81611945  0.45303079  0.71631294  1
  O2-  O570  1  0.82851509  0.68475187  0.00421528  1
  O2-  O571  1  0.83065395  0.66616332  0.36580872  1
  O2-  O572  1  0.83293280  0.67324982  0.67872516  1
  O2-  O573  1  0.83866336  0.92428378  0.01822286  1
  O2-  O574  1  0.86254225  0.91769034  0.36977265  1
  O2-  O575  1  0.83214916  0.92596226  0.67335615  1
