# generated using pymatgen
data_H2O
_symmetry_space_group_name_H-M   'P 1'
_cell_length_a   17.99683164
_cell_length_b   17.99024260
_cell_length_c   22.00542771
_cell_angle_alpha   90.01389857
_cell_angle_beta   89.98345689
_cell_angle_gamma   120.00038246
_symmetry_Int_Tables_number   1
_chemical_formula_structural   H2O
_chemical_formula_sum   'H384 O192'
_cell_volume   6170.09463228
_cell_formula_units_Z   192
loop_
 _symmetry_equiv_pos_site_id
 _symmetry_equiv_pos_as_xyz
  1  'x, y, z'
loop_
 _atom_type_symbol
 _atom_type_oxidation_number
  H+  1.0
  O2-  -2.0
loop_
 _atom_site_type_symbol
 _atom_site_label
 _atom_site_symmetry_multiplicity
 _atom_site_fract_x
 _atom_site_fract_y
 _atom_site_fract_z
 _atom_site_occupancy
  H+  H0  1  0.52280905  0.88291046  0.67304861  1
  H+  H1  1  0.01729144  0.13149712  0.79955603  1
  H+  H2  1  0.74109764  0.16631567  0.45814581  1
  H+  H3  1  0.53235184  0.13894359  0.68604093  1
  H+  H4  1  0.64110480  0.86943552  0.98470949  1
  H+  H5  1  0.68465926  0.09886200  0.36064545  1
  H+  H6  1  0.51393558  0.88040255  0.33547112  1
  H+  H7  1  0.27193278  0.13778919  0.16310377  1
  H+  H8  1  0.50189348  0.84096507  0.16378985  1
  H+  H9  1  0.39373742  0.11063129  0.99916753  1
  H+  H10  1  0.57964272  -0.04151908  0.49661690  1
  H+  H11  1  0.86124690  0.89017891  0.65831488  1
  H+  H12  1  0.64623506  0.05224567  0.18819493  1
  H+  H13  1  0.61780433  0.22648902  0.83872970  1
  H+  H14  1  0.89640379  0.32819461  0.57570114  1
  H+  H15  1  0.44794249  0.60113986  0.34436576  1
  H+  H16  1  0.52016774  0.64113652  0.48674347  1
  H+  H17  1  0.36546380  0.89316626  0.82475955  1
  H+  H18  1  0.77452234  0.89047887  0.00464837  1
  H+  H19  1  0.72781079  0.36235653  0.84951046  1
  H+  H20  1  0.13288049  0.76488765  0.51018811  1
  H+  H21  1  0.67683715  0.60426927  0.61080786  1
  H+  H22  1  0.82136178  0.16579580  0.34415771  1
  H+  H23  1  0.02548089  0.42126370  0.34389726  1
  H+  H24  1  0.12830018  0.55559253  0.84790358  1
  H+  H25  1  0.41772868  0.58597244  0.91726866  1
  H+  H26  1  0.98563515  0.63185590  0.98968759  1
  H+  H27  1  0.28327761  0.14989850  0.67318282  1
  H+  H28  1  0.26299985  0.71899338  0.71292868  1
  H+  H29  1  0.11546526  0.88153156  0.33763396  1
  H+  H30  1  0.38314438  0.27705263  0.32917638  1
  H+  H31  1  0.41614337  0.09168152  0.26611760  1
  H+  H32  1  0.78202259  0.38454910  0.01247601  1
  H+  H33  1  0.89150409  0.86399130  0.33319357  1
  H+  H34  1  0.58858580  0.92380473  0.15079634  1
  H+  H35  1  0.88719959  0.53124414  0.66736128  1
  H+  H36  1  -0.01699372  0.35809003  -0.01099124  1
  H+  H37  1  0.84506440  0.92857041  0.42475255  1
  H+  H38  1  0.85714753  0.34515558  0.51584597  1
  H+  H39  1  0.36656780  0.48145659  0.15882848  1
  H+  H40  1  0.21614001  0.85522104  0.16847838  1
  H+  H41  1  0.72242045  0.10292285  0.99679675  1
  H+  H42  1  0.62036184  0.72297772  -0.00477184  1
  H+  H43  1  0.37108898  0.39456230  0.48579891  1
  H+  H44  1  0.77637954  0.89286916  0.16282267  1
  H+  H45  1  0.27255788  0.13170159  0.34779453  1
  H+  H46  1  0.61971739  0.71529405  0.17576844  1
  H+  H47  1  0.88306539  0.10970128  0.64579873  1
  H+  H48  1  0.10788824  0.46267657  0.49610487  1
  H+  H49  1  0.63332541  0.00825433  0.99236865  1
  H+  H50  1  1.02504506  0.13610948  0.65945556  1
  H+  H51  1  0.64908967  0.64095473  0.66550584  1
  H+  H52  1  0.40576803  0.83645049  0.23191313  1
  H+  H53  1  0.61259844  0.96896877  0.82976927  1
  H+  H54  1  0.87893048  0.11067987  0.81268755  1
  H+  H55  1  0.59057913  0.16706673  0.77918797  1
  H+  H56  1  0.77917982  0.16082993  0.16753023  1
  H+  H57  1  0.88939098  0.77678483  0.99972132  1
  H+  H58  1  0.39780116  0.54438181  0.00253600  1
  H+  H59  1  0.21797932  0.85870222  0.50483585  1
  H+  H60  1  0.22034541  0.60455060  0.50292966  1
  H+  H61  1  0.26919503  0.65128689  0.33205230  1
  H+  H62  1  0.63924744  0.64661197  0.33418402  1
  H+  H63  1  0.13798263  0.11428731  0.17840143  1
  H+  H64  1  0.41465928  0.30306938  0.67200630  1
  H+  H65  1  0.62033725  0.48629149  0.00251284  1
  H+  H66  1  0.32765829  0.66878147  0.42909504  1
  H+  H67  1  0.52623988  0.63983878  -0.00385833  1
  H+  H68  1  0.78067977  0.34495767  0.16063009  1
  H+  H69  1  0.76114865  0.12789126  0.82801281  1
  H+  H70  1  0.56430609  0.66159625  0.31166672  1
  H+  H71  1  0.37053172  0.12004335  0.50693938  1
  H+  H72  1  0.62181736  0.38948636  0.00331678  1
  H+  H73  1  0.27835089  0.29675529  0.04716821  1
  H+  H74  1  0.90063677  0.55026099  0.17510563  1
  H+  H75  1  0.89534656  0.13374604  0.16066009  1
  H+  H76  1  0.38489319  0.11797259  0.32846831  1
  H+  H77  1  0.14918700  0.74653285  0.67854787  1
  H+  H78  1  0.01342249  0.36577622  0.83229729  1
  H+  H79  1  0.03350572  0.13520104  0.01852412  1
  H+  H80  1  0.10984259  0.88548249  0.16223553  1
  H+  H81  1  0.90018373  0.25506920  0.49591492  1
  H+  H82  1  0.90362486  0.53566218  0.51222283  1
  H+  H83  1  0.14590491  0.02223908  1.00063062  1
  H+  H84  1  0.81885684  0.91094378  0.71440341  1
  H+  H85  1  0.63627610  0.29094335  0.31769095  1
  H+  H86  1  0.92167282  0.13442020  0.50039229  1
  H+  H87  1  0.62464402  0.53570455  0.51810425  1
  H+  H88  1  0.61918437  0.46981593  0.83559677  1
  H+  H89  1  0.28514781  0.13760413  0.00941704  1
  H+  H90  1  0.39068088  0.34112992  0.83046461  1
  H+  H91  1  0.11589821  0.13697130  0.65966940  1
  H+  H92  1  0.89302531  0.26807536  -0.00610909  1
  H+  H93  1  0.36553334  0.14923702  0.83064627  1
  H+  H94  1  0.52832322  0.63040433  0.17102770  1
  H+  H95  1  0.89395797  0.53737213  0.31568506  1
  H+  H96  1  0.12462759  0.12729601  0.50025217  1
  H+  H97  1  0.13155211  0.00258583  0.50383646  1
  H+  H98  1  0.78419210  0.64413357  0.33864875  1
  H+  H99  1  0.12150510  0.72411163  1.01253651  1
  H+  H100  1  0.57400121  0.41024185  0.10332101  1
  H+  H101  1  0.13407119  0.26566909  0.99021280  1
  H+  H102  1  0.12140591  0.33200414  0.83469194  1
  H+  H103  1  0.02959065  0.88784123  0.00858595  1
  H+  H104  1  1.01639529  0.64411947  0.16620501  1
  H+  H105  1  0.11029865  0.43719540  0.84787001  1
  H+  H106  1  0.12700744  0.76517849  0.17057742  1
  H+  H107  1  0.87953785  -0.00792441  0.49112202  1
  H+  H108  1  0.84262083  0.25446009  0.14679178  1
  H+  H109  1  0.14796803  0.11232278  1.00016471  1
  H+  H110  1  0.75143038  0.60004008  0.48734593  1
  H+  H111  1  0.77463507  0.64053018  1.01463491  1
  H+  H112  1  0.52862775  0.13454793  0.00815626  1
  H+  H113  1  0.10899122  0.64268378  0.16212692  1
  H+  H114  1  0.51441579  0.61822820  0.84544364  1
  H+  H115  1  0.63778951  0.27671549  0.99854790  1
  H+  H116  1  0.50372197  0.13289693  0.50040095  1
  H+  H117  1  0.40865438  0.27063563  1.00189963  1
  H+  H118  1  0.14003008  0.78771940  0.83018198  1
  H+  H119  1  0.21812692  0.37386498  0.32740170  1
  H+  H120  1  0.59877365  0.14387520  0.33457760  1
  H+  H121  1  0.87535648  0.89608868  0.49109730  1
  H+  H122  1  0.27727798  0.39203842  0.16381386  1
  H+  H123  1  0.36915684  0.72776400  0.00536710  1
  H+  H124  1  0.22739458  0.61919079  0.16309374  1
  H+  H125  1  0.45137005  0.91461892  0.12504952  1
  H+  H126  1  0.10962459  0.73743772  0.34919329  1
  H+  H127  1  0.49626716  0.05791034  0.53642859  1
  H+  H128  1  0.49311390  0.63194528  0.65486746  1
  H+  H129  1  1.02976945  0.14618248  0.15903233  1
  H+  H130  1  1.02811340  0.88416247  0.83480147  1
  H+  H131  1  0.97677565  0.85881955  0.49863578  1
  H+  H132  1  0.37997488  0.78579063  0.66037888  1
  H+  H133  1  0.89485743  0.28778984  0.66669823  1
  H+  H134  1  0.22287850  0.34905470  0.98387339  1
  H+  H135  1  0.16573954  0.22070960  0.35961618  1
  H+  H136  1  0.74766025  0.62509633  0.18215810  1
  H+  H137  1  0.14272973  0.61562344  1.00065312  1
  H+  H138  1  0.73439739  0.61772335  0.84815139  1
  H+  H139  1  0.87095437  0.73686043  0.67826252  1
  H+  H140  1  0.78537174  0.40360903  0.49988056  1
  H+  H141  1  0.83508120  0.36682056  0.10107232  1
  H+  H142  1  0.47761637  0.12406733  0.17824755  1
  H+  H143  1  0.89024102  0.04248842  0.16223031  1
  H+  H144  1  0.64905968  0.29865977  0.50638112  1
  H+  H145  1  0.64422929  0.83253187  0.56480513  1
  H+  H146  1  0.88992100  0.62022621  0.66498965  1
  H+  H147  1  0.13917725  0.65191775  0.67620407  1
  H+  H148  1  0.88113689  0.26659689  0.83892542  1
  H+  H149  1  0.89210016  0.86667857  0.99631679  1
  H+  H150  1  0.13936044  0.27756734  0.65317851  1
  H+  H151  1  0.99832684  0.11130141  0.33644151  1
  H+  H152  1  0.47867851  0.11561811  0.84460571  1
  H+  H153  1  0.77717878  0.32105270  0.37918196  1
  H+  H154  1  0.72954659  0.37200786  0.32790920  1
  H+  H155  1  0.62523418  0.84374828  0.83451022  1
  H+  H156  1  0.63219570  0.62620980  0.51152944  1
  H+  H157  1  0.62706492  0.75501626  0.83581473  1
  H+  H158  1  0.38077796  0.88671993  1.00819781  1
  H+  H159  1  0.36724982  0.20574272  0.51094280  1
  H+  H160  1  0.97885229  0.87361928  0.17572581  1
  H+  H161  1  0.63860029  0.18412036  0.46975872  1
  H+  H162  1  0.83833872  0.67387585  0.07237084  1
  H+  H163  1  -0.01314694  0.37341269  0.66735925  1
  H+  H164  1  0.23324908  0.87785353  0.82590034  1
  H+  H165  1  0.14928546  0.27714381  0.50629950  1
  H+  H166  1  0.86628718  0.48008938  0.83657822  1
  H+  H167  1  0.03799293  0.13296546  0.49931351  1
  H+  H168  1  0.26229860  0.64847504  0.67552063  1
  H+  H169  1  0.51223849  0.14791105  0.33293081  1
  H+  H170  1  0.23512674  0.61860227  0.99503682  1
  H+  H171  1  0.11807457  0.38765138  0.67358558  1
  H+  H172  1  0.87872577  -0.01231912  0.34704021  1
  H+  H173  1  0.02514031  0.88183995  0.33944277  1
  H+  H174  1  0.62898781  0.10268206  0.67390295  1
  H+  H175  1  0.67237184  0.48533815  0.46037233  1
  H+  H176  1  0.63227941  0.60772490  0.99460289  1
  H+  H177  1  0.36499609  0.97270153  0.49158709  1
  H+  H178  1  0.38453382  0.61435945  0.16796076  1
  H+  H179  1  0.87377566  0.64496697  0.33620168  1
  H+  H180  1  0.53237958  0.46921216  0.73131675  1
  H+  H181  1  0.14286474  0.55256817  0.32387985  1
  H+  H182  1  0.35539423  0.64574143  0.33544844  1
  H+  H183  1  0.14492212  0.85877462  1.00317959  1
  H+  H184  1  0.39538343  0.03540045  0.66331395  1
  H+  H185  1  0.64109461  0.60875080  0.85422870  1
  H+  H186  1  0.52326561  0.39489692  0.33096131  1
  H+  H187  1  0.38986705  0.53055153  0.50290329  1
  H+  H188  1  0.27846097  0.40078110  0.67099143  1
  H+  H189  1  0.32402419  0.38834898  0.07586717  1
  H+  H190  1  0.87330715  0.73696729  0.16267425  1
  H+  H191  1  0.86655557  0.39031541  0.83675634  1
  H+  H192  1  0.12048983  0.38856593  -0.00401431  1
  H+  H193  1  0.36033427  0.63771818  0.48732614  1
  H+  H194  1  0.01925766  0.65220704  0.34775738  1
  H+  H195  1  0.14129016  0.09964339  0.33367699  1
  H+  H196  1  0.73266674  0.35511227  0.67164938  1
  H+  H197  1  0.14076609  0.01085320  0.33005490  1
  H+  H198  1  0.63831335  0.11051325  0.84678534  1
  H+  H199  1  0.27660322  0.64426837  0.83768761  1
  H+  H200  1  0.64221597  0.86947251  0.33417130  1
  H+  H201  1  0.38020496  0.77762628  0.32047419  1
  H+  H202  1  0.38490705  0.86996587  0.32117534  1
  H+  H203  1  0.12160288  0.23289491  0.16389904  1
  H+  H204  1  0.38564431  0.77712544  0.84338461  1
  H+  H205  1  0.79900895  0.60700544  0.42506074  1
  H+  H206  1  0.92273986  0.08782225  0.95950229  1
  H+  H207  1  0.53266356  0.37848153  0.82667166  1
  H+  H208  1  0.12168215  0.47904551  -0.00086705  1
  H+  H209  1  0.38680566  0.36501142  0.17685702  1
  H+  H210  1  0.75520143  0.87085191  0.80676295  1
  H+  H211  1  0.11371800  0.22698826  0.81891670  1
  H+  H212  1  0.13022904  0.88886692  0.82598435  1
  H+  H213  1  0.38923241  0.60700375  0.85200693  1
  H+  H214  1  0.45986743  0.85256003  0.50065610  1
  H+  H215  1  0.35984631  0.22860503  0.16422256  1
  H+  H216  1  0.49053073  0.37524574  0.49658890  1
  H+  H217  1  0.03046121  0.63896004  0.50627634  1
  H+  H218  1  0.91188008  0.06827553  0.86015773  1
  H+  H219  1  0.37167509  0.15063232  0.67672952  1
  H+  H220  1  0.64036507  0.28593970  0.17092584  1
  H+  H221  1  0.37089331  0.90014039  0.66742137  1
  H+  H222  1  0.40853404  0.38533015  0.66727415  1
  H+  H223  1  0.51879278  0.38025872  0.00369656  1
  H+  H224  1  0.10027152  0.68412515  0.77081003  1
  H+  H225  1  0.91117011  0.30855805  0.33069971  1
  H+  H226  1  0.10332944  0.86906896  0.49313392  1
  H+  H227  1  0.87923026  0.37863646  0.33643777  1
  H+  H228  1  0.88800907  0.01731542  1.01144221  1
  H+  H229  1  0.86493134  0.13556837  1.02165942  1
  H+  H230  1  0.62632513  0.22218392  0.68284623  1
  H+  H231  1  0.87081410  0.39858880  0.68487273  1
  H+  H232  1  0.61475699  0.39749062  0.32894464  1
  H+  H233  1  0.11278834  0.41887841  0.33603095  1
  H+  H234  1  -0.02577352  0.61857063  0.83588555  1
  H+  H235  1  0.14105716  0.02795235  0.66223062  1
  H+  H236  1  0.89034081  0.77382424  0.33173434  1
  H+  H237  1  0.86733994  0.89928844  0.16154890  1
  H+  H238  1  0.36682884  0.51334760  0.32843728  1
  H+  H239  1  0.78205966  0.90056281  0.34763052  1
  H+  H240  1  0.64674903  0.53638750  0.32713790  1
  H+  H241  1  0.95683491  0.35569124  0.24694051  1
  H+  H242  1  0.82896864  0.19248402  0.60614676  1
  H+  H243  1  -0.03497965  0.27947057  0.21844984  1
  H+  H244  1  -0.01605828  0.87416737  0.65927580  1
  H+  H245  1  0.47430024  0.86519897  0.84056179  1
  H+  H246  1  0.11997467  0.29855883  0.32528204  1
  H+  H247  1  0.65199726  0.61241601  0.18446899  1
  H+  H248  1  0.62291829  0.76486464  0.65617463  1
  H+  H249  1  0.65141657  0.38543697  0.51414431  1
  H+  H250  1  0.13919160  0.52156559  0.65780230  1
  H+  H251  1  0.73859432  0.12566982  0.44605364  1
  H+  H252  1  0.36720578  0.48957248  0.67017773  1
  H+  H253  1  0.63203572  0.83976668  0.17890298  1
  H+  H254  1  0.61669600  0.13321622  0.00891488  1
  H+  H255  1  0.65585680  0.09161172  0.51941685  1
  H+  H256  1  0.90491442  0.77679710  0.84438507  1
  H+  H257  1  0.54167023  0.55247795  0.70242047  1
  H+  H258  1  0.63841534  0.36255227  0.84609047  1
  H+  H259  1  0.86498734  0.64055839  0.82890104  1
  H+  H260  1  0.84145383  -0.03858278  0.80044662  1
  H+  H261  1  0.37310760  0.46717621  0.83581198  1
  H+  H262  1  0.23314479  0.85827014  1.00262334  1
  H+  H263  1  0.23309617  0.87774187  0.65633167  1
  H+  H264  1  0.11777319  0.89343695  0.67456566  1
  H+  H265  1  0.89962779  0.63822029  0.99055504  1
  H+  H266  1  0.38745694  0.12004148  0.17824847  1
  H+  H267  1  0.61583486  0.15473680  0.16607758  1
  H+  H268  1  0.42634057  0.31813618  0.44807647  1
  H+  H269  1  0.22517271  0.10671708  0.84336926  1
  H+  H270  1  0.35440079  0.87998948  0.49001663  1
  H+  H271  1  0.55779326  0.59542235  0.79218892  1
  H+  H272  1  0.11804741  0.66287491  0.83713443  1
  H+  H273  1  0.91716617  0.12245465  0.33123141  1
  H+  H274  1  0.11509221  -0.02237107  0.16305457  1
  H+  H275  1  0.14892347  0.37398728  0.16428208  1
  H+  H276  1  0.35515162  0.72091031  0.14910348  1
  H+  H277  1  0.49561293  0.87140798  0.99139032  1
  H+  H278  1  0.88207980  0.01889614  0.65034064  1
  H+  H279  1  0.37013646  0.76487989  0.50330731  1
  H+  H280  1  0.60881742  0.38368569  0.16046509  1
  H+  H281  1  0.23186343  0.87023331  0.32217499  1
  H+  H282  1  0.40016854  0.35446905  1.00451553  1
  H+  H283  1  0.16802632  0.08000391  0.23597125  1
  H+  H284  1  0.39850417  0.62652069  0.65109041  1
  H+  H285  1  0.12219468  -0.01626521  0.83465273  1
  H+  H286  1  0.14117559  0.53111689  0.16513592  1
  H+  H287  1  0.35101828  0.38244791  0.33690386  1
  H+  H288  1  0.17047626  0.34179466  0.59695828  1
  H+  H289  1  0.08617314  0.91712593  0.06888196  1
  H+  H290  1  0.15542969  0.30042012  0.89168888  1
  H+  H291  1  0.66860426  0.09970863  0.25063560  1
  H+  H292  1  0.83024624  0.17555530  0.07115962  1
  H+  H293  1  0.16594193  0.57686918  0.59530433  1
  H+  H294  1  0.41702376  0.08282348  0.90169546  1
  H+  H295  1  0.33585917  0.17819480  0.77144495  1
  H+  H296  1  0.34660447  0.90996303  0.06853726  1
  H+  H297  1  0.39494562  0.02200416  0.99808380  1
  H+  H298  1  0.33225037  0.16003684  0.40737082  1
  H+  H299  1  0.82916161  0.91534132  0.06798849  1
  H+  H300  1  0.98827858  0.28056044  0.46697665  1
  H+  H301  1  0.92394309  0.08600602  0.56240952  1
  H+  H302  1  0.92903560  0.59033636  0.57361152  1
  H+  H303  1  0.83542071  0.41443678  0.43784771  1
  H+  H304  1  0.33479417  0.92098902  0.39477243  1
  H+  H305  1  0.36785310  0.98381582  0.82538053  1
  H+  H306  1  0.08209527  0.66241708  0.06986748  1
  H+  H307  1  0.14443384  0.36442441  0.49948448  1
  H+  H308  1  0.16837839  0.34688484  0.22887810  1
  H+  H309  1  0.28017977  0.39128718  0.49227304  1
  H+  H310  1  0.47237616  0.35713899  0.17583684  1
  H+  H311  1  0.67808884  0.34983646  0.22763145  1
  H+  H312  1  0.66745503  0.33448587  0.93810093  1
  H+  H313  1  0.89222099  0.20551743  0.39741061  1
  H+  H314  1  0.76027656  0.12930826  0.65200220  1
  H+  H315  1  0.83574078  0.42242132  0.74418700  1
  H+  H316  1  0.67786400  0.83727877  0.24056888  1
  H+  H317  1  0.62241669  0.77749467  0.50376014  1
  H+  H318  1  0.92135639  0.59701207  0.89800037  1
  H+  H319  1  0.32871220  0.67278648  0.77651286  1
  H+  H320  1  0.58557226  0.17238998  0.10182963  1
  H+  H321  1  0.08901853  0.42219438  0.43103098  1
  H+  H322  1  0.08758300  0.92272438  0.73421887  1
  H+  H323  1  0.17055250  0.60105188  0.91177116  1
  H+  H324  1  0.17108280  0.07264007  0.90491409  1
  H+  H325  1  0.88275421  0.65132521  0.16511616  1
  H+  H326  1  0.33403609  0.66306949  0.08867368  1
  H+  H327  1  0.61032154  0.87854759  0.67298095  1
  H+  H328  1  0.58885254  0.90569198  0.04911360  1
  H+  H329  1  0.40683346  0.58410044  0.23055318  1
  H+  H330  1  0.40951116  0.33302435  0.26759261  1
  H+  H331  1  0.08481273  0.67299416  0.44413883  1
  H+  H332  1  0.59163371  0.42579480  0.42242808  1
  H+  H333  1  0.67452722  0.83390140  0.92955593  1
  H+  H334  1  0.32520808  0.41433119  0.39804232  1
  H+  H335  1  0.42259352  0.59367770  0.56112910  1
  H+  H336  1  0.58043476  0.91113162  0.76940509  1
  H+  H337  1  0.13366579  0.60778143  0.50688842  1
  H+  H338  1  0.93656302  0.83541945  0.90477628  1
  H+  H339  1  0.36699728  0.98442332  0.33689298  1
  H+  H340  1  0.05008082  0.39504152  0.15965170  1
  H+  H341  1  0.58780137  0.19785966  0.41677510  1
  H+  H342  1  0.79197640  0.03089740  0.91562042  1
  H+  H343  1  0.67271737  0.57819987  0.94038033  1
  H+  H344  1  0.22528102  0.08770030  0.50837932  1
  H+  H345  1  0.10477444  0.16593032  0.41389655  1
  H+  H346  1  0.59324068  0.87577382  0.49345348  1
  H+  H347  1  0.34829426  0.42249249  0.77194610  1
  H+  H348  1  0.61990242  0.05587012  0.58441811  1
  H+  H349  1  0.88122298  0.77778667  0.50391209  1
  H+  H350  1  0.08835561  0.17019684  0.74503027  1
  H+  H351  1  0.57221237  0.68123550  0.72166098  1
  H+  H352  1  0.09462796  0.42204398  0.09238617  1
  H+  H353  1  0.43833018  0.09993296  0.60816802  1
  H+  H354  1  0.66956330  0.07746948  0.90415185  1
  H+  H355  1  0.71482814  0.85683411  0.64996148  1
  H+  H356  1  0.77891425  0.65219359  0.67958244  1
  H+  H357  1  0.92600482  0.83994715  0.59924133  1
  H+  H358  1  0.34106857  0.92748129  0.72841846  1
  H+  H359  1  0.41333840  0.83467462  0.59639889  1
  H+  H360  1  0.86686957  0.38014469  1.00478229  1
  H+  H361  1  0.91733814  0.32210919  0.90090866  1
  H+  H362  1  0.09093755  0.41621746  0.73518194  1
  H+  H363  1  0.58518632  0.67088337  0.42953154  1
  H+  H364  1  0.68738722  0.59676522  0.26634071  1
  H+  H365  1  0.92721610  0.60175431  0.25637771  1
  H+  H366  1  0.56642624  0.90711606  0.39916521  1
  H+  H367  1  0.17584198  0.59953546  0.25958905  1
  H+  H368  1  0.16716551  0.83829904  0.60022171  1
  H+  H369  1  0.65527713  0.78710144  0.33424356  1
  H+  H370  1  0.07795420  0.90140149  0.43146626  1
  H+  H371  1  0.42327963  0.84015770  0.93752181  1
  H+  H372  1  0.37442272  0.63760190  0.00263774  1
  H+  H373  1  0.79651853  -0.00706280  0.90697931  1
  H+  H374  1  0.62894973  0.01074168  0.67031136  1
  H+  H375  1  0.09899695  0.17387699  0.07313354  1
  H+  H376  1  0.83714536  0.67673892  0.77221776  1
  H+  H377  1  0.16796508  0.07638534  0.59882563  1
  H+  H378  1  0.34035327  0.16632808  0.07072784  1
  H+  H379  1  0.67477883  0.32714170  0.61211059  1
  H+  H380  1  0.81044847  0.16492210  0.76452589  1
  H+  H381  1  0.61310592  0.00903453  0.33595595  1
  H+  H382  1  0.91921293  0.84266700  0.23498375  1
  H+  H383  1  0.16782352  0.83445910  0.26459130  1
  O2-  O384  1  0.09299140  0.17224978  0.14918396  1
  O2-  O385  1  0.09939448  0.16309318  0.48592198  1
  O2-  O386  1  0.08062434  0.16321093  0.79118855  1
  O2-  O387  1  0.10566581  0.42886041  0.13695070  1
  O2-  O388  1  0.08724336  0.40638472  0.47507425  1
  O2-  O389  1  0.07623579  0.39296577  0.81818288  1
  O2-  O390  1  0.08020382  0.67430531  0.14742888  1
  O2-  O391  1  0.09231687  0.67002439  0.48945421  1
  O2-  O392  1  0.08524610  0.68505233  0.81470662  1
  O2-  O393  1  0.08144022  0.91764250  0.14722796  1
  O2-  O394  1  0.07324531  0.90016783  0.47717690  1
  O2-  O395  1  0.09058849  0.92096442  0.81500361  1
  O2-  O396  1  0.33221237  0.16868761  0.14755590  1
  O2-  O397  1  0.33786904  0.14738946  0.49362585  1
  O2-  O398  1  0.32797433  0.17160813  0.81653779  1
  O2-  O399  1  0.33727957  0.41909791  0.14720242  1
  O2-  O400  1  0.33914429  0.42404487  0.47373084  1
  O2-  O401  1  0.34513058  0.41010092  0.81599277  1
  O2-  O402  1  0.33097263  0.66106080  0.13561839  1
  O2-  O403  1  0.32596318  0.66482617  0.47455482  1
  O2-  O404  1  0.33559285  0.66950164  0.82096362  1
  O2-  O405  1  0.40509784  0.89896300  0.15485489  1
  O2-  O406  1  0.32845763  0.91494982  0.47461481  1
  O2-  O407  1  0.33803616  0.92484434  0.80667241  1
  O2-  O408  1  0.58241988  0.17834351  0.14707688  1
  O2-  O409  1  0.59674549  0.20259206  0.46279558  1
  O2-  O410  1  0.58837606  0.16504467  0.82462209  1
  O2-  O411  1  0.56419173  0.39751811  0.14686456  1
  O2-  O412  1  0.61003141  0.43840545  0.46614885  1
  O2-  O413  1  0.59593995  0.41171041  0.81815737  1
  O2-  O414  1  0.59038349  0.65382687  0.16498216  1
  O2-  O415  1  0.58224229  0.67265688  0.47423146  1
  O2-  O416  1  0.57215819  0.64021396  0.82445677  1
  O2-  O417  1  0.55974574  0.86217365  0.14473905  1
  O2-  O418  1  0.56001642  0.90377024  0.47441051  1
  O2-  O419  1  0.57924563  0.90876872  0.81487346  1
  O2-  O420  1  0.83414313  0.19439948  0.14595580  1
  O2-  O421  1  0.92974931  0.23070317  0.46898326  1
  O2-  O422  1  0.82089049  0.15989146  0.80742895  1
  O2-  O423  1  0.82945160  0.34205819  0.14279275  1
  O2-  O424  1  0.84336421  0.42069379  0.48367152  1
  O2-  O425  1  0.83429365  0.41834035  0.82284030  1
  O2-  O426  1  0.84636026  0.67677223  0.14811877  1
  O2-  O427  1  0.76867231  0.56820229  0.45968006  1
  O2-  O428  1  0.83738101  0.67525571  0.81794664  1
  O2-  O429  1  0.83494559  0.92652591  0.14467599  1
  O2-  O430  1  0.84880035  0.93054244  0.47489404  1
  O2-  O431  1  0.81164244  0.90229522  0.78531981  1
  O2-  O432  1  0.16770751  0.08214266  0.19072021  1
  O2-  O433  1  0.16409101  0.06310640  0.51978340  1
  O2-  O434  1  0.16619356  0.06873427  0.85986014  1
  O2-  O435  1  0.17414080  0.34094887  0.18451012  1
  O2-  O436  1  0.17817234  0.33863923  0.51790158  1
  O2-  O437  1  0.14825205  0.29716401  0.84637901  1
  O2-  O438  1  0.16828434  0.59125960  0.18065654  1
  O2-  O439  1  0.16111707  0.57312449  0.52000054  1
  O2-  O440  1  0.17121087  0.61001006  0.86521861  1
  O2-  O441  1  0.15896227  0.82874748  0.18620567  1
  O2-  O442  1  0.15938254  0.82873437  0.52248081  1
  O2-  O443  1  0.17201673  0.85107424  0.83977661  1
  O2-  O444  1  0.41916434  0.09323843  0.19629392  1
  O2-  O445  1  0.46042053  0.08337354  0.52529644  1
  O2-  O446  1  0.41676285  0.08520793  0.85637137  1
  O2-  O447  1  0.41167388  0.33044061  0.19335823  1
  O2-  O448  1  0.42861217  0.33555078  0.49032590  1
  O2-  O449  1  0.42569673  0.31355521  0.84139651  1
  O2-  O450  1  0.41255985  0.58321903  0.18603526  1
  O2-  O451  1  0.41922580  0.59206842  0.51499777  1
  O2-  O452  1  0.41705792  0.57703499  0.86995490  1
  O2-  O453  1  0.40604444  0.82629754  0.18548775  1
  O2-  O454  1  0.40024110  0.82601553  0.51820920  1
  O2-  O455  1  0.41377638  0.83900243  0.85532804  1
  O2-  O456  1  0.67465316  0.10932629  0.20589988  1
  O2-  O457  1  0.60220915  0.05197530  0.53980531  1
  O2-  O458  1  0.67005101  0.07952136  0.85799380  1
  O2-  O459  1  0.67822403  0.34720477  0.18231534  1
  O2-  O460  1  0.67838011  0.35276658  0.52975659  1
  O2-  O461  1  0.66731276  0.33028692  0.86408244  1
  O2-  O462  1  0.69015394  0.59227485  0.20203541  1
  O2-  O463  1  0.65946234  0.59571990  0.53122438  1
  O2-  O464  1  0.67623659  0.58235045  0.86680733  1
  O2-  O465  1  0.67663942  0.82843891  0.19592059  1
  O2-  O466  1  0.64335260  0.83644924  0.51931628  1
  O2-  O467  1  0.66014868  0.81709941  0.84621188  1
  O2-  O468  1  0.92651988  0.10413583  0.17269672  1
  O2-  O469  1  0.93111708  0.08784285  0.51642699  1
  O2-  O470  1  0.91363163  0.08098308  0.81707192  1
  O2-  O471  1  0.98050162  0.33883205  0.21178774  1
  O2-  O472  1  0.86418416  0.29961270  0.53816445  1
  O2-  O473  1  0.91801395  0.32576956  0.85464976  1
  O2-  O474  1  0.93217459  0.60882126  0.19052527  1
  O2-  O475  1  0.93724631  0.59455384  0.52839884  1
  O2-  O476  1  0.91502699  0.58533287  0.85222491  1
  O2-  O477  1  0.91794077  0.84607661  0.18988874  1
  O2-  O478  1  0.91600714  0.83825370  0.51473806  1
  O2-  O479  1  0.94396005  0.83647887  0.85983080  1
  O2-  O480  1  0.17306917  0.07285898  0.31620152  1
  O2-  O481  1  0.16938568  0.08657438  0.64341039  1
  O2-  O482  1  0.17907747  0.08313954  0.98540919  1
  O2-  O483  1  0.16019690  0.35496839  0.30879291  1
  O2-  O484  1  0.16706917  0.33952885  0.64225677  1
  O2-  O485  1  0.16344799  0.32227723  0.96812517  1
  O2-  O486  1  0.18129303  0.60870187  0.30438580  1
  O2-  O487  1  0.16858055  0.58078927  0.64105291  1
  O2-  O488  1  0.17312201  0.58715127  0.98074302  1
  O2-  O489  1  0.17037283  0.83986135  0.30980359  1
  O2-  O490  1  0.17090063  0.84350661  0.64570731  1
  O2-  O491  1  0.17185495  0.82443900  0.99159584  1
  O2-  O492  1  0.41644761  0.08947513  0.31312032  1
  O2-  O493  1  0.42984841  0.09799609  0.65248414  1
  O2-  O494  1  0.42433240  0.08186917  0.98199507  1
  O2-  O495  1  0.40936208  0.33673142  0.31373654  1
  O2-  O496  1  0.44737488  0.36290791  0.65797832  1
  O2-  O497  1  0.43839878  0.33301951  0.99010449  1
  O2-  O498  1  0.39959624  0.57578038  0.31631129  1
  O2-  O499  1  0.42766599  0.59697099  0.63601053  1
  O2-  O500  1  0.42255658  0.60078957  0.98383386  1
  O2-  O501  1  0.41298721  0.83828253  0.30350039  1
  O2-  O502  1  0.41942405  0.84280715  0.64157762  1
  O2-  O503  1  0.42876968  0.84075107  0.98248211  1
  O2-  O504  1  0.64416819  0.07383512  0.32708941  1
  O2-  O505  1  0.65465236  0.07054671  0.65237523  1
  O2-  O506  1  0.66357694  0.07411641  0.97977731  1
  O2-  O507  1  0.67156722  0.35219036  0.30623477  1
  O2-  O508  1  0.67436027  0.31402128  0.65569397  1
  O2-  O509  1  0.66634779  0.33733184  0.98419995  1
  O2-  O510  1  0.68213263  0.59766198  0.31481423  1
  O2-  O511  1  0.68217168  0.61136130  0.65547859  1
  O2-  O512  1  0.66497185  0.57467610  0.98617723  1
  O2-  O513  1  0.68184499  0.84864485  0.32139246  1
  O2-  O514  1  0.65245290  0.82908118  0.64105939  1
  O2-  O515  1  0.67713979  0.84081489  0.97434504  1
  O2-  O516  1  0.93751445  0.08107740  0.32482527  1
  O2-  O517  1  0.91691947  0.08132363  0.63609657  1
  O2-  O518  1  0.92408594  0.08266870  1.00334086  1
  O2-  O519  1  0.92852583  0.36769618  0.31850792  1
  O2-  O520  1  0.92536720  0.34852610  0.65449347  1
  O2-  O521  1  0.92293097  0.32552902  0.97334449  1
  O2-  O522  1  0.92290896  0.59794882  0.30478129  1
  O2-  O523  1  0.91964211  0.58980197  0.65001729  1
  O2-  O524  1  0.93201141  0.61638823  0.96737333  1
  O2-  O525  1  0.92128219  0.83508235  0.31612497  1
  O2-  O526  1  0.92360094  0.84340026  0.64389729  1
  O2-  O527  1  0.92386108  0.83716189  0.98369445  1
  O2-  O528  1  0.09618630  0.17021515  0.02729842  1
  O2-  O529  1  0.10985992  0.17059159  0.36755176  1
  O2-  O530  1  0.08594137  0.16897763  0.67350451  1
  O2-  O531  1  0.08979231  0.41735733  0.01236582  1
  O2-  O532  1  0.08744062  0.44868982  0.35811415  1
  O2-  O533  1  0.08893524  0.41877894  0.69041890  1
  O2-  O534  1  0.08854539  0.66136425  0.02465979  1
  O2-  O535  1  0.07165064  0.68534033  0.37265668  1
  O2-  O536  1  0.14911345  0.70010036  0.70348388  1
  O2-  O537  1  0.09029192  0.91850562  0.02352522  1
  O2-  O538  1  0.08541681  0.91143269  0.35567031  1
  O2-  O539  1  0.08767903  0.92445523  0.68896754  1
  O2-  O540  1  0.34548547  0.16779596  0.02523140  1
  O2-  O541  1  0.33292247  0.16876121  0.36301934  1
  O2-  O542  1  0.34082357  0.17963571  0.69202805  1
  O2-  O543  1  0.31066824  0.35709361  0.03543187  1
  O2-  O544  1  0.31877742  0.41107108  0.35239946  1
  O2-  O545  1  0.33703653  0.43110946  0.68799915  1
  O2-  O546  1  0.33648703  0.66652220  0.01820271  1
  O2-  O547  1  0.33098884  0.68082582  0.35039456  1
  O2-  O548  1  0.30327129  0.69869650  0.70138357  1
  O2-  O549  1  0.34789421  0.91584613  0.02444200  1
  O2-  O550  1  0.33768198  0.92256853  0.34942712  1
  O2-  O551  1  0.34027173  0.93001454  0.68283553  1
  O2-  O552  1  0.58882037  0.16586775  0.02427688  1
  O2-  O553  1  0.57538878  0.18139878  0.34578902  1
  O2-  O554  1  0.59217105  0.16141646  0.70082956  1
  O2-  O555  1  0.58904760  0.42015654  0.01699500  1
  O2-  O556  1  0.58322027  0.42601427  0.34614073  1
  O2-  O557  1  0.52482336  0.51839700  0.73984492  1
  O2-  O558  1  0.58905628  0.66093222  0.00426476  1
  O2-  O559  1  0.60490226  0.67792997  0.34521494  1
  O2-  O560  1  0.57632341  0.67460332  0.67800046  1
  O2-  O561  1  0.58913239  0.91460065  0.00539785  1
  O2-  O562  1  0.57320703  0.91119079  0.35338585  1
  O2-  O563  1  0.58154625  0.91038321  0.69096279  1
  O2-  O564  1  0.83368246  0.16770830  0.02611228  1
  O2-  O565  1  0.88272080  0.19636485  0.35213366  1
  O2-  O566  1  0.82448323  0.16745029  0.64653462  1
  O2-  O567  1  0.83959314  0.40533943  0.02986402  1
  O2-  O568  1  0.80855395  0.38078898  0.36594441  1
  O2-  O569  1  0.83514375  0.42319184  0.69878263  1
  O2-  O570  1  0.83589399  0.67584904  0.02662806  1
  O2-  O571  1  0.84337677  0.67270977  0.35667759  1
  O2-  O572  1  0.84013720  0.67805803  0.69527777  1
  O2-  O573  1  0.83464655  0.91949806  0.02246800  1
  O2-  O574  1  0.84257101  0.92615439  0.36366163  1
  O2-  O575  1  0.82738880  0.91876347  0.66844169  1
