# generated using pymatgen
data_H2O
_symmetry_space_group_name_H-M   'P 1'
_cell_length_a   17.98719638
_cell_length_b   17.98989375
_cell_length_c   21.97879532
_cell_angle_alpha   89.98081377
_cell_angle_beta   90.02291743
_cell_angle_gamma   120.01973513
_symmetry_Int_Tables_number   1
_chemical_formula_structural   H2O
_chemical_formula_sum   'H384 O192'
_cell_volume   6158.00661099
_cell_formula_units_Z   192
loop_
 _symmetry_equiv_pos_site_id
 _symmetry_equiv_pos_as_xyz
  1  'x, y, z'
loop_
 _atom_type_symbol
 _atom_type_oxidation_number
  H+  1.0
  O2-  -2.0
loop_
 _atom_site_type_symbol
 _atom_site_label
 _atom_site_symmetry_multiplicity
 _atom_site_fract_x
 _atom_site_fract_y
 _atom_site_fract_z
 _atom_site_occupancy
  H+  H0  1  0.34518491  0.11542177  0.34295320  1
  H+  H1  1  0.15885392  0.17546776  0.51662295  1
  H+  H2  1  0.12161447  0.68434687  0.82747455  1
  H+  H3  1  0.38408293  0.76876929  0.31686241  1
  H+  H4  1  0.35788115  0.48680560  0.66953864  1
  H+  H5  1  0.11173547  0.39210588  0.50024297  1
  H+  H6  1  1.01243235  0.15154693  0.64863030  1
  H+  H7  1  0.14029173  0.10526257  0.16593427  1
  H+  H8  1  0.59715652  0.41731418  0.41019313  1
  H+  H9  1  0.46648681  0.60977752  0.32589120  1
  H+  H10  1  0.35119834  0.88763320  0.15805771  1
  H+  H11  1  0.11199281  1.00338438  0.32109782  1
  H+  H12  1  0.92147783  0.14800458  0.65158454  1
  H+  H13  1  0.76217974  0.21521665  0.04765575  1
  H+  H14  1  0.37425500  0.15510812  0.48410218  1
  H+  H15  1  0.51887485  0.14513153  0.83087736  1
  H+  H16  1  0.83368399  0.03585589  0.95056991  1
  H+  H17  1  0.67455130  0.07587749  0.57069093  1
  H+  H18  1  0.78288626  0.89565506  0.50391222  1
  H+  H19  1  0.61753956  0.39529527  -0.00381456  1
  H+  H20  1  0.25325464  0.37506927  0.65897903  1
  H+  H21  1  0.72392077  0.35517290  0.65939286  1
  H+  H22  1  0.82650934  0.08584648  0.85526923  1
  H+  H23  1  0.61479418  0.37994031  0.67171550  1
  H+  H24  1  0.16229227  0.27143156  0.65742344  1
  H+  H25  1  0.25512693  0.87677033  0.47935974  1
  H+  H26  1  0.76002609  0.37490782  0.82892736  1
  H+  H27  1  0.63985461  1.01453609  0.51211998  1
  H+  H28  1  0.86835221  0.37584397  0.16426473  1
  H+  H29  1  0.43985130  0.85415920  0.12154693  1
  H+  H30  1  0.63430851  0.85253161  0.33123518  1
  H+  H31  1  0.73557985  0.10749108  0.66736990  1
  H+  H32  1  0.37540464  0.98263735  0.67869742  1
  H+  H33  1  0.37748469  0.52175615  0.32162102  1
  H+  H34  1  0.85782082  -0.03216662  0.33670920  1
  H+  H35  1  0.88603688  0.76017819  0.65386420  1
  H+  H36  1  0.86953265  0.84678080  0.32703810  1
  H+  H37  1  0.88419031  0.26103126  0.51007288  1
  H+  H38  1  -0.00185896  0.94219263  0.54355708  1
  H+  H39  1  0.53175910  0.88608116  0.33809661  1
  H+  H40  1  0.88938525  0.79887936  0.86856845  1
  H+  H41  1  0.10456577  0.57777814  0.87798023  1
  H+  H42  1  0.12517253  0.98279592  0.02512979  1
  H+  H43  1  0.10313953  0.71349970  0.48502471  1
  H+  H44  1  0.99628623  0.34763002  0.99756736  1
  H+  H45  1  0.11245311  0.21025940  0.32350584  1
  H+  H46  1  0.14894039  0.79024281  -0.00643161  1
  H+  H47  1  0.52453219  0.11377277  0.33876752  1
  H+  H48  1  1.00595522  0.11753224  0.91643331  1
  H+  H49  1  0.14182496  0.87558184  0.99580098  1
  H+  H50  1  0.24759122  0.61678095  0.84408402  1
  H+  H51  1  0.59280175  0.12991004  0.01203000  1
  H+  H52  1  0.13973941  0.00130783  0.51440396  1
  H+  H53  1  0.13324530  1.01395137  0.48303501  1
  H+  H54  1  0.62782624  0.11007384  0.82524059  1
  H+  H55  1  0.39623908  0.55153675  0.99052310  1
  H+  H56  1  1.02042752  0.91604310  0.84216940  1
  H+  H57  1  0.62091177  0.48665588  0.14720794  1
  H+  H58  1  0.38079843  1.01802928  0.32248778  1
  H+  H59  1  0.58451654  0.16352509  0.73851063  1
  H+  H60  1  0.03591251  0.13201079  0.13941678  1
  H+  H61  1  0.68041153  0.58445860  0.56454587  1
  H+  H62  1  0.58115166  0.90768522  0.73640113  1
  H+  H63  1  0.36663715  0.88950001  0.68646451  1
  H+  H64  1  0.14190190  0.14554032  0.83735045  1
  H+  H65  1  0.97371125  0.10148305  0.31921452  1
  H+  H66  1  0.20956896  0.85604967  0.30835984  1
  H+  H67  1  0.55354264  0.89820243  0.16777200  1
  H+  H68  1  0.51803819  0.15548423  0.16294169  1
  H+  H69  1  -0.00164279  0.84657120  0.48155449  1
  H+  H70  1  0.88471503  0.35800322  0.66242204  1
  H+  H71  1  0.85875594  0.37235094  0.49971517  1
  H+  H72  1  0.48508835  0.36427227  0.12613867  1
  H+  H73  1  0.62727281  0.50967800  0.65495240  1
  H+  H74  1  0.09362215  0.45893058  0.83902444  1
  H+  H75  1  0.09340054  0.87269055  0.32372434  1
  H+  H76  1  0.97559469  0.59519329  1.00065830  1
  H+  H77  1  0.19617758  0.14258160  0.56952470  1
  H+  H78  1  1.02530183  0.14903697  0.48151893  1
  H+  H79  1  0.61131174  0.22971021  0.82991762  1
  H+  H80  1  0.87247009  0.33158518  0.32781257  1
  H+  H81  1  0.86808281  0.22495696  0.67609618  1
  H+  H82  1  0.37107943  0.61633491  0.66306055  1
  H+  H83  1  0.67116799  0.39689509  0.33258760  1
  H+  H84  1  0.61815796  0.75337013  0.66713374  1
  H+  H85  1  0.37756115  0.52464223  0.84242492  1
  H+  H86  1  0.86645193  0.75606385  0.32565154  1
  H+  H87  1  0.82596652  0.39104870  0.07056455  1
  H+  H88  1  0.00073667  0.36861854  0.83445957  1
  H+  H89  1  0.71435018  0.83757724  0.86042159  1
  H+  H90  1  0.64245192  0.76966121  0.17462386  1
  H+  H91  1  0.64584171  0.10678618  0.66930108  1
  H+  H92  1  0.63555577  0.88842072  0.16871981  1
  H+  H93  1  0.86119653  -0.02356756  0.15077411  1
  H+  H94  1  0.39975447  0.39595415  0.50820237  1
  H+  H95  1  0.01201099  0.16095336  0.92421901  1
  H+  H96  1  0.56192671  0.64436115  0.73265148  1
  H+  H97  1  0.62500368  0.59780108  0.65733722  1
  H+  H98  1  0.12228924  0.64161103  0.00818222  1
  H+  H99  1  0.25251721  0.63492321  0.48545525  1
  H+  H100  1  0.50213397  0.63156426  0.82677347  1
  H+  H101  1  0.76428553  0.13595108  0.81306214  1
  H+  H102  1  0.35757048  0.22238496  0.16064400  1
  H+  H103  1  0.13079543  0.51147488  0.16547706  1
  H+  H104  1  0.36493832  0.20418255  0.67925276  1
  H+  H105  1  0.53462644  0.40137962  0.49601451  1
  H+  H106  1  0.84663620  0.98757659  0.68432215  1
  H+  H107  1  0.29221085  0.91708123  0.83612086  1
  H+  H108  1  0.84090039  0.22892851  1.00826500  1
  H+  H109  1  0.10099985  0.63650281  0.32525374  1
  H+  H110  1  0.14070486  0.14476872  0.67219969  1
  H+  H111  1  0.36813391  0.39463329  0.81827161  1
  H+  H112  1  0.27676647  0.21300220  0.47644674  1
  H+  H113  1  0.12474726  0.61060317  0.50618416  1
  H+  H114  1  0.58456785  0.00197135  1.01714476  1
  H+  H115  1  0.13644697  0.28363505  0.50026999  1
  H+  H116  1  0.66602968  0.02536758  0.18382691  1
  H+  H117  1  0.61934341  0.64556983  0.14139936  1
  H+  H118  1  0.24354131  0.89356890  0.65985525  1
  H+  H119  1  0.63490069  0.26170126  0.50525500  1
  H+  H120  1  0.18096999  0.34403950  0.93203740  1
  H+  H121  1  0.27791593  0.39378543  0.82601425  1
  H+  H122  1  0.86861419  -0.01185843  0.49518951  1
  H+  H123  1  0.20522110  0.08724118  0.32560770  1
  H+  H124  1  0.01476471  0.88650021  0.67919561  1
  H+  H125  1  0.88844910  0.51158454  0.16152451  1
  H+  H126  1  0.07591549  0.43605439  0.41455889  1
  H+  H127  1  0.51526686  0.37820013  0.81610974  1
  H+  H128  1  0.08761604  0.17603957  0.42336469  1
  H+  H129  1  0.35224573  0.48796234  0.48601284  1
  H+  H130  1  0.14698561  1.03791447  0.85547426  1
  H+  H131  1  0.40724545  0.29939905  0.08350970  1
  H+  H132  1  0.82936011  0.32524333  0.33767287  1
  H+  H133  1  0.60697744  0.72028295  0.34480928  1
  H+  H134  1  0.39343392  0.52320531  0.16160617  1
  H+  H135  1  0.38403991  0.76563431  0.86198690  1
  H+  H136  1  0.10291286  0.71744333  0.14793007  1
  H+  H137  1  0.88043108  0.34743593  0.84632287  1
  H+  H138  1  0.56475318  0.64430369  0.52091599  1
  H+  H139  1  0.83776875  0.83554895  0.69926284  1
  H+  H140  1  0.88581576  0.86835521  1.01546007  1
  H+  H141  1  0.70023296  0.61498679  0.83744286  1
  H+  H142  1  0.85254607  0.61327279  0.99789370  1
  H+  H143  1  0.97200734  0.35235142  0.51339997  1
  H+  H144  1  0.13793875  0.53968506  1.03654778  1
  H+  H145  1  0.14004866  0.34370944  0.29190787  1
  H+  H146  1  0.48598692  0.33659874  0.65101259  1
  H+  H147  1  0.33899969  0.62575390  0.83416775  1
  H+  H148  1  0.39660382  0.59217716  0.59878786  1
  H+  H149  1  0.88703975  0.34578983  0.98610482  1
  H+  H150  1  0.11015905  0.73237347  0.65845610  1
  H+  H151  1  0.42136896  0.83875446  0.41409198  1
  H+  H152  1  0.87968087  0.49833710  0.50008993  1
  H+  H153  1  0.12030241  0.76686202  0.31064868  1
  H+  H154  1  0.81465773  -0.00879510  0.85896155  1
  H+  H155  1  0.77098398  0.37449688  0.49738946  1
  H+  H156  1  0.63130460  0.02223668  0.82486545  1
  H+  H157  1  0.37531245  0.40409982  0.33366392  1
  H+  H158  1  0.73323078  0.61781123  0.15597399  1
  H+  H159  1  0.97795665  0.60824889  0.65248779  1
  H+  H160  1  0.10072903  0.48339746  0.68711172  1
  H+  H161  1  0.62789081  0.27159871  0.99128139  1
  H+  H162  1  0.37158357  0.39155837  0.13067616  1
  H+  H163  1  0.37993000  0.77285640  0.16102274  1
  H+  H164  1  0.35847885  0.64624349  0.00824434  1
  H+  H165  1  0.52585061  0.88008772  0.48453225  1
  H+  H166  1  0.82708498  0.05932520  1.01987430  1
  H+  H167  1  0.41453005  0.34034439  0.77073884  1
  H+  H168  1  0.26563014  0.13122220  0.17067120  1
  H+  H169  1  0.36970928  0.24360319  0.82068286  1
  H+  H170  1  0.23534474  0.36209302  0.14818429  1
  H+  H171  1  0.95850303  0.60492337  0.31260273  1
  H+  H172  1  0.51782506  0.87396598  0.83427745  1
  H+  H173  1  0.38163904  0.43040168  -0.01494306  1
  H+  H174  1  0.45044025  0.62709098  0.49711013  1
  H+  H175  1  0.67996770  0.08179317  1.01272728  1
  H+  H176  1  0.51353225  0.14582266  1.00615261  1
  H+  H177  1  0.77218109  0.62775940  0.99486897  1
  H+  H178  1  0.84679354  0.69334538  0.80137265  1
  H+  H179  1  0.39629659  0.99920253  0.50674870  1
  H+  H180  1  0.88244872  0.24160715  0.16347468  1
  H+  H181  1  0.36298883  0.63235187  0.16172785  1
  H+  H182  1  0.83185385  0.91666030  0.40026464  1
  H+  H183  1  0.63566755  0.74021217  0.50616113  1
  H+  H184  1  1.02131579  0.37624604  0.16292420  1
  H+  H185  1  0.21186433  0.60787195  0.67090181  1
  H+  H186  1  0.89827761  0.76810990  0.16408904  1
  H+  H187  1  0.49577626  0.40878185  -0.03516809  1
  H+  H188  1  0.84635901  0.87945304  0.85802171  1
  H+  H189  1  0.86563128  0.60245385  0.48383762  1
  H+  H190  1  0.50408945  0.39240395  0.32868209  1
  H+  H191  1  0.63634637  0.85074863  0.67204698  1
  H+  H192  1  0.14919003  0.27751935  0.83840764  1
  H+  H193  1  0.14069705  0.35220092  0.99418694  1
  H+  H194  1  0.22661524  0.37136134  0.50190579  1
  H+  H195  1  0.39064756  0.89181602  0.00941444  1
  H+  H196  1  0.61507888  0.21773831  0.67667712  1
  H+  H197  1  0.27477916  0.90489446  1.01056391  1
  H+  H198  1  0.74211997  0.81834386  0.70283766  1
  H+  H199  1  0.08036719  0.67169232  0.05827968  1
  H+  H200  1  0.77531243  0.88713460  0.16774754  1
  H+  H201  1  0.88543373  0.58681490  0.83502202  1
  H+  H202  1  0.77163844  0.12851340  0.49057553  1
  H+  H203  1  0.41268594  0.09915210  0.90527396  1
  H+  H204  1  0.27937656  0.15271233  1.01607151  1
  H+  H205  1  0.88581560  0.10243933  0.31755780  1
  H+  H206  1  0.85818209  0.21881567  0.82663545  1
  H+  H207  1  0.53552584  0.11973372  0.49439523  1
  H+  H208  1  0.76101032  0.61558172  0.65864821  1
  H+  H209  1  0.77730574  0.61660559  0.48831459  1
  H+  H210  1  0.38167173  1.01885462  0.83270996  1
  H+  H211  1  0.52960778  0.64355649  0.14552151  1
  H+  H212  1  0.31347933  0.66025095  0.74326832  1
  H+  H213  1  0.33206832  0.15612368  0.74403719  1
  H+  H214  1  0.15869604  0.58747086  0.56852814  1
  H+  H215  1  0.10618631  0.82780956  0.49051369  1
  H+  H216  1  0.63192728  0.53006476  0.98932654  1
  H+  H217  1  0.23518474  0.61511994  1.01441161  1
  H+  H218  1  0.85467235  0.45118482  0.01282978  1
  H+  H219  1  0.34906485  0.72400139  0.68550530  1
  H+  H220  1  0.12602008  0.21827858  0.13669061  1
  H+  H221  1  0.85708713  0.62226631  0.14569507  1
  H+  H222  1  0.38122554  1.03830466  -0.00411257  1
  H+  H223  1  0.90480210  0.89757643  0.51551649  1
  H+  H224  1  0.77846944  0.37963956  0.16003886  1
  H+  H225  1  0.63501403  0.35189188  0.50720913  1
  H+  H226  1  0.63540564  0.28660507  0.16993639  1
  H+  H227  1  0.00945829  0.38668315  0.68212947  1
  H+  H228  1  0.61230177  0.60372783  0.32207058  1
  H+  H229  1  1.01060022  0.67025649  0.87789573  1
  H+  H230  1  0.34570205  0.87829837  0.32821525  1
  H+  H231  1  0.81006250  0.93600497  0.01334652  1
  H+  H232  1  0.60419649  0.46770954  0.82482421  1
  H+  H233  1  0.86355875  0.52004435  0.30651505  1
  H+  H234  1  0.98960372  0.45540659  0.30218330  1
  H+  H235  1  0.13553388  0.53483899  0.32511782  1
  H+  H236  1  0.10516559  0.47810242  0.50578957  1
  H+  H237  1  0.10449258  0.11861961  0.33322191  1
  H+  H238  1  0.38458170  0.02937950  0.17800764  1
  H+  H239  1  0.60731062  0.87768392  0.83423201  1
  H+  H240  1  0.38705584  0.13405067  0.84356231  1
  H+  H241  1  0.61618511  0.74698155  0.85220921  1
  H+  H242  1  0.76947476  0.12179829  0.33874957  1
  H+  H243  1  0.58709449  0.62198656  0.82830171  1
  H+  H244  1  0.58027790  0.66089990  0.40392300  1
  H+  H245  1  0.91800976  0.83947893  0.60701072  1
  H+  H246  1  0.63987344  0.09609060  0.33210107  1
  H+  H247  1  0.12426246  0.60970449  0.66338263  1
  H+  H248  1  0.28159716  0.14970175  0.83817943  1
  H+  H249  1  0.62855555  0.13538198  0.49319115  1
  H+  H250  1  0.63311956  0.36197288  0.84011569  1
  H+  H251  1  0.72232556  0.85063745  0.33320915  1
  H+  H252  1  0.86481498  0.46911734  0.67225929  1
  H+  H253  1  0.10944984  0.90042768  0.68240333  1
  H+  H254  1  1.01551139  0.62247102  0.48260378  1
  H+  H255  1  0.06458096  0.41663239  0.75361869  1
  H+  H256  1  0.35965383  0.61934510  0.49791209  1
  H+  H257  1  0.66447931  0.62459287  0.50434929  1
  H+  H258  1  0.36985807  0.28118708  0.45927525  1
  H+  H259  1  0.13404017  0.02446065  0.66025866  1
  H+  H260  1  0.61642862  0.97039725  0.67791919  1
  H+  H261  1  0.88559783  0.59876470  0.64584829  1
  H+  H262  1  0.13102963  0.60100917  0.16258919  1
  H+  H263  1  0.16087369  0.58071039  0.26017547  1
  H+  H264  1  0.63068732  0.47977066  0.49624148  1
  H+  H265  1  0.18116550  0.81339560  0.83647663  1
  H+  H266  1  0.26292339  0.89093382  0.15832155  1
  H+  H267  1  0.90364609  0.12359954  0.16286569  1
  H+  H268  1  0.18102885  0.09668712  0.91696752  1
  H+  H269  1  0.50519593  0.61909277  0.67189901  1
  H+  H270  1  0.66317152  0.32155638  0.60043075  1
  H+  H271  1  0.28558385  0.41496952  0.99491035  1
  H+  H272  1  0.48153991  0.86027755  0.66938293  1
  H+  H273  1  0.85006890  0.46100447  0.82764708  1
  H+  H274  1  0.13343432  0.35766450  0.83612601  1
  H+  H275  1  0.00171000  0.86709272  0.32863747  1
  H+  H276  1  0.89195778  0.60641918  0.80359981  1
  H+  H277  1  0.39333725  0.12802440  0.49407587  1
  H+  H278  1  0.64185857  0.86157639  0.51898310  1
  H+  H279  1  0.62558642  0.48067408  0.35258637  1
  H+  H280  1  0.08976407  0.43293931  -0.00702152  1
  H+  H281  1  0.26796517  0.63766545  0.32714769  1
  H+  H282  1  0.85055701  -0.02534841  0.65250305  1
  H+  H283  1  0.14455056  0.82816621  0.21682857  1
  H+  H284  1  0.75767410  0.61305874  0.33443969  1
  H+  H285  1  0.06464048  0.38592755  0.35396329  1
  H+  H286  1  0.39148774  0.10375960  0.67001036  1
  H+  H287  1  0.27024240  0.62761998  0.16283028  1
  H+  H288  1  0.45663010  0.25886585  0.60642699  1
  H+  H289  1  0.07182775  0.66162770  0.38593241  1
  H+  H290  1  0.33109549  0.42992610  0.73141769  1
  H+  H291  1  0.71340434  0.82754358  1.01149133  1
  H+  H292  1  0.42855366  0.83339474  0.91530625  1
  H+  H293  1  0.67208037  0.83111609  0.57948183  1
  H+  H294  1  0.31222737  0.16627433  0.38716317  1
  H+  H295  1  0.63991197  0.62452801  0.98756552  1
  H+  H296  1  0.48385892  0.10811659  0.66809708  1
  H+  H297  1  0.66703587  0.81746532  0.24052007  1
  H+  H298  1  0.27726415  0.38068903  0.32686935  1
  H+  H299  1  0.91575056  0.56864193  0.55573290  1
  H+  H300  1  0.68075486  0.07295258  0.27235213  1
  H+  H301  1  0.30769478  0.65494474  0.42154917  1
  H+  H302  1  0.82892868  0.40991032  0.73276063  1
  H+  H303  1  0.21062392  0.93777043  0.61488710  1
  H+  H304  1  0.85055148  0.61997717  0.32713776  1
  H+  H305  1  1.06844088  0.67269900  0.93268724  1
  H+  H306  1  0.91105232  0.31485934  0.90997307  1
  H+  H307  1  0.38120997  0.11608988  0.18148764  1
  H+  H308  1  0.91991553  0.32687150  0.60549420  1
  H+  H309  1  0.40920447  0.59296991  0.89936154  1
  H+  H310  1  0.92409813  0.86378839  0.92640581  1
  H+  H311  1  0.58636776  0.14666347  0.39657332  1
  H+  H312  1  0.07067463  0.39552631  0.09805569  1
  H+  H313  1  0.15436894  0.82756573  0.55355628  1
  H+  H314  1  0.88990498  0.11807396  0.49606660  1
  H+  H315  1  0.41890249  0.08644231  0.26961841  1
  H+  H316  1  0.79806795  0.88741649  0.07856127  1
  H+  H317  1  0.38270810  0.12862065  0.99810700  1
  H+  H318  1  0.20798398  0.70469397  0.79384101  1
  H+  H319  1  0.82280933  0.63126088  0.71363194  1
  H+  H320  1  0.43172347  0.05222617  0.56875491  1
  H+  H321  1  0.33110607  0.16171693  0.07637514  1
  H+  H322  1  0.66473229  0.33403515  0.90123928  1
  H+  H323  1  0.18410267  0.33323381  0.59359501  1
  H+  H324  1  0.75168313  0.11746649  0.18867635  1
  H+  H325  1  0.48236526  0.64538992  0.98596583  1
  H+  H326  1  0.42365708  0.34547017  0.55929982  1
  H+  H327  1  0.85521465  0.21419290  0.33849901  1
  H+  H328  1  0.59703814  0.91171801  0.43565247  1
  H+  H329  1  0.91387335  0.57861831  0.21596399  1
  H+  H330  1  0.11965739  0.18151891  0.73298187  1
  H+  H331  1  0.42156135  0.83828221  0.26347110  1
  H+  H332  1  0.64635396  0.57703052  0.89786426  1
  H+  H333  1  0.32891800  0.66442722  0.07367204  1
  H+  H334  1  0.42042992  0.57928173  0.22334955  1
  H+  H335  1  0.97005895  0.44238809  0.23300439  1
  H+  H336  1  0.82951820  0.15969589  0.42896215  1
  H+  H337  1  0.19545873  0.86059314  0.90158963  1
  H+  H338  1  0.14190490  0.35429928  0.15497159  1
  H+  H339  1  0.35186997  0.94703784  0.77142835  1
  H+  H340  1  0.62395351  0.97300672  0.34040023  1
  H+  H341  1  0.83023083  0.65549272  0.08661326  1
  H+  H342  1  0.07314607  0.93871687  0.78006928  1
  H+  H343  1  0.17974971  0.31846044  0.23858403  1
  H+  H344  1  0.91811816  0.81936912  0.22432253  1
  H+  H345  1  0.43674101  0.37964429  0.90582143  1
  H+  H346  1  0.30968455  0.90861310  0.38389988  1
  H+  H347  1  0.83287022  0.17929061  0.10768816  1
  H+  H348  1  0.15879889  0.07420669  0.23022331  1
  H+  H349  1  0.82554861  0.63306608  0.41902698  1
  H+  H350  1  0.34351209  0.87722318  0.46592656  1
  H+  H351  1  0.37452514  0.77060606  0.46550370  1
  H+  H352  1  0.64636478  0.79459774  0.92740541  1
  H+  H353  1  0.68183456  0.35528500  0.22526382  1
  H+  H354  1  0.92415348  0.32172290  0.23115610  1
  H+  H355  1  0.93636391  0.10820072  0.55519296  1
  H+  H356  1  0.59886991  0.70169891  0.05260634  1
  H+  H357  1  0.72120501  0.35475270  0.99465448  1
  H+  H358  1  0.01611774  0.62640355  0.14730825  1
  H+  H359  1  0.79661167  0.74062232  0.77828406  1
  H+  H360  1  0.04524243  0.85849944  0.41681478  1
  H+  H361  1  0.93030120  0.08456677  0.21769095  1
  H+  H362  1  0.92554877  0.55101835  0.94132627  1
  H+  H363  1  0.98450407  0.88620586  1.01376818  1
  H+  H364  1  0.58184382  0.40965246  0.73006678  1
  H+  H365  1  0.33098537  0.42272647  0.42997703  1
  H+  H366  1  0.12239089  0.13586364  0.04816272  1
  H+  H367  1  0.15323831  0.55624109  0.92689443  1
  H+  H368  1  0.32988019  0.93418519  0.07283288  1
  H+  H369  1  0.84193395  0.16341118  0.73411028  1
  H+  H370  1  0.66956217  0.59335939  0.21410092  1
  H+  H371  1  0.43831573  0.34788798  0.27498552  1
  H+  H372  1  0.35596801  0.63380703  0.33125870  1
  H+  H373  1  0.57264499  0.18629424  0.10119392  1
  H+  H374  1  0.79974434  0.87284468  0.79411465  1
  H+  H375  1  0.59005730  0.42623278  0.05546444  1
  H+  H376  1  0.34360143  0.43665574  0.08207203  1
  H+  H377  1  0.10726486  0.69251569  0.72315377  1
  H+  H378  1  0.05311422  0.14141554  0.82312869  1
  H+  H379  1  0.10033214  0.90737362  0.07579394  1
  H+  H380  1  0.23187601  0.10205802  0.66517839  1
  H+  H381  1  0.62597376  0.39940883  0.15105632  1
  H+  H382  1  0.57593010  0.51688789  0.28633785  1
  H+  H383  1  0.41656276  0.83457791  0.61393923  1
  O2-  O384  1  0.09620602  0.15665410  0.12478529  1
  O2-  O385  1  0.08637464  0.18533689  0.46817856  1
  O2-  O386  1  0.11397893  0.17439153  0.81298144  1
  O2-  O387  1  0.08189334  0.40414552  0.14257889  1
  O2-  O388  1  0.07598141  0.41842575  0.48888215  1
  O2-  O389  1  0.06372752  0.40423309  0.81572302  1
  O2-  O390  1  0.07721093  0.65828313  0.13122501  1
  O2-  O391  1  0.07653617  0.65346570  0.46875460  1
  O2-  O392  1  0.15879337  0.71385781  0.79171621  1
  O2-  O393  1  0.10001054  0.85643318  0.14534988  1
  O2-  O394  1  0.03156260  0.82749787  0.45693606  1
  O2-  O395  1  0.07902816  0.94389394  0.82464230  1
  O2-  O396  1  0.32883170  0.15972084  0.15582665  1
  O2-  O397  1  0.31595917  0.23754731  0.44071078  1
  O2-  O398  1  0.33824194  0.17572145  0.81653380  1
  O2-  O399  1  0.34148844  0.42546362  0.12735609  1
  O2-  O400  1  0.33017261  0.42680478  0.47524255  1
  O2-  O401  1  0.33754674  0.42854544  0.80967892  1
  O2-  O402  1  0.33161569  0.66297442  0.14985193  1
  O2-  O403  1  0.31152581  0.66247829  0.46709188  1
  O2-  O404  1  0.30285476  0.65220267  0.82253709  1
  O2-  O405  1  0.32507684  0.92369520  0.14793339  1
  O2-  O406  1  0.31374690  0.91089572  0.46123120  1
  O2-  O407  1  0.35520324  0.95425968  0.81719121  1
  O2-  O408  1  0.57585497  0.19501741  0.14593532  1
  O2-  O409  1  0.59413230  0.16103625  0.47809343  1
  O2-  O410  1  0.57772986  0.17007711  0.81326122  1
  O2-  O411  1  0.59377134  0.42612274  0.13223368  1
  O2-  O412  1  0.59509323  0.41913067  0.48295421  1
  O2-  O413  1  0.58102942  0.40868106  0.80813218  1
  O2-  O414  1  0.58930823  0.67767240  0.12939519  1
  O2-  O415  1  0.60794466  0.67831856  0.49043752  1
  O2-  O416  1  0.56398517  0.65926561  0.81266039  1
  O2-  O417  1  0.61302663  0.92589296  0.15392479  1
  O2-  O418  1  0.58903919  0.90739874  0.48093310  1
  O2-  O419  1  0.57583984  0.90210267  0.81383006  1
  O2-  O420  1  0.85137452  0.17893475  0.15047143  1
  O2-  O421  1  0.83170476  0.16238683  0.47456512  1
  O2-  O422  1  0.82860481  0.16144742  0.80640570  1
  O2-  O423  1  0.83856363  0.40511404  0.14416572  1
  O2-  O424  1  0.83227614  0.40579785  0.48438139  1
  O2-  O425  1  0.82140979  0.40233965  0.81221972  1
  O2-  O426  1  0.82689000  0.65333414  0.13250156  1
  O2-  O427  1  0.83348507  0.63419882  0.46595547  1
  O2-  O428  1  0.79993160  0.70381975  0.81076555  1
  O2-  O429  1  0.82609980  0.91458598  0.14049220  1
  O2-  O430  1  0.84032682  0.92501785  0.48416272  1
  O2-  O431  1  0.79970876  0.88830888  0.83776337  1
  O2-  O432  1  0.17216842  0.08005591  0.18591156  1
  O2-  O433  1  0.21168601  0.18834916  0.53936800  1
  O2-  O434  1  0.18341866  0.09878417  0.87062903  1
  O2-  O435  1  0.17588009  0.32522447  0.16466830  1
  O2-  O436  1  0.16811902  0.34140071  0.52095389  1
  O2-  O437  1  0.17305795  0.33863092  0.85113959  1
  O2-  O438  1  0.16208175  0.57290883  0.17951154  1
  O2-  O439  1  0.15851365  0.58417012  0.52358817  1
  O2-  O440  1  0.14362630  0.55488957  0.88175143  1
  O2-  O441  1  0.15224014  0.82758623  0.17089577  1
  O2-  O442  1  0.15259942  0.81700831  0.50966440  1
  O2-  O443  1  0.20748370  0.86939269  0.85683269  1
  O2-  O444  1  0.41597627  0.08869399  0.19449907  1
  O2-  O445  1  0.44883176  0.03858778  0.52967848  1
  O2-  O446  1  0.41705286  0.10166973  0.85904011  1
  O2-  O447  1  0.42096539  0.33111563  0.12217090  1
  O2-  O448  1  0.43826029  0.37286520  0.51878214  1
  O2-  O449  1  0.41610046  0.33764374  0.81508850  1
  O2-  O450  1  0.42337994  0.58346335  0.17823194  1
  O2-  O451  1  0.39403895  0.59324482  0.51575781  1
  O2-  O452  1  0.40311808  0.58709400  0.85378557  1
  O2-  O453  1  0.41337449  0.83701020  0.16283831  1
  O2-  O454  1  0.41218754  0.83385663  0.45810264  1
  O2-  O455  1  0.42432899  0.82641219  0.87080630  1
  O2-  O456  1  0.69247267  0.08225577  0.20493228  1
  O2-  O457  1  0.67346499  0.07549998  0.52526917  1
  O2-  O458  1  0.66585703  0.08516202  0.82808302  1
  O2-  O459  1  0.67619402  0.34999328  0.18065836  1
  O2-  O460  1  0.66373793  0.32107819  0.52356348  1
  O2-  O461  1  0.66545551  0.33330302  0.85513690  1
  O2-  O462  1  0.67022938  0.59279349  0.16935103  1
  O2-  O463  1  0.68835012  0.58825484  0.51914401  1
  O2-  O464  1  0.64154297  0.57417267  0.85190486  1
  O2-  O465  1  0.67390644  0.82617209  0.19567716  1
  O2-  O466  1  0.67579206  0.83486838  0.53384679  1
  O2-  O467  1  0.64921661  0.80371131  0.87548705  1
  O2-  O468  1  0.93155957  0.08861155  0.17269668  1
  O2-  O469  1  0.92396951  0.09120595  0.51087091  1
  O2-  O470  1  0.81248266  0.03641434  0.88267318  1
  O2-  O471  1  0.93103323  0.34152149  0.18928598  1
  O2-  O472  1  0.91229561  0.31905616  0.52983203  1
  O2-  O473  1  0.91371983  0.32004827  0.85886555  1
  O2-  O474  1  0.91608730  0.57470928  0.17077961  1
  O2-  O475  1  0.91094292  0.56427634  0.51044027  1
  O2-  O476  1  1.05156957  0.65236147  0.89008187  1
  O2-  O477  1  0.93584879  0.82521251  0.18158533  1
  O2-  O478  1  0.94838803  0.88555237  0.53625971  1
  O2-  O479  1  0.91678534  0.85995242  0.87870156  1
  O2-  O480  1  0.14499523  0.06492013  0.30838326  1
  O2-  O481  1  0.17553680  0.08304454  0.64461546  1
  O2-  O482  1  0.17655846  0.09003322  0.99219762  1
  O2-  O483  1  0.17611148  0.31840199  0.28490344  1
  O2-  O484  1  0.18931777  0.33293150  0.63979476  1
  O2-  O485  1  0.18961320  0.34869863  0.97669777  1
  O2-  O486  1  0.16891950  0.59174590  0.30495088  1
  O2-  O487  1  0.15176850  0.57475199  0.65412990  1
  O2-  O488  1  0.16599412  0.57933210  1.00279158  1
  O2-  O489  1  0.14919769  0.82599451  0.29267007  1
  O2-  O490  1  0.19076941  0.88392488  0.63708760  1
  O2-  O491  1  0.17552936  0.84937397  0.97756555  1
  O2-  O492  1  0.41822085  0.08053355  0.31525973  1
  O2-  O493  1  0.42305721  0.07603694  0.65235279  1
  O2-  O494  1  0.41033776  0.09754778  0.97829565  1
  O2-  O495  1  0.46166402  0.39752947  0.30196221  1
  O2-  O496  1  0.43469962  0.29109399  0.62830656  1
  O2-  O497  1  0.44990265  0.41326503  0.94323942  1
  O2-  O498  1  0.40908055  0.58245567  0.30615859  1
  O2-  O499  1  0.40153847  0.58889274  0.64355625  1
  O2-  O500  1  0.42116167  0.61232076  0.97407915  1
  O2-  O501  1  0.41710829  0.83219473  0.30797406  1
  O2-  O502  1  0.41809220  0.83119224  0.65815690  1
  O2-  O503  1  0.42506692  0.86199946  1.00084208  1
  O2-  O504  1  0.67584984  0.06871484  0.31958399  1
  O2-  O505  1  0.67419001  0.07547193  0.65292831  1
  O2-  O506  1  0.62112853  0.05810125  0.99742427  1
  O2-  O507  1  0.71046594  0.38930409  0.30374164  1
  O2-  O508  1  0.66269285  0.32414959  0.64625007  1
  O2-  O509  1  0.66283119  0.33254455  0.97592995  1
  O2-  O510  1  0.63050418  0.56618122  0.30009216  1
  O2-  O511  1  0.65780108  0.57110188  0.64031995  1
  O2-  O512  1  0.66352779  0.58954102  0.97115629  1
  O2-  O513  1  0.66106380  0.81735592  0.31892415  1
  O2-  O514  1  0.66057187  0.81455516  0.65724358  1
  O2-  O515  1  0.64439729  0.78999192  0.98703065  1
  O2-  O516  1  0.91351656  0.06981101  0.30297990  1
  O2-  O517  1  0.96465605  0.14683964  0.62391427  1
  O2-  O518  1  0.84695098  0.02841469  0.99457680  1
  O2-  O519  1  0.98911767  0.48603812  0.26574171  1
  O2-  O520  1  0.92195189  0.33325503  0.65128457  1
  O2-  O521  1  0.91080526  0.31012797  0.97133759  1
  O2-  O522  1  0.89989416  0.58330125  0.29568161  1
  O2-  O523  1  0.91980556  0.57084960  0.63532786  1
  O2-  O524  1  0.91661593  0.55732616  0.98431374  1
  O2-  O525  1  0.89776612  0.81566402  0.31042347  1
  O2-  O526  1  0.91193788  0.82324570  0.65111964  1
  O2-  O527  1  0.92931399  0.86305041  0.99176615  1
  O2-  O528  1  0.12692360  0.13312860  0.00316401  1
  O2-  O529  1  0.07846372  0.15570700  0.34576713  1
  O2-  O530  1  0.11867327  0.18316906  0.68761947  1
  O2-  O531  1  0.06040792  0.37972482  0.01608238  1
  O2-  O532  1  0.07490210  0.44099809  0.36891935  1
  O2-  O533  1  0.06781213  0.42241014  0.70418958  1
  O2-  O534  1  0.08752634  0.67142791  0.01207097  1
  O2-  O535  1  0.06893657  0.66442549  0.34089629  1
  O2-  O536  1  0.08460863  0.67793173  0.68052254  1
  O2-  O537  1  0.09459305  0.91945191  0.03235144  1
  O2-  O538  1  0.06193964  0.89765695  0.34506932  1
  O2-  O539  1  0.07415868  0.92575347  0.69467406  1
  O2-  O540  1  0.33973721  0.17964343  0.03275145  1
  O2-  O541  1  0.29563818  0.12165742  0.35517826  1
  O2-  O542  1  0.33200949  0.14662191  0.69830261  1
  O2-  O543  1  0.34806439  0.45184854  0.00833079  1
  O2-  O544  1  0.33202155  0.41913362  0.34839803  1
  O2-  O545  1  0.33123951  0.42690209  0.68570009  1
  O2-  O546  1  0.31952892  0.66324520  0.02859615  1
  O2-  O547  1  0.32769376  0.66666324  0.34566169  1
  O2-  O548  1  0.31442034  0.66251539  0.69767175  1
  O2-  O549  1  0.33461301  0.93726311  0.02704106  1
  O2-  O550  1  0.31183935  0.90617988  0.33830597  1
  O2-  O551  1  0.33862428  0.92315289  0.69791437  1
  O2-  O552  1  0.57404835  0.17328521  0.02110524  1
  O2-  O553  1  0.58498757  0.13622698  0.35221521  1
  O2-  O554  1  0.58611106  0.15797899  0.69287037  1
  O2-  O555  1  0.58888792  0.42781253  0.00987878  1
  O2-  O556  1  0.59984260  0.41959007  0.36406935  1
  O2-  O557  1  0.58144231  0.40868918  0.68408196  1
  O2-  O558  1  0.59940980  0.69946261  0.00650565  1
  O2-  O559  1  0.57303134  0.65845627  0.35940264  1
  O2-  O560  1  0.56519104  0.64359917  0.68715941  1
  O2-  O561  1  0.48959860  0.89333761  0.04444250  1
  O2-  O562  1  0.58983132  0.91072554  0.35596187  1
  O2-  O563  1  0.58301268  0.90831179  0.69068133  1
  O2-  O564  1  0.79321358  0.18550882  0.03687449  1
  O2-  O565  1  0.83335880  0.15529142  0.35217733  1
  O2-  O566  1  0.84242615  0.16364600  0.68782223  1
  O2-  O567  1  0.82047623  0.39010060  0.02464006  1
  O2-  O568  1  0.78971060  0.42414503  0.33069360  1
  O2-  O569  1  0.83127090  0.40887931  0.68731081  1
  O2-  O570  1  0.83083524  0.65088175  0.01149340  1
  O2-  O571  1  0.81609766  0.64275250  0.35103919  1
  O2-  O572  1  0.82381058  0.64281991  0.67018347  1
  O2-  O573  1  0.78744528  0.87484320  0.03119780  1
  O2-  O574  1  0.82600096  0.90907697  0.35543681  1
  O2-  O575  1  0.78919181  0.81928456  0.72774259  1
