# generated using pymatgen
data_H2O
_symmetry_space_group_name_H-M   'P 1'
_cell_length_a   17.97630217
_cell_length_b   17.98209265
_cell_length_c   21.98432112
_cell_angle_alpha   90.01272458
_cell_angle_beta   89.99274579
_cell_angle_gamma   119.98280352
_symmetry_Int_Tables_number   1
_chemical_formula_structural   H2O
_chemical_formula_sum   'H384 O192'
_cell_volume   6155.44564119
_cell_formula_units_Z   192
loop_
 _symmetry_equiv_pos_site_id
 _symmetry_equiv_pos_as_xyz
  1  'x, y, z'
loop_
 _atom_type_symbol
 _atom_type_oxidation_number
  H+  1.0
  O2-  -2.0
loop_
 _atom_site_type_symbol
 _atom_site_label
 _atom_site_symmetry_multiplicity
 _atom_site_fract_x
 _atom_site_fract_y
 _atom_site_fract_z
 _atom_site_occupancy
  H+  H0  1  0.54732710  0.40267382  0.01605822  1
  H+  H1  1  0.59738530  0.12351663  0.34084911  1
  H+  H2  1  0.12009902  0.71546640  0.66807968  1
  H+  H3  1  0.61792354  0.84638039  0.49952463  1
  H+  H4  1  0.14019098  0.36839619  0.17109571  1
  H+  H5  1  0.87791661  0.73462598  0.82572232  1
  H+  H6  1  0.88891308  0.36773408  0.82778102  1
  H+  H7  1  0.23324365  0.84260392  1.00730758  1
  H+  H8  1  0.60370371  0.22409733  0.82146400  1
  H+  H9  1  0.36414128  0.47575007  0.16308548  1
  H+  H10  1  0.15285237  0.27770566  0.32083418  1
  H+  H11  1  0.14835225  0.51708788  0.65132285  1
  H+  H12  1  0.22881266  0.36614260  0.16894961  1
  H+  H13  1  0.64396727  0.87861281  0.17118454  1
  H+  H14  1  0.47298617  0.10883790  0.18097943  1
  H+  H15  1  0.07962109  0.78270158  0.35431975  1
  H+  H16  1  0.28014852  0.13979005  0.33674043  1
  H+  H17  1  0.42223438  0.32037718  0.83435668  1
  H+  H18  1  0.21345194  0.36976015  0.84323467  1
  H+  H19  1  0.51249910  0.62344012  0.50624182  1
  H+  H20  1  0.66754297  0.83874537  0.26553998  1
  H+  H21  1  0.86824145  0.74937744  0.50788771  1
  H+  H22  1  0.47843216  0.88323946  0.99311847  1
  H+  H23  1  0.58900640  0.66303508  0.06425977  1
  H+  H24  1  0.21891415  0.37416769  0.99975376  1
  H+  H25  1  0.13978754  0.61552885  0.84097593  1
  H+  H26  1  0.11374496  0.41047617  0.00958179  1
  H+  H27  1  0.36562062  0.40293387  0.66070074  1
  H+  H28  1  0.48483740  0.35933216  0.31758791  1
  H+  H29  1  0.38165988  0.12649032  0.32762148  1
  H+  H30  1  0.86585463  0.88689751  0.16446049  1
  H+  H31  1  0.32191139  0.96554871  0.50462850  1
  H+  H32  1  0.84755717  0.14063621  0.82171991  1
  H+  H33  1  0.65212001  0.87756468  0.66113938  1
  H+  H34  1  0.92059380  0.84990243  0.40181678  1
  H+  H35  1  0.35130713  0.11993985  0.00699254  1
  H+  H36  1  0.37110828  0.23218350  0.33372915  1
  H+  H37  1  0.56349908  0.67552617  0.81283334  1
  H+  H38  1  0.86781495  0.23582341  -0.00281044  1
  H+  H39  1  0.35754567  0.87868558  1.00723308  1
  H+  H40  1  0.12830862  0.28783218  -0.00485263  1
  H+  H41  1  0.66250836  0.53611066  0.80833749  1
  H+  H42  1  0.88781759  0.03130056  0.99155069  1
  H+  H43  1  0.38828738  0.85370200  0.33383751  1
  H+  H44  1  0.26030463  0.11746470  1.00835236  1
  H+  H45  1  0.41856179  0.58681015  0.89052563  1
  H+  H46  1  -0.00972243  0.15170780  0.32309996  1
  H+  H47  1  0.76574623  0.63071213  0.49808121  1
  H+  H48  1  1.02936767  0.89115136  0.16764177  1
  H+  H49  1  0.87199045  0.10720781  0.17410395  1
  H+  H50  1  0.14116747  0.83670767  0.85063400  1
  H+  H51  1  0.05566756  0.39066519  0.30919225  1
  H+  H52  1  0.59795568  0.09901175  0.65624400  1
  H+  H53  1  0.61869027  0.00367790  0.33064523  1
  H+  H54  1  0.33467229  0.36836134  1.00600942  1
  H+  H55  1  0.38718891  0.27374820  0.17110859  1
  H+  H56  1  0.70825542  0.08764939  0.33642391  1
  H+  H57  1  0.95322243  0.24694329  0.28796506  1
  H+  H58  1  0.10188750  0.38255581  0.82092879  1
  H+  H59  1  0.87724611  1.02180069  0.18416097  1
  H+  H60  1  0.87960401  0.62695674  0.32209851  1
  H+  H61  1  0.21133106  0.07905325  0.83343967  1
  H+  H62  1  0.78554096  0.64841975  0.81796398  1
  H+  H63  1  0.88235094  0.84596143  0.65565353  1
  H+  H64  1  0.63535405  0.27785967  0.65746708  1
  H+  H65  1  0.63173413  0.27388459  0.33005071  1
  H+  H66  1  0.74856369  0.89248148  0.83656903  1
  H+  H67  1  0.36863550  0.10307476  0.65783871  1
  H+  H68  1  0.34118016  0.46161861  0.82556400  1
  H+  H69  1  0.60132433  0.11999440  0.01358980  1
  H+  H70  1  0.73026107  0.87062091  0.17035556  1
  H+  H71  1  0.14659262  0.52579518  0.16282601  1
  H+  H72  1  0.39410821  0.36028098  0.32650439  1
  H+  H73  1  0.08081113  0.42709141  0.20092056  1
  H+  H74  1  0.14949868  0.02268641  0.32433663  1
  H+  H75  1  0.10602838  0.25004043  0.84053026  1
  H+  H76  1  0.76158102  0.86930082  0.65677522  1
  H+  H77  1  0.37494165  0.47832708  0.34281534  1
  H+  H78  1  0.97203845  0.63906152  0.32419538  1
  H+  H79  1  0.86314653  0.00192272  0.81345202  1
  H+  H80  1  0.40068377  0.31089257  0.64674618  1
  H+  H81  1  0.76602515  0.87007023  0.49860160  1
  H+  H82  1  0.84428448  0.36578393  0.00625185  1
  H+  H83  1  0.62691323  0.39205175  0.49778323  1
  H+  H84  1  0.12055319  0.89669482  0.17244854  1
  H+  H85  1  0.62997782  0.50909013  0.32434578  1
  H+  H86  1  0.99046136  0.63849101  0.50419150  1
  H+  H87  1  0.63429231  0.60524817  0.81528641  1
  H+  H88  1  0.47453146  0.61269354  0.17722396  1
  H+  H89  1  0.11182584  0.05050187  0.82474967  1
  H+  H90  1  0.32493999  0.65686178  0.39499840  1
  H+  H91  1  0.38341741  0.11064102  0.17674673  1
  H+  H92  1  0.73088737  0.12505574  0.98856324  1
  H+  H93  1  0.14871434  0.12412725  0.16980517  1
  H+  H94  1  0.77517630  0.63450106  0.67700084  1
  H+  H95  1  0.37387724  0.98860331  0.67606981  1
  H+  H96  1  0.66216081  0.65294104  0.18883868  1
  H+  H97  1  0.88722868  0.87674223  0.34494408  1
  H+  H98  1  0.82716897  0.17118369  0.68753796  1
  H+  H99  1  0.33031866  0.18853287  0.81836574  1
  H+  H100  1  0.62116888  0.36063136  0.32198163  1
  H+  H101  1  0.82427488  0.19186802  0.37614262  1
  H+  H102  1  0.35868798  0.38421722  0.16168652  1
  H+  H103  1  0.62757897  0.71322289  1.00405224  1
  H+  H104  1  0.35857703  0.97171287  0.16610296  1
  H+  H105  1  0.89129071  0.61425007  0.83248247  1
  H+  H106  1  0.97811765  0.86966531  0.99865202  1
  H+  H107  1  0.38684956  0.86217239  0.17675666  1
  H+  H108  1  0.60589113  0.89296727  0.00516305  1
  H+  H109  1  0.98937029  0.84800744  0.84389254  1
  H+  H110  1  0.37384343  0.72859828  0.16393260  1
  H+  H111  1  0.48192211  0.86228747  0.83506314  1
  H+  H112  1  0.35841607  0.39238954  0.49356203  1
  H+  H113  1  0.13414259  0.59941413  0.66050190  1
  H+  H114  1  0.18151228  0.33356508  0.25857833  1
  H+  H115  1  0.70031556  0.07849189  0.51090663  1
  H+  H116  1  0.38755553  0.52216202  0.50669525  1
  H+  H117  1  0.63753330  0.61613433  0.66324370  1
  H+  H118  1  0.89081013  0.77119765  0.17701711  1
  H+  H119  1  0.64586456  0.77735872  0.32404977  1
  H+  H120  1  0.84168265  0.67022173  0.73497648  1
  H+  H121  1  0.76055555  0.63351842  0.34181493  1
  H+  H122  1  0.62886328  0.11218621  0.83774006  1
  H+  H123  1  0.32362831  0.90859240  0.10850497  1
  H+  H124  1  0.11430476  0.13550760  0.33989007  1
  H+  H125  1  0.14601821  0.39861120  0.32008608  1
  H+  H126  1  0.89268934  0.52170042  0.16985467  1
  H+  H127  1  0.62037995  0.55462320  0.17004789  1
  H+  H128  1  0.84680685  0.72835225  0.35186762  1
  H+  H129  1  0.65763792  1.00063771  0.67971115  1
  H+  H130  1  0.40375655  0.07674210  0.59902662  1
  H+  H131  1  0.88599974  0.07622671  0.52147982  1
  H+  H132  1  0.02736701  0.63237538  0.67248146  1
  H+  H133  1  0.63855634  0.52597049  0.65748631  1
  H+  H134  1  0.60332407  0.75268308  0.15120217  1
  H+  H135  1  0.19300932  0.83824392  0.58918722  1
  H+  H136  1  1.03564785  0.63968010  0.15160789  1
  H+  H137  1  0.47311515  0.11503987  0.32768012  1
  H+  H138  1  0.58622315  0.95349125  0.49171475  1
  H+  H139  1  0.49659698  0.86640832  0.65336783  1
  H+  H140  1  0.08470160  0.90637344  0.07477946  1
  H+  H141  1  1.02841339  0.41200611  0.49597478  1
  H+  H142  1  0.64117777  0.52810761  0.51801437  1
  H+  H143  1  0.62361949  0.89649950  0.83098335  1
  H+  H144  1  0.78623840  0.37566608  0.16896630  1
  H+  H145  1  0.97559294  0.37917115  0.98830155  1
  H+  H146  1  0.78623099  0.39239133  0.79816631  1
  H+  H147  1  0.63500112  0.10983019  0.17968978  1
  H+  H148  1  0.23287149  0.84497108  0.85432213  1
  H+  H149  1  0.83807369  0.42083062  0.71182249  1
  H+  H150  1  -0.03015664  0.35580232  0.82713183  1
  H+  H151  1  0.32614196  0.41974493  0.72259643  1
  H+  H152  1  0.51508987  0.39940972  0.65193611  1
  H+  H153  1  0.44857449  0.57905514  0.82437574  1
  H+  H154  1  0.61534816  0.98251887  0.16321502  1
  H+  H155  1  0.86409255  0.84383306  0.51284146  1
  H+  H156  1  0.23804813  0.09340802  0.66598916  1
  H+  H157  1  1.01029362  0.13845997  0.66956097  1
  H+  H158  1  0.51097135  0.14174140  0.67215089  1
  H+  H159  1  0.88884052  0.15016280  0.65079826  1
  H+  H160  1  0.48729152  0.88056727  0.68334638  1
  H+  H161  1  0.12155754  0.93943580  0.82206967  1
  H+  H162  1  0.35541910  0.62558433  0.82733343  1
  H+  H163  1  0.36572957  0.64075632  0.67313265  1
  H+  H164  1  0.60421339  0.21792723  0.49342655  1
  H+  H165  1  0.65819901  0.60411532  0.99817170  1
  H+  H166  1  0.13248984  0.97929038  0.47986584  1
  H+  H167  1  0.38648546  0.60921469  0.18117187  1
  H+  H168  1  0.70720483  0.46780219  0.13749062  1
  H+  H169  1  0.12235961  0.73328302  0.32688572  1
  H+  H170  1  0.23212697  0.85807196  0.65614950  1
  H+  H171  1  0.33464172  0.83056478  0.64798582  1
  H+  H172  1  0.75083930  0.40933739  0.35162551  1
  H+  H173  1  0.88065549  0.75489582  0.66040172  1
  H+  H174  1  0.86537351  0.37507054  0.31891422  1
  H+  H175  1  0.89966632  0.31499631  0.51095418  1
  H+  H176  1  0.12225857  -0.01396411  0.65156394  1
  H+  H177  1  0.88450270  0.37984626  0.35034115  1
  H+  H178  1  0.28920653  0.63627018  0.00834774  1
  H+  H179  1  0.62047149  0.98930453  0.00595265  1
  H+  H180  1  0.46040276  0.87073740  0.50598037  1
  H+  H181  1  0.28480545  0.64032258  0.15838163  1
  H+  H182  1  0.92253146  0.05525926  0.68720734  1
  H+  H183  1  0.36153720  0.71886622  0.33660535  1
  H+  H184  1  0.67013556  0.45588996  0.15879570  1
  H+  H185  1  0.99443488  0.36573219  0.14916838  1
  H+  H186  1  0.01929401  0.85559750  0.67142528  1
  H+  H187  1  0.39195303  0.53371053  0.65963876  1
  H+  H188  1  0.35211444  0.23843009  0.98668616  1
  H+  H189  1  0.78325434  0.89388367  1.01207217  1
  H+  H190  1  0.65642438  0.35234435  0.17869048  1
  H+  H191  1  0.84897017  0.22875918  0.81951846  1
  H+  H192  1  0.91903771  0.83208885  0.23517814  1
  H+  H193  1  0.85991268  0.13270066  0.35363351  1
  H+  H194  1  0.86819284  0.63695423  0.16171263  1
  H+  H195  1  0.14505138  0.75596542  0.49157254  1
  H+  H196  1  0.08990846  0.87739779  0.76400114  1
  H+  H197  1  0.12100597  0.25865398  0.68272359  1
  H+  H198  1  0.60992374  0.21449679  0.16879094  1
  H+  H199  1  0.72104910  0.11837079  0.83472948  1
  H+  H200  1  0.51583416  0.86928567  0.34017552  1
  H+  H201  1  0.34148246  -0.04096344  1.00904135  1
  H+  H202  1  0.22455453  0.39439030  0.65803527  1
  H+  H203  1  0.27054336  0.62762301  0.67381556  1
  H+  H204  1  0.89626971  0.62892777  0.50410523  1
  H+  H205  1  0.67291636  0.79739661  0.84138139  1
  H+  H206  1  0.51871777  0.71562691  0.11244025  1
  H+  H207  1  0.14196139  0.11367457  0.50221836  1
  H+  H208  1  0.02458108  0.14414584  -0.00342280  1
  H+  H209  1  0.89546452  0.40107677  0.50276205  1
  H+  H210  1  0.77741059  0.89764253  0.32442274  1
  H+  H211  1  0.03144254  0.87916860  0.34318548  1
  H+  H212  1  0.89430094  0.61718720  0.66116918  1
  H+  H213  1  0.38447349  1.00944513  0.84483702  1
  H+  H214  1  0.86774544  0.49579716  0.50008821  1
  H+  H215  1  0.50202971  0.63512787  0.97745018  1
  H+  H216  1  0.77212647  0.13863392  0.15324476  1
  H+  H217  1  0.83734754  0.16175560  0.52584142  1
  H+  H218  1  0.55549124  0.41193323  0.80432040  1
  H+  H219  1  0.53643259  0.64690763  0.33867855  1
  H+  H220  1  0.31417435  0.19011665  0.67407101  1
  H+  H221  1  0.12002930  0.71576438  0.83027629  1
  H+  H222  1  0.46059107  0.09127217  0.99950959  1
  H+  H223  1  0.14415343  0.03254572  0.17424949  1
  H+  H224  1  0.37108416  0.24231978  0.49450585  1
  H+  H225  1  0.86515121  -0.02475886  0.30041804  1
  H+  H226  1  0.87697442  0.38356917  0.15366702  1
  H+  H227  1  0.60940578  0.87673667  0.34254185  1
  H+  H228  1  0.60786567  0.72102093  0.50210592  1
  H+  H229  1  0.10948059  0.22912241  0.49531469  1
  H+  H230  1  0.11203673  0.14164039  0.99726477  1
  H+  H231  1  0.71353406  0.33430838  1.01014827  1
  H+  H232  1  0.24357755  0.61500791  0.31246171  1
  H+  H233  1  0.64947196  0.36948205  0.80690783  1
  H+  H234  1  0.10969381  0.86822591  0.01794094  1
  H+  H235  1  0.56220258  0.76120487  0.95784577  1
  H+  H236  1  0.32707830  0.36606482  0.81864686  1
  H+  H237  1  0.22891117  0.87251048  0.18997852  1
  H+  H238  1  0.02893944  0.13353340  0.49752202  1
  H+  H239  1  0.86497955  0.22323275  0.14242562  1
  H+  H240  1  0.59289495  0.20291750  0.02067317  1
  H+  H241  1  0.23246900  0.11843948  0.50362157  1
  H+  H242  1  0.55057065  0.00125834  0.63675614  1
  H+  H243  1  0.12823222  0.01130502  0.99745718  1
  H+  H244  1  0.10982054  0.85798623  0.66470140  1
  H+  H245  1  0.59860211  0.12597142  0.49198128  1
  H+  H246  1  0.49905407  0.42663921  0.15682199  1
  H+  H247  1  0.84951089  0.94722639  0.63762494  1
  H+  H248  1  0.15888259  0.64894170  0.98922820  1
  H+  H249  1  1.01715424  0.63512788  0.98400773  1
  H+  H250  1  0.37598619  0.09292553  0.84129870  1
  H+  H251  1  0.86208153  0.95205419  0.50655238  1
  H+  H252  1  0.57138352  0.16520055  0.73106922  1
  H+  H253  1  0.15009692  0.90027859  0.48299206  1
  H+  H254  1  0.51461355  0.13278134  0.82812651  1
  H+  H255  1  0.62108237  0.64126841  0.33538310  1
  H+  H256  1  0.27549443  0.63913535  0.48817992  1
  H+  H257  1  0.14677329  0.61898202  0.16243716  1
  H+  H258  1  0.23553381  0.61936456  0.84418443  1
  H+  H259  1  0.61361905  0.62875365  0.51061220  1
  H+  H260  1  0.28722358  0.38867165  0.33733103  1
  H+  H261  1  0.10808726  0.16351004  0.84480558  1
  H+  H262  1  0.35344170  -0.03787787  0.34798339  1
  H+  H263  1  0.45769518  0.10123595  0.50682074  1
  H+  H264  1  0.13834464  0.54888959  0.99347127  1
  H+  H265  1  0.27552618  0.13558222  0.16376055  1
  H+  H266  1  0.64487491  0.71495097  0.70271314  1
  H+  H267  1  0.18482476  0.58874285  0.24324995  1
  H+  H268  1  0.88392503  0.11879122  0.98815402  1
  H+  H269  1  0.38429659  0.82961258  0.56897799  1
  H+  H270  1  0.83951031  0.49980791  0.35019469  1
  H+  H271  1  0.12032535  0.40538827  0.49706124  1
  H+  H272  1  0.78033217  0.64143867  0.16557263  1
  H+  H273  1  0.42027752  0.64806998  -0.02010879  1
  H+  H274  1  0.79124738  0.64977650  1.00853390  1
  H+  H275  1  0.66348807  0.32907450  0.56519130  1
  H+  H276  1  0.96926359  0.13043551  0.83933786  1
  H+  H277  1  0.72620539  0.36250509  0.50786536  1
  H+  H278  1  0.92571032  0.28577141  0.64326329  1
  H+  H279  1  0.47758407  0.37781288  0.50131957  1
  H+  H280  1  0.36612007  0.87962070  0.82881209  1
  H+  H281  1  0.15372964  0.51668937  0.30452037  1
  H+  H282  1  0.12525657  0.23030778  0.15245539  1
  H+  H283  1  0.22265595  0.37582282  0.50378214  1
  H+  H284  1  0.48276814  0.62213180  0.65894145  1
  H+  H285  1  0.87306196  0.89546028  0.00722396  1
  H+  H286  1  0.05915189  0.37907976  0.65438559  1
  H+  H287  1  0.34254946  0.74553782  0.64637602  1
  H+  H288  1  0.30645219  0.12515543  0.76163410  1
  H+  H289  1  0.36157802  0.63530210  0.48752844  1
  H+  H290  1  0.65223815  0.82754920  0.56110771  1
  H+  H291  1  0.10450968  0.68738704  0.09883121  1
  H+  H292  1  0.17418301  0.08519585  0.26684608  1
  H+  H293  1  0.09622561  0.19967962  0.74206386  1
  H+  H294  1  0.32452739  0.90819135  0.40859248  1
  H+  H295  1  0.56759497  0.45663559  0.10465266  1
  H+  H296  1  0.35764302  0.28576128  0.88911674  1
  H+  H297  1  0.34387710  0.18136012  0.43558468  1
  H+  H298  1  0.90348379  0.81008541  0.57373959  1
  H+  H299  1  0.33189780  0.15826306  0.10311691  1
  H+  H300  1  0.39250304  0.77185905  0.83862309  1
  H+  H301  1  0.41101878  0.08657973  0.26317219  1
  H+  H302  1  0.09226532  0.66158815  0.76683533  1
  H+  H303  1  0.58568140  0.92659289  0.10175705  1
  H+  H304  1  0.94592679  0.58486841  0.93485829  1
  H+  H305  1  0.56840062  0.15608098  0.39940146  1
  H+  H306  1  0.41366279  0.82745792  0.26976229  1
  H+  H307  1  0.41193322  0.32924035  0.23262509  1
  H+  H308  1  0.66720343  0.07802467  0.23652017  1
  H+  H309  1  0.41496441  0.93487774  0.70035412  1
  H+  H310  1  0.92072012  0.58584827  0.22665971  1
  H+  H311  1  0.87227077  0.48283428  0.80720163  1
  H+  H312  1  0.72696477  0.36739154  0.65211432  1
  H+  H313  1  0.09894358  0.17253014  0.09280258  1
  H+  H314  1  0.81709418  0.39010595  0.07057083  1
  H+  H315  1  0.86089305  0.47539539  0.65224645  1
  H+  H316  1  0.08356186  0.44111996  0.06669292  1
  H+  H317  1  0.37775173  0.11624970  0.50886918  1
  H+  H318  1  0.15384260  0.05241970  0.59399116  1
  H+  H319  1  0.55936284  0.63521703  0.74590262  1
  H+  H320  1  0.08823529  0.17015225  0.39826216  1
  H+  H321  1  0.42011845  0.84745278  0.93329533  1
  H+  H322  1  0.32844137  0.66191075  0.76970848  1
  H+  H323  1  0.61619505  0.37401776  0.02691364  1
  H+  H324  1  0.90732927  0.08907831  0.89600427  1
  H+  H325  1  0.61672980  0.77377937  0.65281881  1
  H+  H326  1  0.84491420  0.68736396  0.06981419  1
  H+  H327  1  0.66983601  0.32101988  0.24315949  1
  H+  H328  1  0.32618533  0.41367220  0.06541146  1
  H+  H329  1  0.40603021  0.06693428  0.93743514  1
  H+  H330  1  0.56064469  0.38950170  0.38024784  1
  H+  H331  1  0.17561691  0.59986084  0.91186780  1
  H+  H332  1  0.15531064  0.06119270  0.93460809  1
  H+  H333  1  0.83270389  0.17177004  0.05544929  1
  H+  H334  1  0.69452086  0.36325002  0.86634357  1
  H+  H335  1  0.42927825  0.33039062  0.96742578  1
  H+  H336  1  0.93700882  0.06700389  0.57704248  1
  H+  H337  1  0.33159317  0.42194587  0.43331392  1
  H+  H338  1  0.42171175  0.57951888  0.27301467  1
  H+  H339  1  0.95389530  0.37054076  0.60452842  1
  H+  H340  1  0.59123238  0.42068289  0.73561243  1
  H+  H341  1  0.08473085  0.39608461  0.75277087  1
  H+  H342  1  0.66507164  0.57787307  0.26919151  1
  H+  H343  1  0.42335030  0.35716167  0.56467378  1
  H+  H344  1  0.92756904  0.83403107  0.90004723  1
  H+  H345  1  0.67095566  0.52440555  1.00389541  1
  H+  H346  1  0.93323982  0.31758038  0.20292202  1
  H+  H347  1  0.92161621  0.11819900  0.26620628  1
  H+  H348  1  0.63859085  0.94533354  0.73982504  1
  H+  H349  1  0.60494472  0.38866716  0.65192073  1
  H+  H350  1  0.16650417  0.59288737  0.56463302  1
  H+  H351  1  0.81957985  0.12417772  0.45718381  1
  H+  H352  1  0.16641512  0.90377829  0.29188978  1
  H+  H353  1  0.91556501  0.30937295  0.30210998  1
  H+  H354  1  0.12437656  0.50566836  0.49870419  1
  H+  H355  1  0.67204025  0.59057204  0.57799660  1
  H+  H356  1  0.57241847  0.15015260  0.11052046  1
  H+  H357  1  0.14080350  0.62890061  0.50383265  1
  H+  H358  1  0.82618680  0.93598000  0.75598624  1
  H+  H359  1  0.36658647  0.87906323  0.50903888  1
  H+  H360  1  0.10408851  0.90894130  0.39505530  1
  H+  H361  1  0.61563245  0.98150287  0.82983935  1
  H+  H362  1  0.88687379  0.78483950  0.99899359  1
  H+  H363  1  0.63480387  0.45274505  0.44314664  1
  H+  H364  1  0.34476884  0.65226705  0.06803468  1
  H+  H365  1  0.82327895  0.44003615  0.44073403  1
  H+  H366  1  0.16287217  0.35330795  0.56311665  1
  H+  H367  1  0.65287374  0.82950540  0.93088152  1
  H+  H368  1  0.33167354  0.91375661  0.77436714  1
  H+  H369  1  0.66609285  0.09058014  0.93176169  1
  H+  H370  1  0.64091789  0.30342933  0.95546441  1
  H+  H371  1  0.09817452  0.69928109  0.43365994  1
  H+  H372  1  0.47901759  0.86802460  0.17519874  1
  H+  H373  1  0.41829355  0.58386892  0.56730046  1
  H+  H374  1  0.16103825  0.35099260  0.90822180  1
  H+  H375  1  0.92969166  0.60032617  0.59878027  1
  H+  H376  1  0.38745483  0.60776760  0.33019552  1
  H+  H377  1  -0.02335077  0.60775204  0.83340905  1
  H+  H378  1  0.16536285  0.80022226  0.94498045  1
  H+  H379  1  0.63061690  0.05928588  0.56233136  1
  H+  H380  1  0.81958399  0.65941531  0.43403014  1
  H+  H381  1  0.91901413  0.34399847  0.92705708  1
  H+  H382  1  0.55669121  0.89240255  0.43323597  1
  H+  H383  1  0.84349129  0.92309637  0.10492505  1
  O2-  O384  1  0.10529819  0.17115909  0.13738633  1
  O2-  O385  1  0.08673127  0.17025011  0.47928232  1
  O2-  O386  1  0.07898564  0.18885305  0.82299089  1
  O2-  O387  1  0.09408485  0.42626544  0.15790891  1
  O2-  O388  1  0.09178766  0.44039819  0.48350576  1
  O2-  O389  1  0.06829510  0.40001459  0.79472878  1
  O2-  O390  1  0.09774908  0.66984553  0.14209196  1
  O2-  O391  1  0.10442885  0.69452482  0.47802272  1
  O2-  O392  1  0.09027804  0.65681154  0.81227497  1
  O2-  O393  1  0.08891375  0.92189039  0.15119428  1
  O2-  O394  1  0.11238992  0.92059971  0.46389802  1
  O2-  O395  1  0.09465651  0.87855084  0.80952814  1
  O2-  O396  1  0.33671514  0.16215700  0.14820546  1
  O2-  O397  1  0.34163188  0.18066686  0.48061418  1
  O2-  O398  1  0.30878681  0.12717544  0.80733393  1
  O2-  O399  1  0.33149516  0.41693497  0.14528107  1
  O2-  O400  1  0.32753157  0.42284180  0.47915940  1
  O2-  O401  1  0.30631666  0.40469585  0.80461686  1
  O2-  O402  1  0.34784241  0.66797210  0.14941375  1
  O2-  O403  1  0.33275959  0.66436270  0.46913372  1
  O2-  O404  1  0.32934151  0.66188526  0.81525640  1
  O2-  O405  1  0.32664280  0.91026460  0.15366386  1
  O2-  O406  1  0.29706168  0.90486524  0.49009429  1
  O2-  O407  1  0.33078594  0.90772896  0.81933395  1
  O2-  O408  1  0.57391514  0.15278991  0.15614596  1
  O2-  O409  1  0.56943218  0.15782259  0.47812172  1
  O2-  O410  1  0.57279293  0.16287649  0.80875393  1
  O2-  O411  1  0.54294898  0.47856537  0.13502474  1
  O2-  O412  1  0.60622223  0.43198920  0.48236097  1
  O2-  O413  1  0.60659412  0.42363926  0.78167276  1
  O2-  O414  1  0.55777572  0.69862425  0.13025683  1
  O2-  O415  1  0.57865433  0.65614034  0.49435765  1
  O2-  O416  1  0.54449193  0.61986139  0.79408810  1
  O2-  O417  1  0.58451673  0.92198063  0.14726161  1
  O2-  O418  1  0.55190888  0.89166240  0.47920406  1
  O2-  O419  1  0.59008332  0.92145927  0.81299219  1
  O2-  O420  1  0.82858019  0.16058585  0.13258093  1
  O2-  O421  1  0.81201645  0.10919152  0.50168605  1
  O2-  O422  1  0.81597554  0.16811921  0.80445084  1
  O2-  O423  1  0.84135282  0.41185359  0.14742175  1
  O2-  O424  1  0.83630574  0.43502541  0.48552441  1
  O2-  O425  1  0.84814950  0.42392076  0.78840434  1
  O2-  O426  1  0.84131492  0.67309068  0.15235048  1
  O2-  O427  1  0.82511523  0.66126591  0.48010487  1
  O2-  O428  1  0.84779435  0.67516704  0.80640919  1
  O2-  O429  1  0.83635772  0.91799641  0.15002876  1
  O2-  O430  1  0.82811766  0.89197721  0.49090826  1
  O2-  O431  1  0.83084170  0.94034820  0.80037786  1
  O2-  O432  1  0.17649709  0.09247865  0.18991399  1
  O2-  O433  1  0.17092588  0.08145754  0.51500727  1
  O2-  O434  1  0.15147276  0.04414593  0.85143968  1
  O2-  O435  1  0.16847571  0.33413893  0.18497643  1
  O2-  O436  1  0.16121782  0.34989466  0.51780097  1
  O2-  O437  1  0.15526806  0.34361598  0.86254747  1
  O2-  O438  1  0.17955985  0.58967189  0.17715212  1
  O2-  O439  1  0.16536448  0.59253137  0.51877940  1
  O2-  O440  1  0.17523770  0.59268583  0.86256787  1
  O2-  O441  1  0.17586231  0.85883067  0.21393227  1
  O2-  O442  1  0.20705141  0.85848539  0.51514237  1
  O2-  O443  1  0.17316128  0.81063978  0.87100475  1
  O2-  O444  1  0.41172673  0.07977562  0.19606062  1
  O2-  O445  1  0.39841185  0.07655436  0.52328087  1
  O2-  O446  1  0.41245730  0.07095528  0.85876999  1
  O2-  O447  1  0.41068630  0.33305945  0.18700070  1
  O2-  O448  1  0.41843688  0.34748173  0.51697047  1
  O2-  O449  1  0.36090298  0.28941670  0.84302825  1
  O2-  O450  1  0.41682858  0.57811395  0.19553328  1
  O2-  O451  1  0.42231312  0.58350400  0.52156952  1
  O2-  O452  1  0.39534165  0.56320467  0.84902442  1
  O2-  O453  1  0.41920590  0.83388189  0.19146550  1
  O2-  O454  1  0.41273447  0.87183751  0.53096752  1
  O2-  O455  1  0.42140944  0.83356385  0.85053475  1
  O2-  O456  1  0.67039123  0.08315233  0.19132000  1
  O2-  O457  1  0.63850288  0.05868521  0.51713513  1
  O2-  O458  1  0.66120067  0.08469289  0.85348320  1
  O2-  O459  1  0.67536271  0.31499947  0.19681139  1
  O2-  O460  1  0.66422477  0.32905182  0.51897689  1
  O2-  O461  1  0.67637102  0.33737908  0.82624707  1
  O2-  O462  1  0.67176291  0.60432290  0.19161171  1
  O2-  O463  1  0.66827559  0.58970566  0.53100247  1
  O2-  O464  1  0.68021194  0.59269543  0.82630072  1
  O2-  O465  1  0.66918541  0.84247578  0.18485926  1
  O2-  O466  1  0.65239023  0.82093707  0.51555694  1
  O2-  O467  1  0.68901818  0.85410225  0.85690359  1
  O2-  O468  1  0.89361055  0.07860123  0.20192170  1
  O2-  O469  1  0.92689185  0.05624925  0.53246481  1
  O2-  O470  1  0.90764499  0.09512805  0.85057732  1
  O2-  O471  1  0.92941480  0.32808636  0.15900025  1
  O2-  O472  1  0.93347417  0.37645174  0.51835357  1
  O2-  O473  1  0.91238588  0.33358224  0.84726633  1
  O2-  O474  1  0.92145285  0.58365937  0.18143959  1
  O2-  O475  1  0.93101279  0.60409319  0.52025403  1
  O2-  O476  1  0.91503607  0.57643411  0.84443117  1
  O2-  O477  1  0.92028096  0.83360510  0.19090279  1
  O2-  O478  1  0.89720837  0.81059700  0.52649615  1
  O2-  O479  1  0.92933249  0.82849821  0.85521063  1
  O2-  O480  1  0.17610305  0.08374503  0.31275367  1
  O2-  O481  1  0.15305705  0.04746172  0.63905985  1
  O2-  O482  1  0.15824769  0.06998416  0.97920637  1
  O2-  O483  1  0.18714350  0.33708246  0.30470812  1
  O2-  O484  1  0.16258619  0.36322991  0.64344962  1
  O2-  O485  1  0.15811426  0.34961186  0.98353800  1
  O2-  O486  1  0.18425015  0.58261154  0.29138399  1
  O2-  O487  1  0.16999683  0.57815239  0.64008114  1
  O2-  O488  1  0.17702607  0.60649470  0.97450378  1
  O2-  O489  1  0.21674387  0.91839272  0.26535873  1
  O2-  O490  1  0.17814652  0.82454966  0.63417952  1
  O2-  O491  1  0.16585060  0.80371870  0.99177766  1
  O2-  O492  1  0.41147975  0.09025932  0.31110057  1
  O2-  O493  1  0.40624344  0.07930884  0.64493138  1
  O2-  O494  1  0.40069046  0.06432999  0.98291077  1
  O2-  O495  1  0.41784396  0.32574038  0.30813673  1
  O2-  O496  1  0.42768210  0.36964403  0.63204314  1
  O2-  O497  1  0.36755795  0.29336725  0.96275535  1
  O2-  O498  1  0.42241596  0.58088500  0.31857152  1
  O2-  O499  1  0.42272189  0.59451373  0.64379870  1
  O2-  O500  1  0.46761653  0.65288003  0.95247102  1
  O2-  O501  1  0.41399451  0.82106396  0.31503491  1
  O2-  O502  1  0.33520568  0.78778137  0.62043763  1
  O2-  O503  1  0.41834156  0.85391561  0.97790662  1
  O2-  O504  1  0.65142074  0.06557030  0.31718567  1
  O2-  O505  1  0.60705805  0.05282060  0.63672133  1
  O2-  O506  1  0.66828773  0.09098667  0.97736683  1
  O2-  O507  1  0.66028314  0.33181720  0.31198048  1
  O2-  O508  1  0.66358002  0.33587707  0.63891088  1
  O2-  O509  1  0.64606602  0.30661587  0.99958538  1
  O2-  O510  1  0.66317620  0.57289873  0.31433223  1
  O2-  O511  1  0.67292003  0.58923133  0.64780374  1
  O2-  O512  1  0.69453688  0.58055807  0.98388651  1
  O2-  O513  1  0.67144576  0.83977064  0.31075948  1
  O2-  O514  1  0.65639420  0.83170779  0.63627031  1
  O2-  O515  1  0.62061599  0.80815544  0.96986166  1
  O2-  O516  1  0.93766302  0.15039227  0.30685320  1
  O2-  O517  1  0.94862208  0.09642394  0.65408933  1
  O2-  O518  1  0.91591086  0.08975408  0.97317594  1
  O2-  O519  1  0.95905720  0.30476027  0.27848821  1
  O2-  O520  1  0.96891296  0.34854075  0.64053882  1
  O2-  O521  1  0.91661332  0.34080274  0.97258049  1
  O2-  O522  1  0.91390273  0.60057180  0.30770263  1
  O2-  O523  1  0.92817005  0.59196267  0.64372035  1
  O2-  O524  1  0.97006683  0.57785581  0.97296424  1
  O2-  O525  1  0.91487485  0.84151636  0.35783556  1
  O2-  O526  1  0.91263218  0.81544381  0.64137905  1
  O2-  O527  1  0.91930197  0.84696257  0.98227167  1
  O2-  O528  1  0.08584679  0.17623562  0.01001043  1
  O2-  O529  1  0.08836007  0.17046029  0.35289346  1
  O2-  O530  1  0.09906155  0.19923201  0.69703835  1
  O2-  O531  1  0.08468548  0.44340662  0.02193666  1
  O2-  O532  1  0.11349542  0.43049052  0.32592629  1
  O2-  O533  1  0.12377875  0.41131585  0.67013491  1
  O2-  O534  1  0.12740834  0.71493539  0.01609935  1
  O2-  O535  1  0.07690114  0.72616173  0.35464605  1
  O2-  O536  1  0.08853910  0.65800237  0.68742236  1
  O2-  O537  1  0.08564743  0.90489328  0.02906176  1
  O2-  O538  1  0.09254359  0.89627350  0.34884782  1
  O2-  O539  1  0.07970238  0.88436206  0.68613928  1
  O2-  O540  1  0.32194787  0.15170361  0.02158341  1
  O2-  O541  1  0.34203022  0.17014254  0.35034183  1
  O2-  O542  1  0.30017652  0.13214475  0.68514928  1
  O2-  O543  1  0.31792389  0.40951113  0.02040912  1
  O2-  O544  1  0.34459479  0.41720484  0.35783097  1
  O2-  O545  1  0.33013883  0.42869139  0.67783641  1
  O2-  O546  1  0.34192390  0.63950351  0.02397410  1
  O2-  O547  1  0.32776093  0.65663223  0.34885157  1
  O2-  O548  1  0.33022733  0.66493611  0.68972340  1
  O2-  O549  1  0.31703887  0.89901537  0.02519097  1
  O2-  O550  1  0.35870778  0.91870331  0.37121226  1
  O2-  O551  1  0.35902489  0.93074871  0.69526317  1
  O2-  O552  1  0.56393738  0.14067554  0.03231152  1
  O2-  O553  1  0.56704821  0.15471269  0.35370613  1
  O2-  O554  1  0.57202195  0.16694136  0.68539454  1
  O2-  O555  1  0.59782716  0.41605062  0.04012143  1
  O2-  O556  1  0.57518780  0.40355231  0.33756630  1
  O2-  O557  1  0.57901323  0.42219296  0.66867163  1
  O2-  O558  1  0.59967131  0.65461108  0.02114045  1
  O2-  O559  1  0.59881773  0.67963210  0.34762038  1
  O2-  O560  1  0.59163281  0.66651003  0.68739181  1
  O2-  O561  1  0.58545270  0.93001837  0.02348690  1
  O2-  O562  1  0.57469874  0.90228497  0.35882868  1
  O2-  O563  1  0.67024257  0.95954447  0.70039861  1
  O2-  O564  1  0.83456119  0.17395994  0.00986836  1
  O2-  O565  1  0.81356154  0.13329032  0.37996523  1
  O2-  O566  1  0.85426737  0.17931804  0.64758275  1
  O2-  O567  1  0.79996953  0.37446788  0.02724325  1
  O2-  O568  1  0.79597688  0.45564555  0.37724461  1
  O2-  O569  1  0.82610901  0.41570613  0.66710873  1
  O2-  O570  1  0.84846310  0.69452241  0.02523151  1
  O2-  O571  1  0.82028358  0.66577863  0.36008632  1
  O2-  O572  1  0.83742541  0.66485475  0.68845638  1
  O2-  O573  1  0.84322206  0.92726013  0.02446862  1
  O2-  O574  1  0.84106938  0.93179605  0.33218515  1
  O2-  O575  1  0.82453662  0.90046570  0.66708884  1
