# generated using pymatgen
data_H2O
_symmetry_space_group_name_H-M   'P 1'
_cell_length_a   18.00382545
_cell_length_b   18.00275772
_cell_length_c   22.01574059
_cell_angle_alpha   89.99948617
_cell_angle_beta   89.99956638
_cell_angle_gamma   120.03332912
_symmetry_Int_Tables_number   1
_chemical_formula_structural   H2O
_chemical_formula_sum   'H384 O192'
_cell_volume   6177.62877717
_cell_formula_units_Z   192
loop_
 _symmetry_equiv_pos_site_id
 _symmetry_equiv_pos_as_xyz
  1  'x, y, z'
loop_
 _atom_type_symbol
 _atom_type_oxidation_number
  H+  1.0
  O2-  -2.0
loop_
 _atom_site_type_symbol
 _atom_site_label
 _atom_site_symmetry_multiplicity
 _atom_site_fract_x
 _atom_site_fract_y
 _atom_site_fract_z
 _atom_site_occupancy
  H+  H0  1  0.86969524  0.71902774  1.00447112  1
  H+  H1  1  0.80056955  0.64781840  0.27098272  1
  H+  H2  1  0.65379022  0.77273363  0.51606107  1
  H+  H3  1  0.03065184  0.40283771  0.50738413  1
  H+  H4  1  0.02854316  0.63566576  0.33667974  1
  H+  H5  1  0.60005735  0.63897392  0.83681363  1
  H+  H6  1  0.88173507  0.51155818  0.34523589  1
  H+  H7  1  0.37670843  0.21361327  0.16494236  1
  H+  H8  1  0.36542038  0.66431143  0.68152606  1
  H+  H9  1  0.51721992  0.87415430  0.01360383  1
  H+  H10  1  0.13083167  0.60200509  0.17701938  1
  H+  H11  1  0.67810253  0.33723487  0.40984737  1
  H+  H12  1  0.02452543  0.38707311  -0.00476186  1
  H+  H13  1  0.40412969  0.82722452  0.56541896  1
  H+  H14  1  0.72993735  0.86074215  0.00134588  1
  H+  H15  1  0.89201041  0.38938926  0.31399088  1
  H+  H16  1  0.38801702  0.27512504  0.36087961  1
  H+  H17  1  0.36565382  0.38288509  0.85972923  1
  H+  H18  1  0.92702087  0.50890392  0.52370041  1
  H+  H19  1  0.60715049  -0.01976567  0.82969947  1
  H+  H20  1  0.20492137  0.56766168  0.61120259  1
  H+  H21  1  0.03192641  0.03559292  0.56015510  1
  H+  H22  1  0.14196400  0.88340010  0.50904110  1
  H+  H23  1  -0.03119278  0.36087710  0.66853225  1
  H+  H24  1  0.38394313  0.78572193  0.66408536  1
  H+  H25  1  0.22052458  0.35616802  0.99192267  1
  H+  H26  1  0.60373644  0.72883825  0.84161444  1
  H+  H27  1  0.26145868  0.63525467  0.82937637  1
  H+  H28  1  0.22321377  0.60220018  0.32823636  1
  H+  H29  1  0.27912082  0.88969796  0.33740107  1
  H+  H30  1  0.11736614  0.47009372  -0.00667190  1
  H+  H31  1  0.09265556  0.22413277  0.47776178  1
  H+  H32  1  0.26633113  0.62896671  0.15589907  1
  H+  H33  1  0.97106633  0.67081723  0.29171901  1
  H+  H34  1  0.73777370  0.06570667  0.84565701  1
  H+  H35  1  0.77757918  0.14193859  0.15338411  1
  H+  H36  1  0.26649879  0.87211844  1.00096911  1
  H+  H37  1  0.76762881  0.13529835  0.67984356  1
  H+  H38  1  0.88454159  0.65548678  0.68143336  1
  H+  H39  1  0.78128125  0.40356449  0.68312160  1
  H+  H40  1  0.35564542  0.87983947  0.82258197  1
  H+  H41  1  0.23420354  0.09716188  0.17350516  1
  H+  H42  1  0.63413533  0.51174370  0.51242917  1
  H+  H43  1  0.88374544  0.76634691  0.31937742  1
  H+  H44  1  0.89257606  0.95887906  0.01341154  1
  H+  H45  1  0.20509811  0.41243692  0.14366715  1
  H+  H46  1  0.51978511  0.65146461  0.14228521  1
  H+  H47  1  0.37079292  0.53812761  0.83890915  1
  H+  H48  1  0.01559114  0.62284638  0.16349818  1
  H+  H49  1  0.62203968  0.89765980  0.16133033  1
  H+  H50  1  0.11558301  -0.01920305  1.00931068  1
  H+  H51  1  0.35380718  0.64026550  0.83379093  1
  H+  H52  1  0.10560560  0.71345728  0.16537018  1
  H+  H53  1  0.09958728  0.46415381  0.34629309  1
  H+  H54  1  0.14122924  0.10413706  0.66555595  1
  H+  H55  1  0.77647706  0.88412091  0.15892358  1
  H+  H56  1  0.11694410  0.88642327  0.82536916  1
  H+  H57  1  0.62177573  0.60621504  0.33025588  1
  H+  H58  1  0.29205860  0.60035903  0.49254703  1
  H+  H59  1  0.51948905  0.63948625  0.02531772  1
  H+  H60  1  0.60416420  0.21022273  0.82967697  1
  H+  H61  1  0.64204940  0.86736954  0.66559495  1
  H+  H62  1  0.35718810  0.88792753  0.49322466  1
  H+  H63  1  0.41135682  0.25611119  0.48697425  1
  H+  H64  1  0.72915194  0.60683581  0.65916032  1
  H+  H65  1  0.53288776  0.64322694  0.49684805  1
  H+  H66  1  0.90505968  0.00592804  0.64928153  1
  H+  H67  1  0.48362753  0.39857181  0.51364489  1
  H+  H68  1  0.22431955  0.11419107  0.99871301  1
  H+  H69  1  0.64058611  0.51794070  0.98773775  1
  H+  H70  1  0.23328959  0.35397212  0.17264512  1
  H+  H71  1  0.19453341  0.34604943  0.26933330  1
  H+  H72  1  0.38067653  0.39916008  0.36188363  1
  H+  H73  1  0.40269041  0.24773809  0.85062834  1
  H+  H74  1  0.21705400  0.33915627  0.65826695  1
  H+  H75  1  0.85428200  0.22343317  0.68357629  1
  H+  H76  1  0.88897740  0.85788544  0.32855800  1
  H+  H77  1  0.63091084  0.11144715  0.66042385  1
  H+  H78  1  0.16666294  0.08054262  0.90141667  1
  H+  H79  1  0.72382500  0.34167305  0.17410733  1
  H+  H80  1  0.26798656  0.12611837  0.82493567  1
  H+  H81  1  0.28586224  0.09200811  0.50994352  1
  H+  H82  1  0.88194342  0.36500806  0.67109796  1
  H+  H83  1  0.51716551  0.11656478  0.16028414  1
  H+  H84  1  0.35420604  0.62922139  0.15340945  1
  H+  H85  1  0.60908365  0.22748448  0.67502207  1
  H+  H86  1  0.88374427  0.28137532  0.85444998  1
  H+  H87  1  0.88870904  0.29111202  -0.00406776  1
  H+  H88  1  0.02545378  0.88063375  0.16057209  1
  H+  H89  1  0.37804511  0.85084858  0.32727008  1
  H+  H90  1  0.63061777  0.02170635  0.66330969  1
  H+  H91  1  0.08474072  0.01044408  0.51349443  1
  H+  H92  1  0.13067838  0.21578661  0.16857477  1
  H+  H93  1  0.38623024  1.00803528  0.16576749  1
  H+  H94  1  0.35562427  0.47133005  0.01480212  1
  H+  H95  1  0.36492851  0.76406413  0.50789452  1
  H+  H96  1  0.89748690  0.87978777  0.49980618  1
  H+  H97  1  0.64442944  0.86648677  0.32960536  1
  H+  H98  1  0.88929439  0.60533929  1.00093495  1
  H+  H99  1  0.88185488  0.38438641  0.49836860  1
  H+  H100  1  0.37411559  0.01542638  0.98854834  1
  H+  H101  1  0.72336543  0.36230692  0.99335152  1
  H+  H102  1  0.02788930  0.13193057  0.82882570  1
  H+  H103  1  0.13434590  0.27235508  0.83758938  1
  H+  H104  1  0.27302803  0.63351229  0.00248465  1
  H+  H105  1  0.41088770  0.33993028  0.22671737  1
  H+  H106  1  0.11458881  -0.02791752  0.33572792  1
  H+  H107  1  0.67505436  0.90599177  0.86462122  1
  H+  H108  1  0.62158570  0.37606765  0.16274234  1
  H+  H109  1  0.51772437  0.13457873  0.99156622  1
  H+  H110  1  0.86592837  0.88263429  0.16219424  1
  H+  H111  1  0.13462409  0.11366691  0.99590563  1
  H+  H112  1  0.86532511  0.11857484  0.50426393  1
  H+  H113  1  0.13731508  0.11076975  0.31316860  1
  H+  H114  1  0.39224508  0.61593962  0.32596733  1
  H+  H115  1  0.95506231  0.60403454  0.83301529  1
  H+  H116  1  0.23086380  0.86321279  0.82988108  1
  H+  H117  1  0.24655619  0.41027105  0.81514370  1
  H+  H118  1  0.02022071  0.88812931  0.48876298  1
  H+  H119  1  1.04480170  0.38102275  0.16048870  1
  H+  H120  1  0.86434635  0.13749568  0.15598620  1
  H+  H121  1  0.63870279  0.77535520  0.32928736  1
  H+  H122  1  0.11686591  0.47315940  0.67395136  1
  H+  H123  1  0.05286455  0.70832110  0.66287439  1
  H+  H124  1  0.96727957  0.37033516  0.32350843  1
  H+  H125  1  0.11102840  0.20826017  0.67313903  1
  H+  H126  1  0.12185442  0.51676730  0.84182048  1
  H+  H127  1  0.26071752  0.87672303  0.66857064  1
  H+  H128  1  0.53154580  0.12895855  0.48848083  1
  H+  H129  1  0.14268745  0.77275710  0.32513651  1
  H+  H130  1  0.74697806  0.12977308  0.49837729  1
  H+  H131  1  0.66435265  0.57451832  0.56983426  1
  H+  H132  1  0.61171229  0.38225446  0.00374870  1
  H+  H133  1  0.52124772  0.89045020  0.66998438  1
  H+  H134  1  0.86485343  0.88817895  0.68514414  1
  H+  H135  1  0.12027984  0.86037179  -0.00791378  1
  H+  H136  1  0.97720747  0.57865073  0.61643387  1
  H+  H137  1  0.22725515  0.11031909  0.31548444  1
  H+  H138  1  0.71121668  0.60769866  0.83341054  1
  H+  H139  1  0.12544430  0.60800501  0.83471047  1
  H+  H140  1  0.63000995  0.73335147  0.66726648  1
  H+  H141  1  0.38240910  0.02033390  0.65403088  1
  H+  H142  1  1.02931701  0.56306589  0.53269612  1
  H+  H143  1  0.34155944  0.43533764  0.64284338  1
  H+  H144  1  0.74119615  0.39313491  0.35773302  1
  H+  H145  1  0.32558144  0.90583578  0.09577016  1
  H+  H146  1  0.63773078  0.04592480  0.31753188  1
  H+  H147  1  0.54024393  1.00230777  0.79978506  1
  H+  H148  1  0.63862224  0.12063003  -0.02707385  1
  H+  H149  1  0.61111717  0.47609033  0.67819711  1
  H+  H150  1  0.64272122  0.61290908  0.65624299  1
  H+  H151  1  0.40183483  0.02788494  0.32473632  1
  H+  H152  1  0.73995692  0.86265862  0.51416010  1
  H+  H153  1  0.49017454  0.33697418  0.25378191  1
  H+  H154  1  0.39711073  0.40122286  0.51078958  1
  H+  H155  1  0.38456061  0.87287623  0.65446568  1
  H+  H156  1  0.07239455  0.12912023  0.48439634  1
  H+  H157  1  0.16738955  0.82697762  0.23124456  1
  H+  H158  1  0.84618485  0.62540730  0.82085580  1
  H+  H159  1  0.53364020  0.37301607  0.83278904  1
  H+  H160  1  0.10461532  0.72581833  0.81754187  1
  H+  H161  1  0.64682976  0.25177206  0.48572484  1
  H+  H162  1  0.86495204  0.37703012  0.84437038  1
  H+  H163  1  0.13150740  0.34521725  0.65530771  1
  H+  H164  1  0.36008108  0.97166628  0.82080028  1
  H+  H165  1  1.02671858  0.88213839  0.33898659  1
  H+  H166  1  0.13642091  0.10908273  0.84140911  1
  H+  H167  1  0.46156357  0.86814908  0.83870804  1
  H+  H168  1  0.87324138  0.16466508  1.00153660  1
  H+  H169  1  0.47711650  0.35880871  0.35136634  1
  H+  H170  1  0.11052694  0.22431134  0.00436116  1
  H+  H171  1  0.89362683  0.28006710  0.16701779  1
  H+  H172  1  0.11829120  0.96649482  0.16043717  1
  H+  H173  1  0.65555215  0.28933201  0.22886985  1
  H+  H174  1  0.88981501  0.09975142  0.32249325  1
  H+  H175  1  0.09556378  0.28720076  0.22078911  1
  H+  H176  1  0.65784538  0.14177106  0.30370128  1
  H+  H177  1  0.35500544  0.50942829  0.17314672  1
  H+  H178  1  0.73210438  0.13277634  -0.01783174  1
  H+  H179  1  0.36179700  0.22342081  0.01346148  1
  H+  H180  1  0.12579524  0.47021574  0.17415992  1
  H+  H181  1  0.97496269  0.59966202  1.00534880  1
  H+  H182  1  0.53486792  0.33347019  0.47404155  1
  H+  H183  1  0.63619712  0.37210379  0.67040861  1
  H+  H184  1  0.60745168  0.87677161  0.01405041  1
  H+  H185  1  0.38161424  0.60861015  1.00134126  1
  H+  H186  1  0.38992782  0.54697618  0.50562741  1
  H+  H187  1  0.35930392  0.36658259  0.67164129  1
  H+  H188  1  0.03057778  0.66798873  0.48509918  1
  H+  H189  1  0.92289430  0.34550944  0.22348359  1
  H+  H190  1  0.11807935  0.97005914  0.67383843  1
  H+  H191  1  0.38545684  0.11036061  0.65511029  1
  H+  H192  1  0.87816942  0.51068597  0.17354209  1
  H+  H193  1  0.28414168  0.41239601  0.49159623  1
  H+  H194  1  0.08216959  0.41938843  0.61642939  1
  H+  H195  1  0.97743251  0.85676445  0.83678504  1
  H+  H196  1  0.63450107  0.25624520  0.32832677  1
  H+  H197  1  0.72803459  0.35075981  0.84337281  1
  H+  H198  1  0.16287867  0.32905213  0.89781536  1
  H+  H199  1  0.50383851  0.89781250  0.33601086  1
  H+  H200  1  0.77926099  0.89586881  0.68153865  1
  H+  H201  1  0.35607258  0.13116174  0.00662027  1
  H+  H202  1  0.73780579  0.87277139  0.84814233  1
  H+  H203  1  0.78040773  0.88524366  0.33851324  1
  H+  H204  1  0.62672463  0.00575498  0.51140038  1
  H+  H205  1  0.52750708  0.97998092  0.37353628  1
  H+  H206  1  0.35786635  0.71827982  0.33960596  1
  H+  H207  1  0.36441552  0.22126031  0.66989159  1
  H+  H208  1  0.46643481  0.61982444  0.84877149  1
  H+  H209  1  0.11366187  -0.02583525  0.82943251  1
  H+  H210  1  0.27512526  0.13131261  0.66653378  1
  H+  H211  1  0.10830917  0.21295907  0.28130793  1
  H+  H212  1  0.91261098  0.65074756  0.55728673  1
  H+  H213  1  -0.01741549  0.85912254  -0.00707013  1
  H+  H214  1  0.10580634  0.50022183  0.50010745  1
  H+  H215  1  0.47501471  0.35961144  1.00473361  1
  H+  H216  1  0.40860095  0.41653873  0.84798881  1
  H+  H217  1  0.67186611  0.08608231  0.22360993  1
  H+  H218  1  0.13660701  0.60636388  0.32913205  1
  H+  H219  1  0.53902255  0.38421174  0.16424701  1
  H+  H220  1  0.75266404  0.64682544  0.48387061  1
  H+  H221  1  0.78785458  0.64040984  0.16219399  1
  H+  H222  1  0.89436260  1.02024578  0.84271147  1
  H+  H223  1  -0.02643575  0.86347592  0.67358857  1
  H+  H224  1  0.37872360  0.09999305  0.83410563  1
  H+  H225  1  0.88695917  0.66810046  0.54215079  1
  H+  H226  1  0.59641595  0.46067701  0.30950723  1
  H+  H227  1  0.78594900  0.13564602  0.33344589  1
  H+  H228  1  0.63906324  0.78642633  0.16769441  1
  H+  H229  1  0.39375907  0.56269794  0.66895236  1
  H+  H230  1  0.82630215  0.15782922  0.77416628  1
  H+  H231  1  0.48940863  0.88237092  0.17936459  1
  H+  H232  1  0.35628824  0.87423921  1.00281989  1
  H+  H233  1  0.13925583  0.60764019  0.99330465  1
  H+  H234  1  0.67342357  0.83607967  0.94169785  1
  H+  H235  1  0.85303936  0.71822049  0.82375193  1
  H+  H236  1  0.46978754  0.10290638  0.83682052  1
  H+  H237  1  0.13096062  0.35655539  -0.01289856  1
  H+  H238  1  0.15197321  0.07097668  0.60236593  1
  H+  H239  1  0.86933913  0.51269571  0.83806044  1
  H+  H240  1  0.60887627  0.72659497  0.02216647  1
  H+  H241  1  0.52669348  0.64659525  0.33843960  1
  H+  H242  1  0.39163749  1.03128994  0.49975703  1
  H+  H243  1  0.47909414  0.36212134  0.66670177  1
  H+  H244  1  0.85879295  -0.01309615  0.48904745  1
  H+  H245  1  0.38437447  0.35797508  1.00437091  1
  H+  H246  1  0.97978968  0.10294332  0.31028320  1
  H+  H247  1  0.95578981  0.12485240  0.49312786  1
  H+  H248  1  0.67966369  0.04478250  0.90456791  1
  H+  H249  1  0.66667103  0.33269360  0.93164761  1
  H+  H250  1  0.88327540  0.02398669  0.16525927  1
  H+  H251  1  0.63728511  1.01981166  0.16452085  1
  H+  H252  1  0.61673965  0.11813827  0.16121550  1
  H+  H253  1  0.85784219  0.38557950  0.01012910  1
  H+  H254  1  0.87970961  0.05745843  1.00784913  1
  H+  H255  1  0.85611324  0.47239066  0.01465356  1
  H+  H256  1  0.61084591  0.47214464  0.82771564  1
  H+  H257  1  0.12377919  0.84869150  0.66154289  1
  H+  H258  1  0.87096410  0.97207699  0.33421236  1
  H+  H259  1  0.13377737  0.85188476  0.17133164  1
  H+  H260  1  0.39605572  0.87375690  0.17627151  1
  H+  H261  1  0.14036089  0.86097114  0.32599179  1
  H+  H262  1  0.73090056  0.60357580  0.98611706  1
  H+  H263  1  0.41355612  0.64680267  0.50442092  1
  H+  H264  1  0.60416634  0.41438893  0.43730809  1
  H+  H265  1  0.43083298  0.30608947  0.91078757  1
  H+  H266  1  0.85886390  0.37926262  0.15843084  1
  H+  H267  1  0.66042767  0.52243060  0.17852738  1
  H+  H268  1  0.23257904  0.62889478  0.66654883  1
  H+  H269  1  0.08796863  0.91417409  0.73509589  1
  H+  H270  1  0.39212618  0.10052707  0.16728184  1
  H+  H271  1  0.37846602  0.76513629  0.99605537  1
  H+  H272  1  0.23205754  0.44837525  0.27667568  1
  H+  H273  1  0.24625993  0.09605987  0.51071629  1
  H+  H274  1  0.89471868  0.77326548  0.17356518  1
  H+  H275  1  0.11725189  0.66514322  0.48813457  1
  H+  H276  1  0.86796747  0.88468329  0.82886660  1
  H+  H277  1  0.36368418  0.20529865  0.27766837  1
  H+  H278  1  0.37739507  0.77173185  0.84112996  1
  H+  H279  1  0.26868178  0.87697751  0.15687295  1
  H+  H280  1  0.09505372  0.38770681  0.83827459  1
  H+  H281  1  0.11487647  0.71722036  1.01834416  1
  H+  H282  1  0.21702312  0.28037584  0.52000965  1
  H+  H283  1  0.79548399  0.38594416  0.48936793  1
  H+  H284  1  0.14024323  0.79498077  0.50138839  1
  H+  H285  1  0.70597929  0.59705399  0.32642496  1
  H+  H286  1  0.98309253  0.12272978  1.00103346  1
  H+  H287  1  0.88700854  0.27028143  0.51989187  1
  H+  H288  1  0.32902443  0.68201148  0.74336958  1
  H+  H289  1  0.83226465  0.40656940  0.78264562  1
  H+  H290  1  0.59094583  0.41466400  0.06562527  1
  H+  H291  1  0.13970252  0.13602073  0.14922854  1
  H+  H292  1  0.56915194  0.91812135  0.43547051  1
  H+  H293  1  0.58572713  0.67120925  0.39930692  1
  H+  H294  1  0.81929981  0.40549250  0.10240463  1
  H+  H295  1  0.91444012  0.34623497  0.93242460  1
  H+  H296  1  0.41655091  0.83173959  0.26751534  1
  H+  H297  1  0.82896975  0.66329665  0.73448099  1
  H+  H298  1  0.91423754  0.57770518  0.23131620  1
  H+  H299  1  0.83212279  0.14521336  0.39621689  1
  H+  H300  1  0.61005308  0.38142318  0.32631053  1
  H+  H301  1  0.66865663  0.58070625  0.23488274  1
  H+  H302  1  0.50910840  0.87970973  0.49298568  1
  H+  H303  1  0.30383017  0.41720225  0.33814127  1
  H+  H304  1  0.61450056  0.11974729  0.49405590  1
  H+  H305  1  0.86425079  0.44915783  0.40246792  1
  H+  H306  1  0.58113866  0.41564664  0.73912384  1
  H+  H307  1  0.83743609  0.92360510  0.43177749  1
  H+  H308  1  0.17384811  0.31690074  0.56272131  1
  H+  H309  1  0.40868208  0.57471471  0.22627313  1
  H+  H310  1  0.08766287  0.67581262  0.39568520  1
  H+  H311  1  0.88503135  0.78775403  0.49313391  1
  H+  H312  1  0.31972765  0.65869401  0.39879614  1
  H+  H313  1  0.15230517  0.82293739  0.60029911  1
  H+  H314  1  0.15537556  0.62443782  0.55897297  1
  H+  H315  1  0.32709560  0.66194568  0.06566850  1
  H+  H316  1  0.53853339  0.65036680  0.66513802  1
  H+  H317  1  0.08594241  0.91679335  0.06805430  1
  H+  H318  1  0.31088704  0.43277069  0.75989619  1
  H+  H319  1  0.32771081  0.15636699  0.76476677  1
  H+  H320  1  0.61077722  0.21179683  0.15905696  1
  H+  H321  1  0.40056814  0.07280501  0.92853959  1
  H+  H322  1  0.80822168  0.66937484  0.42385242  1
  H+  H323  1  0.86295480  0.62926511  0.31231687  1
  H+  H324  1  0.83868112  0.66493001  0.06593537  1
  H+  H325  1  0.41773940  0.60933839  0.60402842  1
  H+  H326  1  0.16493598  0.57729155  0.23668498  1
  H+  H327  1  0.55041668  0.17038827  0.30588445  1
  H+  H328  1  0.00550416  0.38843607  0.84367871  1
  H+  H329  1  0.65879473  0.06910380  0.57209069  1
  H+  H330  1  0.67353294  0.84100669  0.22957989  1
  H+  H331  1  0.17151182  0.83430183  0.88984059  1
  H+  H332  1  0.37244822  0.13759772  0.31678607  1
  H+  H333  1  0.66048277  0.57539344  0.89604948  1
  H+  H334  1  0.91400311  0.32929742  0.57975412  1
  H+  H335  1  0.44152312  0.18663754  0.48838302  1
  H+  H336  1  0.92242790  0.83338832  0.23330574  1
  H+  H337  1  0.16568608  0.58522752  0.92885843  1
  H+  H338  1  0.09400994  0.17051362  0.06638470  1
  H+  H339  1  0.57149717  0.92672533  0.73193694  1
  H+  H340  1  0.64861996  0.34263955  0.49761185  1
  H+  H341  1  0.83851216  0.17948611  0.06459057  1
  H+  H342  1  0.08554928  0.65477693  0.07579912  1
  H+  H343  1  0.90936253  0.07909486  0.22517656  1
  H+  H344  1  0.34050095  0.16195143  0.10175152  1
  H+  H345  1  0.88353936  0.77599736  0.67309521  1
  H+  H346  1  0.33534990  0.91842208  0.39813527  1
  H+  H347  1  0.84232163  0.90568254  0.07264499  1
  H+  H348  1  0.03061757  0.11370142  0.66738860  1
  H+  H349  1  0.92529736  0.07033195  0.59253392  1
  H+  H350  1  0.27321882  0.89716229  0.49365335  1
  H+  H351  1  0.22961431  0.63808261  0.49137717  1
  H+  H352  1  0.52012629  0.13782941  0.66895659  1
  H+  H353  1  0.83869512  0.92073691  0.77191217  1
  H+  H354  1  0.32330792  0.91171574  0.72622135  1
  H+  H355  1  0.42359903  0.08605696  0.56105777  1
  H+  H356  1  0.05330992  0.66517963  0.76244906  1
  H+  H357  1  0.08854596  0.92591424  0.43398928  1
  H+  H358  1  0.42477689  0.07390797  0.26041344  1
  H+  H359  1  0.61375003  0.63025775  0.49378894  1
  H+  H360  1  0.07802577  0.77471743  0.95491355  1
  H+  H361  1  0.40882551  0.82730135  0.93733999  1
  H+  H362  1  0.58367106  0.91674878  0.10025521  1
  H+  H363  1  0.60559579  0.22330897  -0.00573096  1
  H+  H364  1  0.64112809  0.35466153  0.83813115  1
  H+  H365  1  0.87925389  0.48292996  0.68794991  1
  H+  H366  1  0.67332459  0.34748458  0.61281792  1
  H+  H367  1  0.09389532  0.19231822  0.35669036  1
  H+  H368  1  0.91991664  0.82586278  0.89675936  1
  H+  H369  1  0.88897099  0.84697567  0.99421036  1
  H+  H370  1  0.87365211  0.63658858  0.15835535  1
  H+  H371  1  0.57312079  0.15904580  0.76779197  1
  H+  H372  1  0.40593395  0.53537174  0.32854381  1
  H+  H373  1  0.08533937  0.15680859  0.76866293  1
  H+  H374  1  0.16888113  0.06944254  0.22999033  1
  H+  H375  1  0.86847769  0.13400271  0.82877775  1
  H+  H376  1  0.79005293  0.20889543  0.45280078  1
  H+  H377  1  0.30600162  0.40786156  0.07003965  1
  H+  H378  1  0.67969851  0.83983428  0.60849201  1
  H+  H379  1  0.34716289  0.44812448  0.43264217  1
  H+  H380  1  0.42315021  0.34228728  0.60530716  1
  H+  H381  1  0.92415193  0.08423278  0.90003962  1
  H+  H382  1  0.06848431  0.41699889  0.40893308  1
  H+  H383  1  0.41175496  0.57848246  0.94403134  1
  O2-  O384  1  0.13275854  0.18287535  0.13217802  1
  O2-  O385  1  0.05501370  0.16595218  0.46163589  1
  O2-  O386  1  0.08888817  0.16185894  0.81386658  1
  O2-  O387  1  0.10753187  0.40908414  0.16564444  1
  O2-  O388  1  0.09053622  0.43937049  0.49374365  1
  O2-  O389  1  0.06738434  0.42099702  0.82675622  1
  O2-  O390  1  0.07739793  0.65313712  0.15015576  1
  O2-  O391  1  0.08882428  0.69927466  0.46829462  1
  O2-  O392  1  0.07009576  0.66477095  0.80492974  1
  O2-  O393  1  0.08520127  0.90609658  0.14384974  1
  O2-  O394  1  0.08452111  0.92652733  0.47907224  1
  O2-  O395  1  0.08360226  0.91450137  0.81226914  1
  O2-  O396  1  0.34328881  0.15593665  0.14750373  1
  O2-  O397  1  0.45308457  0.24207223  0.47002678  1
  O2-  O398  1  0.32834208  0.15284037  0.80984701  1
  O2-  O399  1  0.25633244  0.40495379  0.14609557  1
  O2-  O400  1  0.34441027  0.45236451  0.47938155  1
  O2-  O401  1  0.29537840  0.45862087  0.79295238  1
  O2-  O402  1  0.32401672  0.65817679  0.13670516  1
  O2-  O403  1  0.29289232  0.65217955  0.47859551  1
  O2-  O404  1  0.32336877  0.66979106  0.81622968  1
  O2-  O405  1  0.32875726  0.90990611  0.14106512  1
  O2-  O406  1  0.33291919  0.92288062  0.47646742  1
  O2-  O407  1  0.32832154  0.91135363  0.80364186  1
  O2-  O408  1  0.58022031  0.14857258  0.14671755  1
  O2-  O409  1  0.59157318  0.15365779  0.47350011  1
  O2-  O410  1  0.56837543  0.15127129  0.81250049  1
  O2-  O411  1  0.59803815  0.41283288  0.14876757  1
  O2-  O412  1  0.58465408  0.39566533  0.47881202  1
  O2-  O413  1  0.58826704  0.41264644  0.81057654  1
  O2-  O414  1  0.58245908  0.69093720  0.13932674  1
  O2-  O415  1  0.58988047  0.66590792  0.47778601  1
  O2-  O416  1  0.56796509  0.66937382  0.82775011  1
  O2-  O417  1  0.59056503  0.92695965  0.14660645  1
  O2-  O418  1  0.56993825  0.91295259  0.47990088  1
  O2-  O419  1  0.55116235  0.95449651  0.80373611  1
  O2-  O420  1  0.83835646  0.17279900  0.14036179  1
  O2-  O421  1  0.80461588  0.17407199  0.47869163  1
  O2-  O422  1  0.82674770  0.15314113  0.81969510  1
  O2-  O423  1  0.81964813  0.40296840  0.14857714  1
  O2-  O424  1  0.85842745  0.42080653  0.48226207  1
  O2-  O425  1  0.82739186  0.40538421  0.82723707  1
  O2-  O426  1  0.84794215  0.67240658  0.14563614  1
  O2-  O427  1  0.80144995  0.69366819  0.46139083  1
  O2-  O428  1  0.81810889  0.65972205  0.80649558  1
  O2-  O429  1  0.83689833  0.91154972  0.14277640  1
  O2-  O430  1  0.83787007  0.92629016  0.47706562  1
  O2-  O431  1  0.83958001  0.91839943  0.81782362  1
  O2-  O432  1  0.17245728  0.06571482  0.18451191  1
  O2-  O433  1  0.08578409  0.05921365  0.53682739  1
  O2-  O434  1  0.16586146  0.07726894  0.85611394  1
  O2-  O435  1  0.13794083  0.27045909  0.23113862  1
  O2-  O436  1  0.19030125  0.31597663  0.51930101  1
  O2-  O437  1  0.15917017  0.33219877  0.85249536  1
  O2-  O438  1  0.16556686  0.57635792  0.19121459  1
  O2-  O439  1  0.14377538  0.61010291  0.51584482  1
  O2-  O440  1  0.15801834  0.58187986  0.85152427  1
  O2-  O441  1  0.16442491  0.82155951  0.18591147  1
  O2-  O442  1  0.17188232  0.85181535  0.52298187  1
  O2-  O443  1  0.16938467  0.83321924  0.84508613  1
  O2-  O444  1  0.42157768  0.06892529  0.18183786  1
  O2-  O445  1  0.42855805  0.09065105  0.51581151  1
  O2-  O446  1  0.40750845  0.06874044  0.85037877  1
  O2-  O447  1  0.44297917  0.30972487  0.22277251  1
  O2-  O448  1  0.42506001  0.37114947  0.53007155  1
  O2-  O449  1  0.45098719  0.29691826  0.87133154  1
  O2-  O450  1  0.40055481  0.56903810  0.18167719  1
  O2-  O451  1  0.42441127  0.60576577  0.52596269  1
  O2-  O452  1  0.40479908  0.59193309  0.86299350  1
  O2-  O453  1  0.43358581  0.86010799  0.20080743  1
  O2-  O454  1  0.40052859  0.82494579  0.51983633  1
  O2-  O455  1  0.40371473  0.83202129  0.85722193  1
  O2-  O456  1  0.66635577  0.08388959  0.17799037  1
  O2-  O457  1  0.66006755  0.06744129  0.52625169  1
  O2-  O458  1  0.68733393  0.01633311  0.86670385  1
  O2-  O459  1  0.66016770  0.30672082  0.18587017  1
  O2-  O460  1  0.68486576  0.31756360  0.48789099  1
  O2-  O461  1  0.66455290  0.31944405  0.85504308  1
  O2-  O462  1  0.69416973  0.58126365  0.19500587  1
  O2-  O463  1  0.65831472  0.57207582  0.52399053  1
  O2-  O464  1  0.65192521  0.57543393  0.85025666  1
  O2-  O465  1  0.67598671  0.84654127  0.18478628  1
  O2-  O466  1  0.68449153  0.82932100  0.53588162  1
  O2-  O467  1  0.67989773  0.85354732  0.86605144  1
  O2-  O468  1  0.90681281  0.08336469  0.18017984  1
  O2-  O469  1  0.89956693  0.09208718  0.51513370  1
  O2-  O470  1  0.92711592  0.08236149  0.85519117  1
  O2-  O471  1  0.92344436  0.34209459  0.17772633  1
  O2-  O472  1  0.92186799  0.33003151  0.53430764  1
  O2-  O473  1  0.91228262  0.34174394  0.86684182  1
  O2-  O474  1  0.91240679  0.57265372  0.18515983  1
  O2-  O475  1  0.97452441  0.55992977  0.54463957  1
  O2-  O476  1  0.89284058  0.57623065  0.83988599  1
  O2-  O477  1  0.92301567  0.83460265  0.18779267  1
  O2-  O478  1  0.92590442  0.84570489  0.50888331  1
  O2-  O479  1  0.91679682  0.82688692  0.85153409  1
  O2-  O480  1  0.16524561  0.07466499  0.30564284  1
  O2-  O481  1  0.17057304  0.07514575  0.64547289  1
  O2-  O482  1  0.16469889  0.08233741  0.98181704  1
  O2-  O483  1  0.22923655  0.39935678  0.29738553  1
  O2-  O484  1  0.15786851  0.31130368  0.64079137  1
  O2-  O485  1  0.16127329  0.32320742  0.97503588  1
  O2-  O486  1  0.16255881  0.57227248  0.31378860  1
  O2-  O487  1  0.18054682  0.58682900  0.64286201  1
  O2-  O488  1  0.17154923  0.58239200  0.97401906  1
  O2-  O489  1  0.17282669  0.83331170  0.30983313  1
  O2-  O490  1  0.14438126  0.80994575  0.64483523  1
  O2-  O491  1  0.13342923  0.81735268  0.97166559  1
  O2-  O492  1  0.43071524  0.08562409  0.30508743  1
  O2-  O493  1  0.41656818  0.08085081  0.63958535  1
  O2-  O494  1  0.39924589  0.07538992  0.97396649  1
  O2-  O495  1  0.42069038  0.33648422  0.37174295  1
  O2-  O496  1  0.41876366  0.32960869  0.64980255  1
  O2-  O497  1  0.41327797  0.32562700  0.99168290  1
  O2-  O498  1  0.42879301  0.59346962  0.30936253  1
  O2-  O499  1  0.42144354  0.61842149  0.64904052  1
  O2-  O500  1  0.41154508  0.57636398  0.98927544  1
  O2-  O501  1  0.41019104  0.82192080  0.31369374  1
  O2-  O502  1  0.41536690  0.84189643  0.64191156  1
  O2-  O503  1  0.40772349  0.82741615  0.98258588  1
  O2-  O504  1  0.68013376  0.10111183  0.29855643  1
  O2-  O505  1  0.66148224  0.08137235  0.64596630  1
  O2-  O506  1  0.67821776  0.10013865  0.95915456  1
  O2-  O507  1  0.67834667  0.35341655  0.36633046  1
  O2-  O508  1  0.67070569  0.34413748  0.65699775  1
  O2-  O509  1  0.66325515  0.33487635  0.97712883  1
  O2-  O510  1  0.64410920  0.56833143  0.31540086  1
  O2-  O511  1  0.66849185  0.57569754  0.64477260  1
  O2-  O512  1  0.67305070  0.57458388  0.96769849  1
  O2-  O513  1  0.67204678  0.83611574  0.31327996  1
  O2-  O514  1  0.67721938  0.84120823  0.65449084  1
  O2-  O515  1  0.66996663  0.83211318  0.98726470  1
  O2-  O516  1  0.91612981  0.06755643  0.30339830  1
  O2-  O517  1  0.95189540  0.05065935  0.62296632  1
  O2-  O518  1  0.92396277  0.09851682  0.98085802  1
  O2-  O519  1  0.91537843  0.35426520  0.29805841  1
  O2-  O520  1  0.90858611  0.33180813  0.65440630  1
  O2-  O521  1  0.91853321  0.35114597  0.98073591  1
  O2-  O522  1  0.93030106  0.61111559  0.30176615  1
  O2-  O523  1  0.98177421  0.57934311  0.66272711  1
  O2-  O524  1  0.91521954  0.56938676  0.99074391  1
  O2-  O525  1  0.92049915  0.82927715  0.31197372  1
  O2-  O526  1  0.91165319  0.83846332  0.66493907  1
  O2-  O527  1  0.92359689  0.82335484  0.97584699  1
  O2-  O528  1  0.07988430  0.16386161  0.02104230  1
  O2-  O529  1  0.08672811  0.16504529  0.31710808  1
  O2-  O530  1  0.08634541  0.14947518  0.69024485  1
  O2-  O531  1  0.08639154  0.40873018  0.00508370  1
  O2-  O532  1  0.05995344  0.40772090  0.36463262  1
  O2-  O533  1  0.08488128  0.41248423  0.66033243  1
  O2-  O534  1  0.08814608  0.65655689  0.02997078  1
  O2-  O535  1  0.08967828  0.66658781  0.35067463  1
  O2-  O536  1  -0.00140926  0.66356897  0.68376670  1
  O2-  O537  1  0.08552578  0.91885917  0.02230024  1
  O2-  O538  1  0.08771351  0.91275003  0.35299297  1
  O2-  O539  1  0.08666813  0.91007133  0.68965905  1
  O2-  O540  1  0.32914404  0.16163352  0.02739254  1
  O2-  O541  1  0.34271438  0.17216764  0.31539542  1
  O2-  O542  1  0.33475702  0.16036875  0.68375265  1
  O2-  O543  1  0.32358882  0.40923398  0.02718325  1
  O2-  O544  1  0.35834802  0.44044991  0.36435793  1
  O2-  O545  1  0.32302538  0.39530735  0.67673351  1
  O2-  O546  1  0.33272907  0.66549956  0.01925443  1
  O2-  O547  1  0.32882702  0.65735366  0.35435189  1
  O2-  O548  1  0.33065353  0.68893434  0.69741562  1
  O2-  O549  1  0.32477625  0.90531603  0.01688799  1
  O2-  O550  1  0.33953964  0.91838470  0.35268706  1
  O2-  O551  1  0.32184910  0.91326029  0.68066239  1
  O2-  O552  1  0.57855717  0.16097329  0.00328900  1
  O2-  O553  1  0.61272774  0.20786338  0.29856118  1
  O2-  O554  1  0.57935425  0.16599874  0.68640065  1
  O2-  O555  1  0.58119678  0.41171611  0.02124844  1
  O2-  O556  1  0.56887257  0.39646624  0.30778887  1
  O2-  O557  1  0.57944809  0.41491844  0.69251184  1
  O2-  O558  1  0.57959552  0.66821939  0.04050561  1
  O2-  O559  1  0.58767321  0.67439612  0.35388314  1
  O2-  O560  1  0.59946072  0.66937139  0.67050715  1
  O2-  O561  1  0.57549845  0.90356588  0.03131565  1
  O2-  O562  1  0.55489098  0.95045211  0.35512913  1
  O2-  O563  1  0.58002688  0.91929166  0.68795309  1
  O2-  O564  1  0.83688855  0.18557440  0.01927724  1
  O2-  O565  1  0.84115716  0.14894229  0.35223520  1
  O2-  O566  1  0.82586754  0.16331375  0.69783925  1
  O2-  O567  1  0.82230003  0.40994868  0.02776107  1
  O2-  O568  1  0.84939909  0.45138828  0.35924940  1
  O2-  O569  1  0.83973472  0.42223480  0.69868356  1
  O2-  O570  1  0.83698556  0.65966494  0.02081867  1
  O2-  O571  1  0.81789063  0.65278698  0.31365345  1
  O2-  O572  1  0.83591908  0.66498184  0.68844296  1
  O2-  O573  1  0.84497663  0.90362060  0.02599869  1
  O2-  O574  1  0.84065301  0.91280387  0.35321952  1
  O2-  O575  1  0.83986888  0.92607302  0.69684095  1
