# generated using pymatgen
data_H2O
_symmetry_space_group_name_H-M   'P 1'
_cell_length_a   17.95922891
_cell_length_b   17.97317551
_cell_length_c   21.97553992
_cell_angle_alpha   90.00078362
_cell_angle_beta   89.96563297
_cell_angle_gamma   120.03814587
_symmetry_Int_Tables_number   1
_chemical_formula_structural   H2O
_chemical_formula_sum   'H384 O192'
_cell_volume   6140.66663909
_cell_formula_units_Z   192
loop_
 _symmetry_equiv_pos_site_id
 _symmetry_equiv_pos_as_xyz
  1  'x, y, z'
loop_
 _atom_type_symbol
 _atom_type_oxidation_number
  H+  1.0
  O2-  -2.0
loop_
 _atom_site_type_symbol
 _atom_site_label
 _atom_site_symmetry_multiplicity
 _atom_site_fract_x
 _atom_site_fract_y
 _atom_site_fract_z
 _atom_site_occupancy
  H+  H0  1  0.82227295  0.15984208  0.39702798  1
  H+  H1  1  0.01479466  0.98039991  0.04598517  1
  H+  H2  1  0.15421721  0.53184557  0.18168800  1
  H+  H3  1  0.07716383  0.40608411  0.88901924  1
  H+  H4  1  1.03683601  0.57717029  0.27027200  1
  H+  H5  1  0.22083607  0.35645367  0.50846164  1
  H+  H6  1  0.85954556  -0.01200001  0.34508095  1
  H+  H7  1  0.63683872  0.53075537  0.49775806  1
  H+  H8  1  0.63944046  0.35120738  0.84391280  1
  H+  H9  1  0.83727775  0.13977401  -0.01835964  1
  H+  H10  1  0.86770571  0.46878307  0.83345533  1
  H+  H11  1  0.42210552  0.30967675  0.65370775  1
  H+  H12  1  0.64844725  0.30096391  0.25212570  1
  H+  H13  1  0.39306317  1.02902801  0.17896486  1
  H+  H14  1  0.52359285  0.63111406  0.15839071  1
  H+  H15  1  0.62439926  0.86317561  0.32892147  1
  H+  H16  1  0.35515595  0.62069547  0.33036550  1
  H+  H17  1  0.77028456  0.39342486  0.00733352  1
  H+  H18  1  0.24853989  0.88342678  0.99921888  1
  H+  H19  1  0.88822714  0.36131721  0.18187653  1
  H+  H20  1  0.35998113  0.88940798  0.82862906  1
  H+  H21  1  0.13686738  0.36293345  0.51420284  1
  H+  H22  1  0.65084071  1.00353339  0.48499190  1
  H+  H23  1  0.34994272  0.88930680  0.66413443  1
  H+  H24  1  0.41375791  0.08034110  0.27290904  1
  H+  H25  1  0.88717066  0.52264744  0.14720154  1
  H+  H26  1  0.50002830  0.72312387  0.94964877  1
  H+  H27  1  0.10668786  0.71137233  0.19773674  1
  H+  H28  1  0.36984456  0.23081357  0.16483147  1
  H+  H29  1  0.85840930  0.13851564  0.48712835  1
  H+  H30  1  0.62238626  0.38573786  0.02084931  1
  H+  H31  1  0.94008475  0.05747760  0.93213628  1
  H+  H32  1  0.81723815  0.41219063  0.31665991  1
  H+  H33  1  0.32432382  0.11009705  0.70062500  1
  H+  H34  1  0.80898139  0.52652573  0.38309287  1
  H+  H35  1  0.87665334  0.51774454  0.66162683  1
  H+  H36  1  0.77631482  0.88959171  0.81652271  1
  H+  H37  1  0.36344185  0.88518556  0.16415666  1
  H+  H38  1  0.88300688  0.61263816  0.50500119  1
  H+  H39  1  0.61362344  0.96320051  0.82026639  1
  H+  H40  1  0.37442739  0.65033958  0.66448432  1
  H+  H41  1  0.36448670  0.38705650  0.33969493  1
  H+  H42  1  0.87996308  0.02068036  0.17109197  1
  H+  H43  1  0.58683599  0.92414618  0.39157133  1
  H+  H44  1  0.63668533  0.59348908  0.82958440  1
  H+  H45  1  0.22304724  0.86591417  0.50455834  1
  H+  H46  1  0.18046984  0.06222339  0.67486805  1
  H+  H47  1  0.29316054  0.14936623  0.01202814  1
  H+  H48  1  0.97362196  0.86514007  0.18110523  1
  H+  H49  1  0.60632114  0.42078841  0.58126830  1
  H+  H50  1  0.13434789  0.86696546  0.32995521  1
  H+  H51  1  0.13759444  0.24391611  0.01191773  1
  H+  H52  1  0.60281306  0.85681839  0.17043874  1
  H+  H53  1  0.89393696  0.61328237  0.14512824  1
  H+  H54  1  0.62941881  0.71847114  0.81618707  1
  H+  H55  1  0.62555386  0.63386606  0.00475612  1
  H+  H56  1  0.60257226  0.62538545  0.49148977  1
  H+  H57  1  0.51581958  0.39566578  0.62885760  1
  H+  H58  1  0.17567195  0.08128477  0.26781761  1
  H+  H59  1  0.10616147  0.65515655  0.03144141  1
  H+  H60  1  0.88324034  0.05664185  0.57504813  1
  H+  H61  1  0.22951176  0.11232548  0.33002924  1
  H+  H62  1  0.96965352  0.11803928  0.49478785  1
  H+  H63  1  0.38678358  0.16118395  0.01250528  1
  H+  H64  1  0.51268955  0.86412050  0.01278288  1
  H+  H65  1  0.10862217  0.73300685  0.50736266  1
  H+  H66  1  0.08022129  0.64339644  0.35140682  1
  H+  H67  1  0.38287960  0.51710412  0.32652564  1
  H+  H68  1  0.61678479  0.39937364  0.31858753  1
  H+  H69  1  0.63838316  0.85219962  0.99061413  1
  H+  H70  1  0.64571557  0.85633936  0.83139936  1
  H+  H71  1  0.52048526  0.14284463  0.68642179  1
  H+  H72  1  0.35107498  0.87828561  0.33270466  1
  H+  H73  1  0.65833636  0.07923291  0.26448053  1
  H+  H74  1  0.95347607  0.35542882  0.66790398  1
  H+  H75  1  0.35890701  0.12275162  0.85334560  1
  H+  H76  1  0.15628106  0.61552681  0.20235911  1
  H+  H77  1  0.77743593  0.64065696  0.16115626  1
  H+  H78  1  0.62228296  0.37421336  0.66986571  1
  H+  H79  1  0.10927595  0.22267443  0.82355493  1
  H+  H80  1  0.11522624  0.62692807  0.82797924  1
  H+  H81  1  0.11249847  -0.01329380  0.48952237  1
  H+  H82  1  0.61053554  0.22374961  0.48918503  1
  H+  H83  1  0.62849208  0.36655847  0.74102303  1
  H+  H84  1  0.07242151  0.48682498  0.35451889  1
  H+  H85  1  0.64350382  0.27288085  1.00379736  1
  H+  H86  1  1.08794948  0.37524398  0.70112129  1
  H+  H87  1  0.78019040  0.38946516  0.47726311  1
  H+  H88  1  0.12427429  0.73588637  -0.00717542  1
  H+  H89  1  0.15622919  0.83467755  0.60445572  1
  H+  H90  1  0.88424098  0.35081863  0.84213015  1
  H+  H91  1  0.48212278  0.93130262  0.87686222  1
  H+  H92  1  0.11658890  0.48226708  0.50438741  1
  H+  H93  1  0.61773728  0.47108684  1.02079851  1
  H+  H94  1  0.37973759  0.01608420  0.33015990  1
  H+  H95  1  0.12928096  0.36094149  0.83070928  1
  H+  H96  1  0.88288697  0.37574288  0.99129271  1
  H+  H97  1  1.02349652  0.89626868  0.34165686  1
  H+  H98  1  0.37223190  0.75994207  0.32258078  1
  H+  H99  1  0.85977735  0.62190210  0.82233449  1
  H+  H100  1  0.36853086  0.75577530  0.49543848  1
  H+  H101  1  0.87177783  0.96507962  0.01058877  1
  H+  H102  1  0.48567770  0.10525760  0.49884090  1
  H+  H103  1  0.72499747  0.21972598  0.04536775  1
  H+  H104  1  0.72919720  0.61792747  0.64812135  1
  H+  H105  1  0.23639432  0.11467377  0.17414964  1
  H+  H106  1  0.61583556  0.63686648  0.66032385  1
  H+  H107  1  0.85570784  0.88264688  0.16750882  1
  H+  H108  1  0.20322422  0.54061960  0.92189999  1
  H+  H109  1  0.26649260  0.63628035  0.49086735  1
  H+  H110  1  0.61154240  0.21379031  0.83672761  1
  H+  H111  1  0.90096697  0.28124226  0.17692163  1
  H+  H112  1  0.72883831  0.60775237  0.98935054  1
  H+  H113  1  0.39686965  0.27684602  0.50286873  1
  H+  H114  1  1.00747149  0.37548112  1.00314631  1
  H+  H115  1  0.86121669  0.63398916  0.66833665  1
  H+  H116  1  0.20737608  0.18637872  0.55180280  1
  H+  H117  1  0.47991824  0.36593087  0.17657343  1
  H+  H118  1  0.02415800  0.12889913  0.15799274  1
  H+  H119  1  0.85598331  0.21540365  0.84072117  1
  H+  H120  1  0.72099305  0.85812144  0.18185993  1
  H+  H121  1  0.14082093  0.77998441  0.33707073  1
  H+  H122  1  0.38809055  0.60850667  0.16959251  1
  H+  H123  1  0.78387781  0.39706420  0.19657910  1
  H+  H124  1  0.64173787  0.52618484  0.63328865  1
  H+  H125  1  1.02036958  0.63327382  0.67497304  1
  H+  H126  1  0.61718713  0.72651468  0.66051090  1
  H+  H127  1  0.88356082  0.15225124  0.97713467  1
  H+  H128  1  0.14267626  0.62240143  0.50789138  1
  H+  H129  1  0.89041573  0.53052493  -0.00627497  1
  H+  H130  1  0.09325034  0.12142804  0.67361385  1
  H+  H131  1  0.34436218  0.93021363  0.07355415  1
  H+  H132  1  0.64232411  0.52605665  0.18167574  1
  H+  H133  1  0.71519929  0.86569025  0.33647924  1
  H+  H134  1  0.38775084  0.27147261  0.32772747  1
  H+  H135  1  0.88596282  0.52460095  0.49902208  1
  H+  H136  1  0.14588194  0.26816792  0.17522056  1
  H+  H137  1  0.71124587  0.09020859  0.84792075  1
  H+  H138  1  0.02488270  0.38763632  0.35204664  1
  H+  H139  1  0.02448037  0.62471686  0.17559873  1
  H+  H140  1  0.16526273  0.33234465  0.77424098  1
  H+  H141  1  0.66807297  0.32894193  0.94064955  1
  H+  H142  1  0.46920326  0.61038121  0.32683354  1
  H+  H143  1  0.21814550  0.10825174  0.86253700  1
  H+  H144  1  0.38312892  0.65669169  0.00486800  1
  H+  H145  1  0.22315573  0.59535340  0.82424249  1
  H+  H146  1  0.36278256  0.29111695  0.98423700  1
  H+  H147  1  0.73055134  0.86009585  0.64959804  1
  H+  H148  1  0.33422000  0.41689931  0.39907010  1
  H+  H149  1  0.15825353  0.87967687  0.99839273  1
  H+  H150  1  0.38205606  0.61329156  0.50385059  1
  H+  H151  1  0.39183414  0.11721993  0.17867866  1
  H+  H152  1  0.36543974  0.38683917  0.14046395  1
  H+  H153  1  0.31212119  0.44233779  1.04573435  1
  H+  H154  1  0.87574013  0.84950934  0.99802302  1
  H+  H155  1  0.07893754  0.31267796  -0.01859619  1
  H+  H156  1  0.97973612  0.10993228  0.99144249  1
  H+  H157  1  0.64224600  0.12239336  0.66576339  1
  H+  H158  1  0.72746986  0.34929985  0.84544147  1
  H+  H159  1  0.11606457  0.97710054  0.17192697  1
  H+  H160  1  0.38151059  0.40427799  0.66443606  1
  H+  H161  1  0.37133994  0.02228168  0.67477306  1
  H+  H162  1  0.47462059  0.87180820  0.64253090  1
  H+  H163  1  0.67068761  0.08944107  0.56879629  1
  H+  H164  1  0.60152487  0.94822934  0.03255381  1
  H+  H165  1  0.28574158  0.14254611  0.50585673  1
  H+  H166  1  0.17382944  0.14216589  0.00867594  1
  H+  H167  1  0.86538436  0.23047277  0.67510848  1
  H+  H168  1  0.27767109  0.63309621  0.16560760  1
  H+  H169  1  0.38166935  0.76084401  0.17247866  1
  H+  H170  1  0.10080951  0.21331392  0.32280519  1
  H+  H171  1  0.12632147  0.02080829  0.85900309  1
  H+  H172  1  0.23927068  0.63527239  0.65577972  1
  H+  H173  1  0.86401976  0.23138521  0.49182057  1
  H+  H174  1  0.97405031  0.34880182  0.84876362  1
  H+  H175  1  0.60569195  0.13771178  1.02785718  1
  H+  H176  1  0.52663273  0.38867750  0.48126262  1
  H+  H177  1  0.47577020  0.36190460  0.32390032  1
  H+  H178  1  0.85668352  0.55543729  0.37948227  1
  H+  H179  1  0.32281313  0.41100659  -0.01777417  1
  H+  H180  1  0.59818025  0.96922783  0.32842043  1
  H+  H181  1  0.07358493  0.92571210  0.11215504  1
  H+  H182  1  0.58902424  0.41948517  0.42225188  1
  H+  H183  1  0.36871856  0.13118833  0.49939546  1
  H+  H184  1  0.85555600  0.08702155  0.63513073  1
  H+  H185  1  0.14442332  0.11083984  0.17652121  1
  H+  H186  1  0.61202941  0.97756990  0.66644576  1
  H+  H187  1  0.76240886  0.12518721  0.33704342  1
  H+  H188  1  0.16845855  0.83782905  0.23849500  1
  H+  H189  1  0.65150041  0.77097202  -0.00966263  1
  H+  H190  1  0.51433370  0.65639653  -0.01454759  1
  H+  H191  1  0.28296143  0.61712177  0.00290359  1
  H+  H192  1  0.21898218  0.85537240  0.83922830  1
  H+  H193  1  0.66653332  0.57358612  0.93101339  1
  H+  H194  1  0.11002188  0.89331289  0.83929364  1
  H+  H195  1  0.02091408  0.64100006  0.50280870  1
  H+  H196  1  0.60523938  0.73169994  0.34613375  1
  H+  H197  1  0.86170808  0.72147947  0.00600024  1
  H+  H198  1  0.47995095  0.61755072  0.65381920  1
  H+  H199  1  0.24227165  0.49514567  0.96704667  1
  H+  H200  1  0.88054829  0.37658070  0.33620440  1
  H+  H201  1  0.41282721  0.33543622  0.23105113  1
  H+  H202  1  0.77428445  0.64778485  0.49343990  1
  H+  H203  1  0.53859223  0.15708025  0.16953696  1
  H+  H204  1  0.36543983  0.38751461  0.49191945  1
  H+  H205  1  0.72768720  0.12571130  0.17835552  1
  H+  H206  1  0.36463572  -0.03530168  0.48015618  1
  H+  H207  1  0.50067590  0.85300712  0.16774672  1
  H+  H208  1  0.60213335  0.23637502  0.69595477  1
  H+  H209  1  0.88525659  0.03021590  0.47364960  1
  H+  H210  1  0.52955076  0.87223097  0.81808458  1
  H+  H211  1  0.13701709  0.27108283  0.68561359  1
  H+  H212  1  0.85903471  0.75258051  0.34267902  1
  H+  H213  1  0.61880946  0.39423573  0.18441102  1
  H+  H214  1  0.88598816  0.76289808  0.84116904  1
  H+  H215  1  0.38328309  0.01576225  0.84827059  1
  H+  H216  1  0.13829134  0.87405244  0.50617353  1
  H+  H217  1  0.64719063  0.05331298  1.10106499  1
  H+  H218  1  0.10972780  0.13405854  0.83771329  1
  H+  H219  1  0.13712784  0.86043347  0.17714183  1
  H+  H220  1  0.89335229  0.36803848  0.50287589  1
  H+  H221  1  0.87876964  0.10248157  0.32685923  1
  H+  H222  1  0.64446202  0.86422563  0.64353572  1
  H+  H223  1  0.89260638  0.77759293  0.51437330  1
  H+  H224  1  0.09986967  0.12356042  0.32631983  1
  H+  H225  1  0.53437037  0.37683833  0.82228705  1
  H+  H226  1  0.72734249  0.11557231  0.66595091  1
  H+  H227  1  0.83143894  0.67073422  0.09886923  1
  H+  H228  1  0.86968324  0.98813599  0.81873874  1
  H+  H229  1  0.50346890  0.62313439  0.49296645  1
  H+  H230  1  0.88762998  0.25678696  0.32629404  1
  H+  H231  1  0.39161552  0.35696835  0.82428152  1
  H+  H232  1  0.61653026  0.13762025  0.49469377  1
  H+  H233  1  0.12557815  0.77332884  0.66336326  1
  H+  H234  1  0.22473323  0.36335691  0.68132076  1
  H+  H235  1  0.28329484  0.39646855  0.81852206  1
  H+  H236  1  0.86845823  0.72596696  0.67281519  1
  H+  H237  1  0.98071269  0.86810917  0.50996600  1
  H+  H238  1  0.96895571  0.86378540  0.99827953  1
  H+  H239  1  0.83513863  0.37528590  0.67448551  1
  H+  H240  1  0.62746281  0.10491461  0.32582980  1
  H+  H241  1  0.88515104  0.77508948  0.17666910  1
  H+  H242  1  0.86459473  0.14254566  0.15575472  1
  H+  H243  1  0.13343229  0.50615577  0.83895986  1
  H+  H244  1  0.69817095  0.84467958  0.54266994  1
  H+  H245  1  0.85716433  0.96695068  0.65905166  1
  H+  H246  1  0.38770761  0.26654702  0.83704173  1
  H+  H247  1  0.04975062  0.85143682  0.65955887  1
  H+  H248  1  0.78391189  0.89064650  0.45034417  1
  H+  H249  1  0.38926258  0.52935305  0.65637822  1
  H+  H250  1  0.46336032  0.84861912  0.32778710  1
  H+  H251  1  0.51960722  0.12754476  0.33917251  1
  H+  H252  1  0.50071278  0.13799903  0.01052805  1
  H+  H253  1  0.75319062  0.38642670  0.69283890  1
  H+  H254  1  0.36916613  0.85327079  0.49273709  1
  H+  H255  1  0.38417788  0.99611627  0.01701011  1
  H+  H256  1  0.98048849  0.61942556  0.98564811  1
  H+  H257  1  0.28992320  0.17512079  0.71200238  1
  H+  H258  1  0.88473244  0.10441970  0.84450805  1
  H+  H259  1  0.57989582  0.90871838  0.71945809  1
  H+  H260  1  0.62483744  0.46404660  0.82279060  1
  H+  H261  1  0.36320284  0.13195438  0.34314743  1
  H+  H262  1  0.11017400  0.44424735  0.99498551  1
  H+  H263  1  0.36025542  0.47378511  0.49411970  1
  H+  H264  1  0.60934620  0.64403834  0.34216494  1
  H+  H265  1  0.73284345  0.12657404  0.50967683  1
  H+  H266  1  0.26241237  0.88250187  0.33528148  1
  H+  H267  1  0.40380808  0.82663508  0.55755138  1
  H+  H268  1  0.21836088  0.34638501  0.32715761  1
  H+  H269  1  0.47519207  0.10231058  0.84853057  1
  H+  H270  1  0.36340688  0.47275321  0.14618263  1
  H+  H271  1  0.27517446  0.88689688  0.16682063  1
  H+  H272  1  0.96599055  0.51201089  0.31864855  1
  H+  H273  1  0.02840323  0.41296116  0.15652430  1
  H+  H274  1  0.14694011  0.62860999  0.65713722  1
  H+  H275  1  0.37196865  0.76855051  0.99898916  1
  H+  H276  1  0.66624471  0.87376180  0.48643573  1
  H+  H277  1  0.72143935  0.62767122  0.33190680  1
  H+  H278  1  0.10558031  0.00682014  1.02059178  1
  H+  H279  1  0.38850455  0.78198801  0.64788728  1
  H+  H280  1  0.11690038  0.98157599  0.33928713  1
  H+  H281  1  0.36277041  0.72333194  0.82337331  1
  H+  H282  1  0.88232357  0.87911494  0.33217097  1
  H+  H283  1  0.09672613  0.14022377  0.49621756  1
  H+  H284  1  0.23165520  0.35736249  0.16486580  1
  H+  H285  1  0.08797751  -0.01144876  0.65093625  1
  H+  H286  1  0.10264227  0.23171031  0.50102526  1
  H+  H287  1  0.77482635  0.88442012  0.00759939  1
  H+  H288  1  0.44250368  0.61091361  0.88903883  1
  H+  H289  1  0.41507057  0.57438294  0.22745828  1
  H+  H290  1  0.32393657  0.90201047  0.42230899  1
  H+  H291  1  0.91211927  0.08127135  0.22828095  1
  H+  H292  1  0.16952410  0.09418290  0.57934513  1
  H+  H293  1  0.44016353  0.09685629  0.95046282  1
  H+  H294  1  0.70635392  0.99000171  0.43660637  1
  H+  H295  1  0.85143998  0.60398413  0.26445811  1
  H+  H296  1  0.82483408  0.16048741  0.78046959  1
  H+  H297  1  0.90240142  0.17515924  0.70386514  1
  H+  H298  1  0.75737557  0.33020281  0.14120840  1
  H+  H299  1  0.57052723  0.65993834  0.42886799  1
  H+  H300  1  0.90981537  0.84597802  0.27179928  1
  H+  H301  1  0.62344015  0.09024136  0.84316004  1
  H+  H302  1  0.82871103  0.65364314  0.76397540  1
  H+  H303  1  0.69693521  0.09537809  1.04090260  1
  H+  H304  1  0.35053640  0.42763768  0.72668244  1
  H+  H305  1  0.17061409  0.09067851  0.94749958  1
  H+  H306  1  0.43018473  0.04490982  0.55287703  1
  H+  H307  1  0.97809216  0.60553943  0.83880652  1
  H+  H308  1  0.49258150  0.62044363  0.82725405  1
  H+  H309  1  0.83669419  0.68388207  0.43696443  1
  H+  H310  1  0.08332530  0.42712116  0.44402295  1
  H+  H311  1  0.33575389  0.16444743  0.40207458  1
  H+  H312  1  0.41900833  0.84801670  0.91114264  1
  H+  H313  1  0.20319514  0.71995641  0.10322416  1
  H+  H314  1  0.90996202  0.57467758  0.60051528  1
  H+  H315  1  0.87453641  0.88745702  0.67082957  1
  H+  H316  1  0.23771421  0.74734181  0.08081828  1
  H+  H317  1  0.59432843  0.66349917  0.75498883  1
  H+  H318  1  0.17075948  0.32507567  0.26369676  1
  H+  H319  1  0.72693745  0.59718108  0.83382406  1
  H+  H320  1  0.38273684  0.33499741  0.92031553  1
  H+  H321  1  0.58046192  0.15734827  0.77627761  1
  H+  H322  1  0.82271006  0.90780728  0.10761241  1
  H+  H323  1  0.83078974  0.42348547  0.06632588  1
  H+  H324  1  0.81855805  0.55678638  0.26166609  1
  H+  H325  1  0.33221509  0.66097948  0.10142967  1
  H+  H326  1  0.91049103  0.81828427  0.90161067  1
  H+  H327  1  0.11313507  0.71561777  0.83111418  1
  H+  H328  1  0.34956181  0.68345893  0.72421901  1
  H+  H329  1  0.90300879  0.32854050  0.93528201  1
  H+  H330  1  0.61167462  0.72058495  0.16427022  1
  H+  H331  1  0.66649580  0.59430023  0.27025297  1
  H+  H332  1  0.56557448  0.87439661  0.10358276  1
  H+  H333  1  0.93582090  0.83863997  0.59667256  1
  H+  H334  1  0.41411100  0.58668218  0.56515149  1
  H+  H335  1  0.41320653  0.82086669  0.23391098  1
  H+  H336  1  0.39567592  0.09902497  0.62796216  1
  H+  H337  1  0.66048386  0.82746530  0.24243513  1
  H+  H338  1  0.38430854  0.86529627  1.00315060  1
  H+  H339  1  0.30831964  0.13087864  0.79687916  1
  H+  H340  1  0.59738963  0.19025100  0.10952635  1
  H+  H341  1  0.32595668  0.66161808  0.42932609  1
  H+  H342  1  0.16779198  0.82911379  0.90106225  1
  H+  H343  1  0.10164955  0.17347241  0.10773704  1
  H+  H344  1  0.34602811  0.17580772  0.10400760  1
  H+  H345  1  0.90635217  0.33054340  0.60223763  1
  H+  H346  1  0.04795749  0.40018558  0.75473179  1
  H+  H347  1  0.01952326  0.88844372  0.83976514  1
  H+  H348  1  0.61364768  0.48455841  0.33226567  1
  H+  H349  1  0.58395496  0.16119337  0.39466740  1
  H+  H350  1  0.25898700  0.88657492  0.67202071  1
  H+  H351  1  0.37532120  0.48256027  0.82445209  1
  H+  H352  1  0.97100811  0.10192205  0.32174218  1
  H+  H353  1  0.81883171  0.25127089  0.01722264  1
  H+  H354  1  0.68021780  0.83127508  0.89106168  1
  H+  H355  1  0.98209588  0.36855950  0.51062346  1
  H+  H356  1  0.97686665  0.10770623  0.83750910  1
  H+  H357  1  0.63669167  0.36520189  0.48965748  1
  H+  H358  1  0.11826933  0.28680498  0.92567075  1
  H+  H359  1  0.82346990  0.18434342  0.10947121  1
  H+  H360  1  0.10080910  0.69036434  0.41613748  1
  H+  H361  1  0.22893722  0.59656613  0.28569726  1
  H+  H362  1  0.22038526  0.27153486  0.05358098  1
  H+  H363  1  0.08036553  0.66257398  0.73424760  1
  H+  H364  1  0.59737375  0.41616855  0.11616171  1
  H+  H365  1  0.66597796  0.59274943  0.55789134  1
  H+  H366  1  0.37903075  0.64419097  0.81819979  1
  H+  H367  1  0.85794135  0.66395082  0.34173112  1
  H+  H368  1  0.83844287  0.92394621  0.75088604  1
  H+  H369  1  0.42813196  0.34441338  0.55861880  1
  H+  H370  1  0.17988631  0.60008342  0.56720457  1
  H+  H371  1  0.83466572  0.41037134  0.77407253  1
  H+  H372  1  0.59706866  0.66619223  0.06554944  1
  H+  H373  1  0.63977889  0.61366296  0.17566053  1
  H+  H374  1  0.84760999  0.42135058  0.42201956  1
  H+  H375  1  0.08454374  0.43273932  0.09693962  1
  H+  H376  1  0.86350358  0.63375156  0.00626599  1
  H+  H377  1  0.92728627  0.32404625  0.27011697  1
  H+  H378  1  0.67052869  0.34192972  0.54926703  1
  H+  H379  1  0.32756691  0.91362828  0.76729872  1
  H+  H380  1  0.08430393  0.92625975  0.43085142  1
  H+  H381  1  0.91709001  0.58145999  0.89748391  1
  H+  H382  1  0.07568763  0.15432190  0.73550966  1
  H+  H383  1  0.64119411  0.13143952  0.17559417  1
  O2-  O384  1  0.08705782  0.15536592  0.15085503  1
  O2-  O385  1  0.06673792  0.17084599  0.48489477  1
  O2-  O386  1  0.07669501  0.15857953  0.81736546  1
  O2-  O387  1  0.08152263  0.45729902  0.13622827  1
  O2-  O388  1  0.08478714  0.42170627  0.48994443  1
  O2-  O389  1  0.07434663  0.40245882  0.84475986  1
  O2-  O390  1  0.07792798  0.64801510  0.20087507  1
  O2-  O391  1  0.08341749  0.67296727  0.49221674  1
  O2-  O392  1  0.08363700  0.65624236  0.81368949  1
  O2-  O393  1  0.07987919  0.91675964  0.15610920  1
  O2-  O394  1  0.08550849  0.92659783  0.47718928  1
  O2-  O395  1  0.08243176  0.92790168  0.83131638  1
  O2-  O396  1  0.34106064  0.16991466  0.14958945  1
  O2-  O397  1  0.34280985  0.16538417  0.48549332  1
  O2-  O398  1  0.32497212  0.15028410  0.83938488  1
  O2-  O399  1  0.33412700  0.41577892  0.12574710  1
  O2-  O400  1  0.33149870  0.41440679  0.47781107  1
  O2-  O401  1  0.34510737  0.42382205  0.80672559  1
  O2-  O402  1  0.33771664  0.66469138  0.14665849  1
  O2-  O403  1  0.32919490  0.66680016  0.47445211  1
  O2-  O404  1  0.34339573  0.66907045  0.80219271  1
  O2-  O405  1  0.33590664  0.91833220  0.15094121  1
  O2-  O406  1  0.32830099  0.90293215  0.46895650  1
  O2-  O407  1  0.32540534  0.91422168  0.81248954  1
  O2-  O408  1  0.59931134  0.19044093  0.15652196  1
  O2-  O409  1  0.58107354  0.16190786  0.47770823  1
  O2-  O410  1  0.57821505  0.15277557  0.82148273  1
  O2-  O411  1  0.59073870  0.42091511  0.16183452  1
  O2-  O412  1  0.58873803  0.41962828  0.46799413  1
  O2-  O413  1  0.59595768  0.40176916  0.81054682  1
  O2-  O414  1  0.58552554  0.66274255  0.14511817  1
  O2-  O415  1  0.56597409  0.65140157  0.47580736  1
  O2-  O416  1  0.59415667  0.65902921  0.80060203  1
  O2-  O417  1  0.56508154  0.87865679  0.14994408  1
  O2-  O418  1  0.64996546  0.95948686  0.45614919  1
  O2-  O419  1  0.58854911  0.90284797  0.80190329  1
  O2-  O420  1  0.83755232  0.17907149  0.15226321  1
  O2-  O421  1  0.82734123  0.17091784  0.47688175  1
  O2-  O422  1  0.82530467  0.15395138  0.82504514  1
  O2-  O423  1  0.80635697  0.38440027  0.15479836  1
  O2-  O424  1  0.84230205  0.42202141  0.46772230  1
  O2-  O425  1  0.83685366  0.40733994  0.81927648  1
  O2-  O426  1  0.83700512  0.67381091  0.14442853  1
  O2-  O427  1  0.83609234  0.67616536  0.48203696  1
  O2-  O428  1  0.82673695  0.65036566  0.80925093  1
  O2-  O429  1  0.82172377  0.90985267  0.15308590  1
  O2-  O430  1  0.84103840  0.92940546  0.42948658  1
  O2-  O431  1  0.83610896  0.92726828  0.79843124  1
  O2-  O432  1  0.17644102  0.08180584  0.19110704  1
  O2-  O433  1  0.19146557  0.12778813  0.54008892  1
  O2-  O434  1  0.15651309  0.08333810  0.87408825  1
  O2-  O435  1  0.17573291  0.32950315  0.18650240  1
  O2-  O436  1  0.16266120  0.32752421  0.52661477  1
  O2-  O437  1  0.16604429  0.33239366  0.81999278  1
  O2-  O438  1  0.19173536  0.58703152  0.20459741  1
  O2-  O439  1  0.17748952  0.59575845  0.52057836  1
  O2-  O440  1  0.17052785  0.57018236  0.84924226  1
  O2-  O441  1  0.17000739  0.83346492  0.19288381  1
  O2-  O442  1  0.16593946  0.84286776  0.52423823  1
  O2-  O443  1  0.15985339  0.82260194  0.85645496  1
  O2-  O444  1  0.42199966  0.08795536  0.19623615  1
  O2-  O445  1  0.42357966  0.06670961  0.51390147  1
  O2-  O446  1  0.41669490  0.07330831  0.86778123  1
  O2-  O447  1  0.41698741  0.33560391  0.18574705  1
  O2-  O448  1  0.42621808  0.33933556  0.51235329  1
  O2-  O449  1  0.42355643  0.32997822  0.84159630  1
  O2-  O450  1  0.41873240  0.57734344  0.18221723  1
  O2-  O451  1  0.41406609  0.58477963  0.51887444  1
  O2-  O452  1  0.43322880  0.59675117  0.84492668  1
  O2-  O453  1  0.41659512  0.82263929  0.18787695  1
  O2-  O454  1  0.39832132  0.82036540  0.51073442  1
  O2-  O455  1  0.43699930  0.87216246  0.86859510  1
  O2-  O456  1  0.66445021  0.09107693  0.18405106  1
  O2-  O457  1  0.67072419  0.09171136  0.52344883  1
  O2-  O458  1  0.64828665  0.05323308  0.85401210  1
  O2-  O459  1  0.66050059  0.36045564  0.25557431  1
  O2-  O460  1  0.66666000  0.33388081  0.50527371  1
  O2-  O461  1  0.66685631  0.31802234  0.86029520  1
  O2-  O462  1  0.67270334  0.58824265  0.19445477  1
  O2-  O463  1  0.66138113  0.59144547  0.51128126  1
  O2-  O464  1  0.66549103  0.56455513  0.84881782  1
  O2-  O465  1  0.65952678  0.82526490  0.19654863  1
  O2-  O466  1  0.69770268  0.84382978  0.49769688  1
  O2-  O467  1  0.68161365  0.83125664  0.84558290  1
  O2-  O468  1  0.91346663  0.08251680  0.18298919  1
  O2-  O469  1  0.90394035  0.08053634  0.50057008  1
  O2-  O470  1  0.91507578  0.07118928  0.85222433  1
  O2-  O471  1  0.92880162  0.34116301  0.19337607  1
  O2-  O472  1  0.91879812  0.33569443  0.52209464  1
  O2-  O473  1  0.90926268  0.31681167  0.86008767  1
  O2-  O474  1  0.92688075  0.58312503  0.13827092  1
  O2-  O475  1  0.91222079  0.58158077  0.52019911  1
  O2-  O476  1  0.91639247  0.57515711  0.85205604  1
  O2-  O477  1  0.91167405  0.83492643  0.19385427  1
  O2-  O478  1  0.92555279  0.83639144  0.53247536  1
  O2-  O479  1  0.91520328  0.82247104  0.85671575  1
  O2-  O480  1  0.16998642  0.07859961  0.31330159  1
  O2-  O481  1  0.13369920  0.05013677  0.64567718  1
  O2-  O482  1  0.18189875  0.09441892  0.99292299  1
  O2-  O483  1  0.16116345  0.31390785  0.30838426  1
  O2-  O484  1  0.16467518  0.33366906  0.69612511  1
  O2-  O485  1  0.08552423  0.26456336  0.96323742  1
  O2-  O486  1  0.23420201  0.59793822  0.33105339  1
  O2-  O487  1  0.18070543  0.60479843  0.63819640  1
  O2-  O488  1  0.20910440  0.52594767  0.96469597  1
  O2-  O489  1  0.16585614  0.83827718  0.31450443  1
  O2-  O490  1  0.15182691  0.83474198  0.64966816  1
  O2-  O491  1  0.18766124  0.85031299  0.98317874  1
  O2-  O492  1  0.41154063  0.07828598  0.31866814  1
  O2-  O493  1  0.39954622  0.08729468  0.67081407  1
  O2-  O494  1  0.43861556  0.10157892  0.99526405  1
  O2-  O495  1  0.41424539  0.33130405  0.31144679  1
  O2-  O496  1  0.44030436  0.36259874  0.63113116  1
  O2-  O497  1  0.35266874  0.33044293  0.95895881  1
  O2-  O498  1  0.41031490  0.57796481  0.30944556  1
  O2-  O499  1  0.41877848  0.58994716  0.63955639  1
  O2-  O500  1  0.46945069  0.66281694  0.96171347  1
  O2-  O501  1  0.40474754  0.82124178  0.30891451  1
  O2-  O502  1  0.41329484  0.84092043  0.62840714  1
  O2-  O503  1  0.40806346  0.82990796  0.98539634  1
  O2-  O504  1  0.65688381  0.07272950  0.30977188  1
  O2-  O505  1  0.66897475  0.08979525  0.64896244  1
  O2-  O506  1  0.64315999  0.04549387  1.05613808  1
  O2-  O507  1  0.75619819  0.41147719  0.25536276  1
  O2-  O508  1  0.64096912  0.34623856  0.70226097  1
  O2-  O509  1  0.67319329  0.33461286  0.98574558  1
  O2-  O510  1  0.66139989  0.59383652  0.31611110  1
  O2-  O511  1  0.67047414  0.59212022  0.62982227  1
  O2-  O512  1  0.66711904  0.57801166  0.97625133  1
  O2-  O513  1  0.65672027  0.83213831  0.31814904  1
  O2-  O514  1  0.67302548  0.83202385  0.62994510  1
  O2-  O515  1  0.67422461  0.82993511  0.97223215  1
  O2-  O516  1  0.90394752  0.06696828  0.31264050  1
  O2-  O517  1  0.87037394  0.04520718  0.61952331  1
  O2-  O518  1  0.95472647  0.05200540  0.97483559  1
  O2-  O519  1  0.92328970  0.31875340  0.31552162  1
  O2-  O520  1  0.89567034  0.32475014  0.64725669  1
  O2-  O521  1  0.90358185  0.33494271  0.98091181  1
  O2-  O522  1  1.02807579  0.55280565  0.31174895  1
  O2-  O523  1  0.91047747  0.57777348  0.64588942  1
  O2-  O524  1  0.91796846  0.58902508  0.97493279  1
  O2-  O525  1  0.91258060  0.84855019  0.31737124  1
  O2-  O526  1  0.93285759  0.83581321  0.64605538  1
  O2-  O527  1  0.91044601  0.82396381  0.98260756  1
  O2-  O528  1  0.16448897  0.22238275  0.04303678  1
  O2-  O529  1  0.06307379  0.14950641  0.33134097  1
  O2-  O530  1  0.07682770  0.16190948  0.69071373  1
  O2-  O531  1  0.06719896  0.38920381  0.01424843  1
  O2-  O532  1  0.07497697  0.43736018  0.37106769  1
  O2-  O533  1  0.04360784  0.39079016  0.71060534  1
  O2-  O534  1  0.09028527  0.67220164  -0.00618289  1
  O2-  O535  1  0.11662366  0.69963052  0.37227972  1
  O2-  O536  1  0.08095399  0.66850068  0.68893227  1
  O2-  O537  1  0.05223583  0.95616286  0.03945668  1
  O2-  O538  1  0.08335987  0.92129186  0.35698865  1
  O2-  O539  1  0.02122267  0.88505228  0.67007923  1
  O2-  O540  1  0.35282093  0.18817873  0.02656231  1
  O2-  O541  1  0.33490460  0.16537844  0.35697357  1
  O2-  O542  1  0.27676097  0.11623719  0.71920403  1
  O2-  O543  1  0.30268638  0.44732845  0.00202326  1
  O2-  O544  1  0.33659358  0.42007686  0.35362319  1
  O2-  O545  1  0.34629660  0.42857788  0.68140575  1
  O2-  O546  1  0.33633694  0.66513816  0.02179507  1
  O2-  O547  1  0.32598336  0.65439338  0.34475048  1
  O2-  O548  1  0.34975803  0.68643682  0.67887655  1
  O2-  O549  1  0.34859141  0.93320151  0.02795747  1
  O2-  O550  1  0.32435255  0.90998421  0.35106771  1
  O2-  O551  1  0.32152927  0.91772036  0.68468130  1
  O2-  O552  1  0.59989530  0.18751098  0.03775254  1
  O2-  O553  1  0.58192305  0.15692812  0.34984618  1
  O2-  O554  1  0.58226504  0.17313739  0.69669758  1
  O2-  O555  1  0.59645640  0.41600779  0.04240258  1
  O2-  O556  1  0.58720312  0.42242496  0.34383432  1
  O2-  O557  1  0.59599768  0.42725469  0.62386424  1
  O2-  O558  1  0.60148355  0.67076772  0.02022156  1
  O2-  O559  1  0.57580039  0.66997059  0.36009775  1
  O2-  O560  1  0.58601565  0.66693035  0.67761023  1
  O2-  O561  1  0.57100502  0.88299965  0.03017996  1
  O2-  O562  1  0.56960188  0.91017657  0.34797277  1
  O2-  O563  1  0.57928912  0.91461031  0.67439165  1
  O2-  O564  1  0.77332437  0.20806551  0.04488015  1
  O2-  O565  1  0.82323749  0.15284529  0.35205039  1
  O2-  O566  1  0.84779961  0.17207651  0.69431726  1
  O2-  O567  1  0.83290105  0.42756712  0.02163337  1
  O2-  O568  1  0.86346416  0.42089748  0.34621348  1
  O2-  O569  1  0.81715748  0.41335873  0.69467557  1
  O2-  O570  1  0.82974533  0.66084344  0.02136176  1
  O2-  O571  1  0.82732742  0.69111752  0.35893158  1
  O2-  O572  1  0.83075864  0.66443205  0.68339565  1
  O2-  O573  1  0.83134697  0.90764754  0.02882714  1
  O2-  O574  1  0.82272493  0.92274212  0.36334861  1
  O2-  O575  1  0.83809501  0.91219817  0.68376761  1
