# generated using pymatgen
data_H2O
_symmetry_space_group_name_H-M   'P 1'
_cell_length_a   17.98713195
_cell_length_b   17.98389728
_cell_length_c   22.01966766
_cell_angle_alpha   89.98323185
_cell_angle_beta   89.99150066
_cell_angle_gamma   120.04425326
_symmetry_Int_Tables_number   1
_chemical_formula_structural   H2O
_chemical_formula_sum   'H384 O192'
_cell_volume   6165.85413137
_cell_formula_units_Z   192
loop_
 _symmetry_equiv_pos_site_id
 _symmetry_equiv_pos_as_xyz
  1  'x, y, z'
loop_
 _atom_type_symbol
 _atom_type_oxidation_number
  H+  1.0
  O2-  -2.0
loop_
 _atom_site_type_symbol
 _atom_site_label
 _atom_site_symmetry_multiplicity
 _atom_site_fract_x
 _atom_site_fract_y
 _atom_site_fract_z
 _atom_site_occupancy
  H+  H0  1  0.61299808  0.38939459  0.49113280  1
  H+  H1  1  0.14082953  0.15316661  0.36201165  1
  H+  H2  1  0.78191729  0.64422224  0.16038845  1
  H+  H3  1  0.44211554  0.44472731  0.33751865  1
  H+  H4  1  0.38423458  0.77814063  0.32575841  1
  H+  H5  1  0.65880094  0.55080323  0.96368645  1
  H+  H6  1  0.97875760  0.85899768  0.97338787  1
  H+  H7  1  0.07712795  0.65996116  0.43194994  1
  H+  H8  1  0.20999636  0.60257578  0.99415412  1
  H+  H9  1  0.90280629  0.59244203  0.55867436  1
  H+  H10  1  0.69123476  0.60303186  0.24184529  1
  H+  H11  1  0.59011091  0.91643047  0.60426909  1
  H+  H12  1  0.85104561  0.48753461  0.67266887  1
  H+  H13  1  0.63948271  0.40667825  0.01154906  1
  H+  H14  1  1.03658615  0.64703745  0.17048676  1
  H+  H15  1  0.77662524  0.88817138  0.82279996  1
  H+  H16  1  0.11925447  0.14366901  0.67144968  1
  H+  H17  1  0.02541159  0.14030658  0.82735898  1
  H+  H18  1  0.39400683  0.61883631  0.50277611  1
  H+  H19  1  0.10509454  0.98240567  0.01035670  1
  H+  H20  1  0.61738243  0.48578516  0.18139891  1
  H+  H21  1  0.58809908  0.45976722  0.03201413  1
  H+  H22  1  0.91622063  0.21430482  0.45120413  1
  H+  H23  1  0.64270147  0.36135528  0.84037603  1
  H+  H24  1  0.49775653  0.84424567  0.15298585  1
  H+  H25  1  0.01377964  0.89935888  0.82639829  1
  H+  H26  1  0.88791006  0.10541743  0.49463360  1
  H+  H27  1  0.52250287  0.63610912  0.16743451  1
  H+  H28  1  0.51090084  0.13235400  0.15685200  1
  H+  H29  1  0.47542740  0.37005315  0.18070170  1
  H+  H30  1  0.63835015  0.27180721  0.31730962  1
  H+  H31  1  0.87912882  1.00243712  0.31067747  1
  H+  H32  1  0.38509353  0.36820602  0.17776207  1
  H+  H33  1  0.14030419  0.61318201  0.50488480  1
  H+  H34  1  0.50331398  0.12476089  0.66706327  1
  H+  H35  1  0.36083170  0.02987278  0.82460227  1
  H+  H36  1  1.00919605  0.62229459  1.00629672  1
  H+  H37  1  0.09837474  0.24046542  0.33274162  1
  H+  H38  1  0.68735285  0.45915141  0.71045573  1
  H+  H39  1  0.33034893  0.65869422  0.72001661  1
  H+  H40  1  0.59844620  0.22310576  0.81912911  1
  H+  H41  1  0.02634255  0.91734445  0.05090357  1
  H+  H42  1  0.53755005  0.59114589  0.35946668  1
  H+  H43  1  0.62536613  0.14068217  0.48551187  1
  H+  H44  1  0.38163566  0.10700379  -0.00774641  1
  H+  H45  1  0.73247543  0.87451445  0.32839026  1
  H+  H46  1  1.01942670  0.63435456  0.49194095  1
  H+  H47  1  -0.02090506  0.60886083  0.84225139  1
  H+  H48  1  0.79033873  0.87715600  0.15978853  1
  H+  H49  1  0.88100857  1.01493697  -0.00508993  1
  H+  H50  1  0.23809349  0.38770846  0.36682473  1
  H+  H51  1  0.37334970  0.02355680  0.32942297  1
  H+  H52  1  0.27555109  0.55496954  0.04203570  1
  H+  H53  1  0.66260853  0.75979538  0.17994335  1
  H+  H54  1  0.38754780  0.86910893  0.32681323  1
  H+  H55  1  0.92012143  0.07236381  0.59606965  1
  H+  H56  1  0.63198890  0.37650472  0.67302305  1
  H+  H57  1  0.77532845  0.38721384  0.15684529  1
  H+  H58  1  0.62658650  0.50940277  0.49956172  1
  H+  H59  1  0.26591543  0.63174024  0.16530926  1
  H+  H60  1  0.89162124  0.52491733  0.17014996  1
  H+  H61  1  -0.04499630  0.35171139  0.32324559  1
  H+  H62  1  0.26062952  0.15339870  0.50944776  1
  H+  H63  1  0.39125854  0.52626536  0.65655045  1
  H+  H64  1  0.31831828  0.96204800  0.17454019  1
  H+  H65  1  0.41108081  0.83304030  0.56449943  1
  H+  H66  1  0.42668930  0.33905470  0.26925827  1
  H+  H67  1  0.84916099  0.71658227  0.48626994  1
  H+  H68  1  0.01816401  0.63538282  0.33728038  1
  H+  H69  1  0.38813993  0.86731833  0.99380823  1
  H+  H70  1  0.96894178  0.84033271  0.50809994  1
  H+  H71  1  0.11129425  0.78900970  0.82029806  1
  H+  H72  1  0.46465331  0.10564203  0.33027754  1
  H+  H73  1  0.11370091  -0.02362536  0.65759451  1
  H+  H74  1  0.13108812  0.11775556  1.00088801  1
  H+  H75  1  0.37607971  0.47706188  0.48487210  1
  H+  H76  1  0.87931448  0.11496961  0.15543073  1
  H+  H77  1  0.87621609  0.61164152  0.31947559  1
  H+  H78  1  0.62473266  0.48078845  0.82635799  1
  H+  H79  1  0.73394585  0.10691355  0.33292815  1
  H+  H80  1  0.10956276  0.86412950  0.49084007  1
  H+  H81  1  0.11071912  0.90347635  0.82656739  1
  H+  H82  1  0.89179401  0.61398798  0.16960125  1
  H+  H83  1  0.40071487  0.53100426  0.84242459  1
  H+  H84  1  0.85372238  0.46979269  0.49912878  1
  H+  H85  1  0.88534068  0.89726307  0.15226150  1
  H+  H86  1  0.86390496  0.22790284  0.83264916  1
  H+  H87  1  0.47255262  0.87996462  0.83001375  1
  H+  H88  1  0.88102148  0.02359292  0.15784365  1
  H+  H89  1  0.10014610  0.45789338  0.33785575  1
  H+  H90  1  0.98226731  1.11251373  0.50451446  1
  H+  H91  1  0.39065454  0.26243551  0.51152421  1
  H+  H92  1  0.63922990  0.51857498  0.65324991  1
  H+  H93  1  0.36427868  -0.02060897  0.49283229  1
  H+  H94  1  0.48893252  0.42124128  0.03083467  1
  H+  H95  1  0.78362322  0.60103958  0.65561971  1
  H+  H96  1  0.38526301  0.17159346  0.50245587  1
  H+  H97  1  0.85658444  0.23992145  0.67776027  1
  H+  H98  1  0.88602586  0.87093867  0.82806683  1
  H+  H99  1  0.24577517  0.38729025  0.97186725  1
  H+  H100  1  0.27515963  0.63366898  0.49456405  1
  H+  H101  1  0.52806374  0.63534875  0.66562368  1
  H+  H102  1  0.62334047  0.10173330  0.67121872  1
  H+  H103  1  0.13474643  0.52068183  0.17601677  1
  H+  H104  1  0.37235054  0.01204305  0.65200881  1
  H+  H105  1  0.07694840  0.16059992  0.08170387  1
  H+  H106  1  0.52439948  0.39616289  0.50267453  1
  H+  H107  1  0.86356339  0.88028313  0.99985255  1
  H+  H108  1  0.35968904  0.88365826  0.66729237  1
  H+  H109  1  0.40114307  0.08441567  0.92676102  1
  H+  H110  1  0.51537357  0.04487834  0.37964898  1
  H+  H111  1  0.60099096  0.36439075  1.02232075  1
  H+  H112  1  0.36063970  0.48375703  0.16014935  1
  H+  H113  1  0.36762871  0.14100968  0.33376290  1
  H+  H114  1  0.39201082  0.53426034  0.97797495  1
  H+  H115  1  0.71640191  0.33260298  0.65275678  1
  H+  H116  1  0.39460668  0.62184157  0.99470490  1
  H+  H117  1  0.12624381  0.25868936  0.52323687  1
  H+  H118  1  0.51587608  0.62629348  0.49785651  1
  H+  H119  1  0.65250731  0.61914323  0.81970070  1
  H+  H120  1  0.13915711  1.02649207  0.18399954  1
  H+  H121  1  1.03952639  0.88463283  0.16879454  1
  H+  H122  1  0.27840462  0.39288465  0.82611612  1
  H+  H123  1  0.21371244  0.10541546  1.00237876  1
  H+  H124  1  0.64275775  0.76447414  -0.00671366  1
  H+  H125  1  0.75947651  0.62841478  0.48626395  1
  H+  H126  1  0.38657130  0.78011436  -0.01785364  1
  H+  H127  1  0.64169565  0.13008778  0.16931361  1
  H+  H128  1  0.87189487  0.35243332  0.50807597  1
  H+  H129  1  0.64467389  0.61935816  0.18515297  1
  H+  H130  1  0.02693063  0.39837209  0.67341459  1
  H+  H131  1  0.27097821  0.63918588  0.66230892  1
  H+  H132  1  0.79719127  0.64967478  0.80759531  1
  H+  H133  1  0.63788426  0.09790854  1.00619798  1
  H+  H134  1  0.35901775  -0.02471848  1.00226849  1
  H+  H135  1  0.08213422  0.22136576  1.02836185  1
  H+  H136  1  0.89070153  0.27268380  0.99083343  1
  H+  H137  1  0.12731456  0.84693160  0.00896457  1
  H+  H138  1  0.38428216  0.61844355  0.16861814  1
  H+  H139  1  0.27224972  0.14006717  0.33507926  1
  H+  H140  1  0.34856625  0.85022460  0.17414721  1
  H+  H141  1  0.02090822  0.38697476  0.16019165  1
  H+  H142  1  0.22201533  0.85822528  0.65442235  1
  H+  H143  1  0.11153144  0.88325138  0.65725980  1
  H+  H144  1  0.10001479  0.94637927  0.49787967  1
  H+  H145  1  0.22559849  0.10686976  0.65790779  1
  H+  H146  1  0.64620270  0.76712188  0.51042162  1
  H+  H147  1  0.62703052  1.00221560  0.30466130  1
  H+  H148  1  0.47738423  0.86427221  0.65064084  1
  H+  H149  1  0.87637561  0.60810903  0.49413386  1
  H+  H150  1  0.12758445  0.35817618  0.17242760  1
  H+  H151  1  0.88676167  0.36254962  0.83807477  1
  H+  H152  1  0.34944078  0.72558372  0.15842827  1
  H+  H153  1  0.95243896  0.63747671  0.65806999  1
  H+  H154  1  0.62825933  0.27478298  0.16570432  1
  H+  H155  1  0.28111481  0.54835272  0.77665142  1
  H+  H156  1  0.10731291  0.47802022  0.82721651  1
  H+  H157  1  0.11139023  -0.00078368  0.83558652  1
  H+  H158  1  0.90271861  0.77646914  0.16670340  1
  H+  H159  1  0.36666978  0.89021527  0.49306259  1
  H+  H160  1  0.13516852  0.53066984  0.66125121  1
  H+  H161  1  0.37158218  0.23880223  0.33360924  1
  H+  H162  1  0.84591165  0.12814763  0.32899599  1
  H+  H163  1  0.07273821  0.35695655  0.33766335  1
  H+  H164  1  0.11088964  0.72013957  0.33886818  1
  H+  H165  1  0.02239289  0.88004839  0.33632119  1
  H+  H166  1  0.13459067  0.52228245  0.50448867  1
  H+  H167  1  0.55995288  0.57127572  0.03841518  1
  H+  H168  1  0.53500873  0.63830498  0.82057443  1
  H+  H169  1  0.78476585  0.64585188  -0.00015497  1
  H+  H170  1  0.45953029  0.42751070  0.55272445  1
  H+  H171  1  0.61919712  0.88501530  0.51925488  1
  H+  H172  1  0.27608153  0.89000060  0.34369675  1
  H+  H173  1  0.16826980  0.88145990  0.17611282  1
  H+  H174  1  0.60188012  0.88097862  0.82509695  1
  H+  H175  1  0.64679478  0.78315667  0.33648925  1
  H+  H176  1  0.62045499  0.20695604  -0.00147952  1
  H+  H177  1  0.88976558  0.27866542  0.16603502  1
  H+  H178  1  1.01589960  0.39171255  0.49629156  1
  H+  H179  1  0.64015837  0.60828313  0.65346846  1
  H+  H180  1  0.89533648  0.86754650  0.66228495  1
  H+  H181  1  0.87666684  0.26597808  0.50789286  1
  H+  H182  1  0.89987299  0.38336410  0.65704730  1
  H+  H183  1  0.88662520  0.86552207  0.31496989  1
  H+  H184  1  0.61464793  0.22594006  0.48720598  1
  H+  H185  1  0.25370198  0.37562371  0.33891139  1
  H+  H186  1  0.04333939  0.68352745  0.75106880  1
  H+  H187  1  0.37311497  0.10213258  0.65491349  1
  H+  H188  1  0.27736917  0.05222545  0.05330337  1
  H+  H189  1  0.86893714  0.76908000  0.31990732  1
  H+  H190  1  0.97995413  0.10404909  0.65536144  1
  H+  H191  1  0.10555223  0.22101772  0.16675940  1
  H+  H192  1  0.17559008  0.08041442  0.47996981  1
  H+  H193  1  0.71809071  0.11072431  0.82833413  1
  H+  H194  1  0.74503185  0.12301619  0.48267020  1
  H+  H195  1  0.14552014  1.02105726  0.33353332  1
  H+  H196  1  0.65016416  0.63040250  0.98025076  1
  H+  H197  1  0.10081584  0.72476888  0.66246690  1
  H+  H198  1  0.11485318  0.15234962  0.50642955  1
  H+  H199  1  0.86333105  0.13893617  0.82998647  1
  H+  H200  1  0.50212279  0.14323219  0.82135682  1
  H+  H201  1  0.37188350  0.10772895  0.17706794  1
  H+  H202  1  0.75054000  0.34247894  0.98427498  1
  H+  H203  1  0.13694110  0.12185656  0.84114047  1
  H+  H204  1  0.77890867  0.38732909  0.81859924  1
  H+  H205  1  0.33181102  0.92232425  1.06479225  1
  H+  H206  1  0.61981547  0.24967883  0.65637551  1
  H+  H207  1  0.49318129  0.36373964  0.32565020  1
  H+  H208  1  0.72040407  0.35972674  0.50396114  1
  H+  H209  1  0.22027425  0.59813217  0.83532573  1
  H+  H210  1  0.33768825  0.92304302  0.40222806  1
  H+  H211  1  0.09191514  0.63290220  0.66869544  1
  H+  H212  1  0.22426188  0.37303190  0.67608886  1
  H+  H213  1  0.64734809  0.01472636  1.00555370  1
  H+  H214  1  0.22754695  0.85746224  0.49974881  1
  H+  H215  1  0.65903071  0.03767056  0.50228838  1
  H+  H216  1  0.87522952  -0.02606697  0.66789063  1
  H+  H217  1  0.68363596  0.54208204  0.33853200  1
  H+  H218  1  0.62776689  0.10591692  0.82297559  1
  H+  H219  1  0.36887799  0.39244020  0.83265954  1
  H+  H220  1  0.86866633  0.26205625  0.31879205  1
  H+  H221  1  0.12959772  0.60245161  0.33025248  1
  H+  H222  1  0.11050660  0.38968049  0.82213029  1
  H+  H223  1  0.39194531  0.52941054  0.32517491  1
  H+  H224  1  0.27174684  0.89867575  0.81472331  1
  H+  H225  1  0.87384593  0.98369361  0.50361019  1
  H+  H226  1  0.30065140  0.50880746  0.30028661  1
  H+  H227  1  0.10717302  0.71639824  1.00931707  1
  H+  H228  1  0.38755258  0.77528959  0.50441462  1
  H+  H229  1  0.62596698  0.39355403  0.33928911  1
  H+  H230  1  0.35166179  0.63845368  0.33747421  1
  H+  H231  1  0.88793480  0.60916307  0.99985358  1
  H+  H232  1  0.35998702  0.23200789  0.16608084  1
  H+  H233  1  0.77358759  0.13567112  0.00758544  1
  H+  H234  1  0.87352450  0.47170068  0.82920530  1
  H+  H235  1  0.01429275  0.13175324  0.16229095  1
  H+  H236  1  0.12262127  0.51403338  -0.00922137  1
  H+  H237  1  0.88686034  0.51689861  0.00147439  1
  H+  H238  1  0.60601562  0.97069606  0.81876884  1
  H+  H239  1  0.34321832  0.43399382  -0.07441404  1
  H+  H240  1  0.73526144  0.85743287  0.51596541  1
  H+  H241  1  0.34861476  0.42673288  0.73427317  1
  H+  H242  1  0.37441630  0.38418286  -0.01484334  1
  H+  H243  1  0.37675790  0.29644508  0.00887984  1
  H+  H244  1  0.53237915  0.89008244  0.51704021  1
  H+  H245  1  0.62802742  0.09383495  0.33228034  1
  H+  H246  1  0.52994272  0.88270994  0.00136079  1
  H+  H247  1  0.13768833  0.27923764  0.83176764  1
  H+  H248  1  0.42101550  0.34498651  0.90619170  1
  H+  H249  1  0.87715927  0.38646480  1.00672621  1
  H+  H250  1  0.41662491  0.46931571  0.40070644  1
  H+  H251  1  0.61382316  -0.02711808  0.66226141  1
  H+  H252  1  0.12923873  0.73240963  0.17163946  1
  H+  H253  1  0.61909503  0.72350327  0.66985269  1
  H+  H254  1  0.97305163  0.15833317  0.29741915  1
  H+  H255  1  0.86398732  0.13798556  0.00419607  1
  H+  H256  1  0.10048900  0.28190746  0.26679187  1
  H+  H257  1  0.92712411  0.83251401  0.22703137  1
  H+  H258  1  0.61111249  0.88763654  0.30422123  1
  H+  H259  1  0.67638764  0.82523746  0.60699192  1
  H+  H260  1  0.87495942  0.72872101  -0.00020304  1
  H+  H261  1  0.88996196  0.02549134  0.83976846  1
  H+  H262  1  0.36163875  0.21973664  0.67679653  1
  H+  H263  1  0.39025181  0.39718889  0.48264255  1
  H+  H264  1  0.36809406  0.38915316  0.67474681  1
  H+  H265  1  0.32964091  0.91817145  0.72471789  1
  H+  H266  1  0.52299156  0.12948528  -0.00213454  1
  H+  H267  1  0.36675519  0.90804338  0.82042333  1
  H+  H268  1  -0.02303049  0.70229960  0.78636520  1
  H+  H269  1  0.88835645  0.85498675  0.51487566  1
  H+  H270  1  0.47859615  0.11312459  0.50447312  1
  H+  H271  1  0.91086769  0.09838059  0.24518622  1
  H+  H272  1  0.52082154  0.88937770  0.30080265  1
  H+  H273  1  0.96939340  0.10294958  1.00088951  1
  H+  H274  1  0.52124256  0.62490739  1.00848430  1
  H+  H275  1  0.12929435  0.11110577  0.18313469  1
  H+  H276  1  0.11659542  0.38896322  0.00241919  1
  H+  H277  1  0.02391093  0.38227258  0.00360661  1
  H+  H278  1  0.64525947  0.77265546  0.83157564  1
  H+  H279  1  0.63467668  0.36702299  0.17103103  1
  H+  H280  1  0.15485038  0.31828415  0.58203416  1
  H+  H281  1  0.13932934  0.86033097  0.32674309  1
  H+  H282  1  0.77730526  0.14936017  0.15369717  1
  H+  H283  1  0.47409347  0.35119844  0.67002670  1
  H+  H284  1  0.38652169  0.77542638  0.65615049  1
  H+  H285  1  0.63927883  0.63788798  0.35619305  1
  H+  H286  1  0.13393858  0.37163447  0.67707778  1
  H+  H287  1  0.10556585  0.62104664  0.00055837  1
  H+  H288  1  0.91422489  0.82885962  0.91747883  1
  H+  H289  1  0.08481010  0.16753265  0.76711330  1
  H+  H290  1  0.33494876  0.15392682  0.73319262  1
  H+  H291  1  0.66419723  0.33067792  0.25815723  1
  H+  H292  1  0.18360641  0.83882351  0.27168558  1
  H+  H293  1  0.16848174  0.08302454  0.27542414  1
  H+  H294  1  0.91831302  0.82622554  0.60253364  1
  H+  H295  1  0.91398613  0.58376409  0.26408299  1
  H+  H296  1  0.21542419  0.35734187  0.17967118  1
  H+  H297  1  0.67194884  0.82686471  0.89290583  1
  H+  H298  1  0.31263310  0.64236570  0.07650109  1
  H+  H299  1  0.40275540  0.07607575  0.23381136  1
  H+  H300  1  0.65897255  0.57339072  0.56120130  1
  H+  H301  1  0.10697828  0.92226483  0.11421876  1
  H+  H302  1  0.39933565  0.57848430  0.22823755  1
  H+  H303  1  0.83694971  0.90791846  0.06279291  1
  H+  H304  1  0.55848919  0.15892339  0.72919779  1
  H+  H305  1  0.84850924  0.66700134  0.74663369  1
  H+  H306  1  0.92129710  0.33562712  0.93216633  1
  H+  H307  1  0.93298058  0.57180062  0.90635092  1
  H+  H308  1  0.71811731  0.11492806  0.67312449  1
  H+  H309  1  0.08191875  0.41573637  0.10122799  1
  H+  H310  1  0.41353097  0.08209864  0.56085647  1
  H+  H311  1  0.53474972  0.94272747  0.41321555  1
  H+  H312  1  0.08057503  0.42822359  0.73566271  1
  H+  H313  1  0.16569411  0.28929533  0.97266805  1
  H+  H314  1  0.56977993  0.16225096  0.09702636  1
  H+  H315  1  0.16298358  0.58442999  0.59905835  1
  H+  H316  1  0.16390665  0.57659159  0.27180614  1
  H+  H317  1  0.68053392  0.31932729  0.88738566  1
  H+  H318  1  0.59470191  0.42349492  0.39865499  1
  H+  H319  1  0.80015169  0.65147568  0.39132663  1
  H+  H320  1  0.64276119  0.85999423  0.65900599  1
  H+  H321  1  0.85580088  0.48199056  0.34557353  1
  H+  H322  1  0.58453588  0.65168098  0.43616964  1
  H+  H323  1  1.00286459  0.87662704  0.65777742  1
  H+  H324  1  0.31659558  0.14316165  0.08178968  1
  H+  H325  1  0.66067295  0.33411769  0.97795579  1
  H+  H326  1  0.56971154  0.44080840  0.12126740  1
  H+  H327  1  0.83644481  0.17545542  0.09289923  1
  H+  H328  1  0.86457854  0.38683773  0.15952481  1
  H+  H329  1  0.42180632  0.58740658  0.56357040  1
  H+  H330  1  0.28817679  0.11156419  0.83876872  1
  H+  H331  1  0.82297973  0.41511170  0.43836479  1
  H+  H332  1  0.41368186  0.85819975  0.88850994  1
  H+  H333  1  0.56377683  0.92408943  0.41005310  1
  H+  H334  1  0.33335068  0.66736710  0.43469412  1
  H+  H335  1  0.16598011  0.82868816  0.59318095  1
  H+  H336  1  0.84286524  0.42969764  0.72957499  1
  H+  H337  1  0.26713547  0.64226881  0.34223379  1
  H+  H338  1  0.76951981  0.39204217  0.34273020  1
  H+  H339  1  0.97667844  0.36501337  0.83951704  1
  H+  H340  1  0.89558386  0.78554912  0.81834041  1
  H+  H341  1  0.78416109  0.88355117  0.67351785  1
  H+  H342  1  0.58821907  0.41040450  0.77491351  1
  H+  H343  1  0.72985569  0.85319292  -0.00813077  1
  H+  H344  1  0.69365979  0.60650758  0.87863595  1
  H+  H345  1  0.11483020  0.19101763  0.42044740  1
  H+  H346  1  0.56650447  0.13596289  0.40977960  1
  H+  H347  1  0.83783601  0.41056674  0.06537579  1
  H+  H348  1  0.83750748  0.66992056  0.09844102  1
  H+  H349  1  0.26832088  0.14394272  0.17177119  1
  H+  H350  1  0.11352394  0.22958303  0.67962456  1
  H+  H351  1  0.06954035  0.41598135  0.43524596  1
  H+  H352  1  0.61064295  0.61278966  0.49972143  1
  H+  H353  1  0.61432633  0.87472240  1.00139049  1
  H+  H354  1  0.21707882  0.85118980  1.00323991  1
  H+  H355  1  0.38781509  0.61420976  0.65275384  1
  H+  H356  1  0.69438159  0.82407565  0.23529384  1
  H+  H357  1  0.92129548  0.33990005  0.60175132  1
  H+  H358  1  0.42963386  0.33610012  0.60523843  1
  H+  H359  1  0.15996263  0.08921048  0.90333448  1
  H+  H360  1  0.16735680  0.34342536  0.88873387  1
  H+  H361  1  0.39117758  0.82819541  0.22968994  1
  H+  H362  1  0.91832484  0.08120501  0.90076673  1
  H+  H363  1  0.56321203  0.86473814  0.10114515  1
  H+  H364  1  0.35930397  0.61268656  0.81581926  1
  H+  H365  1  0.83926876  0.92095054  0.76382579  1
  H+  H366  1  0.16143918  0.57803631  0.89411946  1
  H+  H367  1  0.17533416  0.08788649  0.59517856  1
  H+  H368  1  0.91269422  0.33070977  0.22920216  1
  H+  H369  1  0.87227411  0.96351061  0.37362695  1
  H+  H370  1  0.83445612  0.90512654  0.45375560  1
  H+  H371  1  0.13863613  0.61273673  0.18039300  1
  H+  H372  1  0.58247752  0.65804645  0.10957254  1
  H+  H373  1  0.47984920  0.37168825  0.84755921  1
  H+  H374  1  0.32725826  0.41784421  0.10481294  1
  H+  H375  1  0.43242128  0.60134430  0.89627252  1
  H+  H376  1  0.58872074  0.66409715  0.75819032  1
  H+  H377  1  0.07708959  0.90223409  0.39732075  1
  H+  H378  1  0.65500084  0.32067112  0.55972740  1
  H+  H379  1  0.15459386  0.83416528  0.88319667  1
  H+  H380  1  0.67624493  0.10355604  0.22662016  1
  H+  H381  1  0.83002491  0.17909537  0.73578298  1
  H+  H382  1  0.82964412  0.15386243  0.40300716  1
  H+  H383  1  0.13805483  0.76450034  0.49981549  1
  O2-  O384  1  0.07783796  0.15942052  0.15277596  1
  O2-  O385  1  0.07559737  0.16904723  0.48804672  1
  O2-  O386  1  0.08669953  0.17077419  0.81299325  1
  O2-  O387  1  0.08293860  0.41609065  0.14640077  1
  O2-  O388  1  0.07378493  0.42879984  0.47928010  1
  O2-  O389  1  0.07584357  0.41686319  0.81098783  1
  O2-  O390  1  0.09779763  0.67201068  0.15885039  1
  O2-  O391  1  0.07998246  0.66353674  0.47739086  1
  O2-  O392  1  0.03045886  0.70073579  0.79153819  1
  O2-  O393  1  0.10342250  0.92065063  0.15881548  1
  O2-  O394  1  0.07328985  0.89065992  0.47758658  1
  O2-  O395  1  0.07945642  0.93650034  0.81686887  1
  O2-  O396  1  0.32740376  0.17001128  0.15374066  1
  O2-  O397  1  0.35787810  0.20579066  0.49203953  1
  O2-  O398  1  0.34242880  0.13228554  0.81596949  1
  O2-  O399  1  0.33078530  0.42045128  0.14903039  1
  O2-  O400  1  0.36970065  0.43013181  0.45833561  1
  O2-  O401  1  0.34167213  0.42686950  0.81780069  1
  O2-  O402  1  0.32468666  0.66349396  0.14588220  1
  O2-  O403  1  0.33655359  0.66526109  0.47991589  1
  O2-  O404  1  0.30939768  0.60732511  0.79163726  1
  O2-  O405  1  0.28536186  0.90314961  0.15510581  1
  O2-  O406  1  0.33434065  0.91852555  0.47729971  1
  O2-  O407  1  0.33203614  0.93531892  0.80211910  1
  O2-  O408  1  0.57048502  0.16876979  0.14225590  1
  O2-  O409  1  0.58500365  0.16347814  0.47587317  1
  O2-  O410  1  0.56005865  0.16321498  0.80466272  1
  O2-  O411  1  0.58102461  0.42738848  0.16287957  1
  O2-  O412  1  0.58461916  0.42188510  0.47671351  1
  O2-  O413  1  0.58957354  0.41728862  0.81957917  1
  O2-  O414  1  0.58312958  0.65809305  0.15443963  1
  O2-  O415  1  0.58059160  0.65077410  0.48367513  1
  O2-  O416  1  0.59445778  0.66620030  0.80355312  1
  O2-  O417  1  0.54367759  0.83363146  0.14001892  1
  O2-  O418  1  0.59485773  0.92294930  0.52645602  1
  O2-  O419  1  0.56991768  0.90789386  0.80927201  1
  O2-  O420  1  0.83850619  0.17513232  0.13864618  1
  O2-  O421  1  0.85711892  0.16811010  0.45723762  1
  O2-  O422  1  0.83266454  0.16858165  0.81576345  1
  O2-  O423  1  0.83571829  0.41798228  0.14209318  1
  O2-  O424  1  0.82242590  0.40949278  0.48440521  1
  O2-  O425  1  0.83992397  0.41681556  0.80514440  1
  O2-  O426  1  0.84145919  0.67198800  0.14361509  1
  O2-  O427  1  0.81725845  0.65872934  0.46664297  1
  O2-  O428  1  0.85532091  0.68615856  0.78934279  1
  O2-  O429  1  0.84652164  0.91787919  0.13784984  1
  O2-  O430  1  0.84113819  0.91462181  0.49732180  1
  O2-  O431  1  0.83875358  0.92027478  0.80953689  1
  O2-  O432  1  0.16523033  0.08680212  0.19881303  1
  O2-  O433  1  0.19706673  0.11065361  0.51820153  1
  O2-  O434  1  0.16252898  0.08700587  0.85821385  1
  O2-  O435  1  0.15335348  0.32380379  0.18867380  1
  O2-  O436  1  0.17180505  0.31489155  0.54063599  1
  O2-  O437  1  0.16996039  0.34152587  0.84352751  1
  O2-  O438  1  0.16765541  0.57957054  0.19378013  1
  O2-  O439  1  0.17095159  0.58389892  0.52015591  1
  O2-  O440  1  0.16058839  0.57590716  0.84934437  1
  O2-  O441  1  0.20358730  0.85477446  0.18934428  1
  O2-  O442  1  0.16670112  0.82595484  0.51466146  1
  O2-  O443  1  0.15355162  0.84599500  0.83978821  1
  O2-  O444  1  0.39476332  0.06941003  0.18896658  1
  O2-  O445  1  0.41658512  0.08554202  0.51535568  1
  O2-  O446  1  0.38546400  0.08964989  0.84493910  1
  O2-  O447  1  0.41319514  0.33584479  0.19258970  1
  O2-  O448  1  0.45148537  0.37294763  0.53778438  1
  O2-  O449  1  0.41960734  0.34677165  0.86147653  1
  O2-  O450  1  0.41153256  0.58483839  0.18366074  1
  O2-  O451  1  0.42704783  0.59071309  0.51786095  1
  O2-  O452  1  0.43188512  0.59424779  0.85121062  1
  O2-  O453  1  0.38264284  0.82294097  0.18485535  1
  O2-  O454  1  0.41613639  0.83600747  0.51887352  1
  O2-  O455  1  0.41220168  0.86270162  0.84407333  1
  O2-  O456  1  0.67999222  0.10833769  0.18210762  1
  O2-  O457  1  0.68209048  0.09569939  0.48483972  1
  O2-  O458  1  0.65622618  0.07527364  0.83827243  1
  O2-  O459  1  0.66398762  0.33440213  0.18218675  1
  O2-  O460  1  0.65723352  0.32732418  0.51473409  1
  O2-  O461  1  0.67180803  0.32662510  0.84357824  1
  O2-  O462  1  0.68025559  0.59317302  0.19776408  1
  O2-  O463  1  0.65484386  0.57413017  0.51537490  1
  O2-  O464  1  0.68782704  0.59338890  0.83464447  1
  O2-  O465  1  0.71453413  0.80747595  0.19904589  1
  O2-  O466  1  0.67329370  0.82497335  0.52834335  1
  O2-  O467  1  0.67500076  0.83232706  0.84798899  1
  O2-  O468  1  0.91059148  0.08494860  0.17121486  1
  O2-  O469  1  0.91545321  0.07446353  0.51464810  1
  O2-  O470  1  0.92194856  0.08548098  0.85561349  1
  O2-  O471  1  0.91875189  0.33838643  0.18304606  1
  O2-  O472  1  0.90433827  0.32500560  0.52437586  1
  O2-  O473  1  0.91706944  0.33457177  0.85723552  1
  O2-  O474  1  0.92156577  0.58463434  0.18683657  1
  O2-  O475  1  0.90801235  0.58321021  0.51501312  1
  O2-  O476  1  0.94359406  0.55594705  0.86584125  1
  O2-  O477  1  0.93728901  0.83699093  0.18227548  1
  O2-  O478  1  0.90990250  0.81479985  0.52555562  1
  O2-  O479  1  0.92076988  0.84194492  0.84056339  1
  O2-  O480  1  0.17841517  0.08223934  0.32021064  1
  O2-  O481  1  0.16680504  0.07848737  0.63990786  1
  O2-  O482  1  0.15600413  0.08385856  0.98339957  1
  O2-  O483  1  0.06640551  0.26071413  0.30433964  1
  O2-  O484  1  0.16177490  0.33605700  0.67148121  1
  O2-  O485  1  0.17622750  0.34765317  0.96799461  1
  O2-  O486  1  0.16377284  0.57539667  0.31733232  1
  O2-  O487  1  0.16348084  0.59083631  0.64435882  1
  O2-  O488  1  0.15095156  0.57606334  0.97668217  1
  O2-  O489  1  0.17395896  0.83266376  0.31606014  1
  O2-  O490  1  0.16142816  0.82975945  0.63842864  1
  O2-  O491  1  0.15544240  0.81747052  0.99077464  1
  O2-  O492  1  0.40564100  0.08480240  0.31349786  1
  O2-  O493  1  0.40319233  0.07316488  0.63724995  1
  O2-  O494  1  0.40983335  0.07936924  0.97079405  1
  O2-  O495  1  0.43102421  0.33647179  0.31459591  1
  O2-  O496  1  0.41746304  0.32480126  0.65121217  1
  O2-  O497  1  0.41232374  0.35336996  0.99160386  1
  O2-  O498  1  0.36055030  0.55471846  0.30176118  1
  O2-  O499  1  0.42099377  0.58593663  0.63923704  1
  O2-  O500  1  0.42976341  0.59998832  0.97556700  1
  O2-  O501  1  0.41280291  0.83687931  0.30717037  1
  O2-  O502  1  0.41386883  0.83598370  0.64127218  1
  O2-  O503  1  0.41972072  0.84157131  0.97406867  1
  O2-  O504  1  0.66422364  0.07452162  0.31079356  1
  O2-  O505  1  0.65696472  0.07367334  0.66191952  1
  O2-  O506  1  0.67744975  0.07707105  0.99550013  1
  O2-  O507  1  0.66351677  0.33123033  0.30403061  1
  O2-  O508  1  0.65660416  0.31119579  0.63987832  1
  O2-  O509  1  0.69240515  0.30593388  0.96452609  1
  O2-  O510  1  0.70888621  0.60453808  0.32644374  1
  O2-  O511  1  0.66856622  0.57718325  0.63561533  1
  O2-  O512  1  0.68934527  0.61318272  0.95958080  1
  O2-  O513  1  0.67127977  0.83946683  0.31677661  1
  O2-  O514  1  0.67496651  0.82785130  0.65221114  1
  O2-  O515  1  0.67017207  0.82133843  0.97464338  1
  O2-  O516  1  0.91668375  0.10431876  0.29060355  1
  O2-  O517  1  0.92145886  0.06329784  0.64044485  1
  O2-  O518  1  0.91241362  0.07617232  0.98111483  1
  O2-  O519  1  0.90009765  0.31988616  0.30052926  1
  O2-  O520  1  0.92720899  0.34886784  0.64665439  1
  O2-  O521  1  0.92424901  0.33496639  0.97809049  1
  O2-  O522  1  0.91321202  0.58735669  0.30959626  1
  O2-  O523  1  0.90084133  0.62902314  0.63475200  1
  O2-  O524  1  0.91993453  0.57897815  0.98807931  1
  O2-  O525  1  0.91101961  0.82783843  0.30610368  1
  O2-  O526  1  0.92801437  0.83743099  0.64743752  1
  O2-  O527  1  0.91729058  0.82752577  0.96304110  1
  O2-  O528  1  0.07552583  0.16475124  0.03516971  1
  O2-  O529  1  0.13951292  0.20376365  0.37691588  1
  O2-  O530  1  0.08560339  0.16709020  0.69075703  1
  O2-  O531  1  0.08494382  0.41665122  0.01928795  1
  O2-  O532  1  0.06014102  0.40060408  0.35508662  1
  O2-  O533  1  0.08675936  0.43102210  0.69032158  1
  O2-  O534  1  0.07486384  0.65223901  0.01854639  1
  O2-  O535  1  0.07773476  0.66002029  0.35374739  1
  O2-  O536  1  0.06186474  0.66544927  0.67851277  1
  O2-  O537  1  0.07560203  0.92252173  0.02838841  1
  O2-  O538  1  0.08211452  0.90910364  0.35227467  1
  O2-  O539  1  0.08023927  0.91393158  0.67083192  1
  O2-  O540  1  0.30152658  0.11222781  0.04117184  1
  O2-  O541  1  0.33751586  0.17487028  0.34601080  1
  O2-  O542  1  0.32906508  0.15765158  0.68887190  1
  O2-  O543  1  0.33597867  0.43371379  -0.03030090  1
  O2-  O544  1  0.44542113  0.49468541  0.35872532  1
  O2-  O545  1  0.34480504  0.42583985  0.68923535  1
  O2-  O546  1  0.30095194  0.61624798  0.03354787  1
  O2-  O547  1  0.32932808  0.67455829  0.35479572  1
  O2-  O548  1  0.33307488  0.66718234  0.67526374  1
  O2-  O549  1  0.32890760  0.91612275  0.02041761  1
  O2-  O550  1  0.33774918  0.92547526  0.35626172  1
  O2-  O551  1  0.32504949  0.91112817  0.67952555  1
  O2-  O552  1  0.57810411  0.15372522  0.02008206  1
  O2-  O553  1  0.54886766  0.10529748  0.36779878  1
  O2-  O554  1  0.56302600  0.15829907  0.68373601  1
  O2-  O555  1  0.54380020  0.46852776  0.05099044  1
  O2-  O556  1  0.60220733  0.43020743  0.35331797  1
  O2-  O557  1  0.62860730  0.42453569  0.69537154  1
  O2-  O558  1  0.57562621  0.63134129  0.02725877  1
  O2-  O559  1  0.59129021  0.64708870  0.36879198  1
  O2-  O560  1  0.58832721  0.66038601  0.68065461  1
  O2-  O561  1  0.58731993  0.90561329  0.02004121  1
  O2-  O562  1  0.58375257  0.92127624  0.29140487  1
  O2-  O563  1  0.58501615  0.90974371  0.64944768  1
  O2-  O564  1  0.83804287  0.17267575  0.01761079  1
  O2-  O565  1  0.80978869  0.14729120  0.35075819  1
  O2-  O566  1  0.82105084  0.17990028  0.69142976  1
  O2-  O567  1  0.84129588  0.41265013  0.01964382  1
  O2-  O568  1  0.82147398  0.42682034  0.36706903  1
  O2-  O569  1  0.83725227  0.42946359  0.68400777  1
  O2-  O570  1  0.84281165  0.67028014  0.01839777  1
  O2-  O571  1  0.80027960  0.65050377  0.34497954  1
  O2-  O572  1  0.82993315  0.59861072  0.67904671  1
  O2-  O573  1  0.83278913  0.90828611  0.01699561  1
  O2-  O574  1  0.85397292  0.94488270  0.33203335  1
  O2-  O575  1  0.84547820  0.91284331  0.68697896  1
