# generated using pymatgen
data_H2O
_symmetry_space_group_name_H-M   'P 1'
_cell_length_a   17.99230175
_cell_length_b   17.99355763
_cell_length_c   22.00645453
_cell_angle_alpha   89.99916637
_cell_angle_beta   89.99471686
_cell_angle_gamma   120.00571710
_symmetry_Int_Tables_number   1
_chemical_formula_structural   H2O
_chemical_formula_sum   'H384 O192'
_cell_volume   6169.63469906
_cell_formula_units_Z   192
loop_
 _symmetry_equiv_pos_site_id
 _symmetry_equiv_pos_as_xyz
  1  'x, y, z'
loop_
 _atom_type_symbol
 _atom_type_oxidation_number
  H+  1.0
  O2-  -2.0
loop_
 _atom_site_type_symbol
 _atom_site_label
 _atom_site_symmetry_multiplicity
 _atom_site_fract_x
 _atom_site_fract_y
 _atom_site_fract_z
 _atom_site_occupancy
  H+  H0  1  0.37541806  0.38708042  0.34408095  1
  H+  H1  1  0.03880241  0.90117290  0.16324231  1
  H+  H2  1  0.36112927  0.24921509  0.65853037  1
  H+  H3  1  0.90216928  0.36672110  0.49910192  1
  H+  H4  1  0.86739259  0.14321951  0.33613667  1
  H+  H5  1  0.37227056  0.09444885  0.83463972  1
  H+  H6  1  0.65761222  0.75585011  0.80032143  1
  H+  H7  1  0.83974429  0.70998678  0.00024561  1
  H+  H8  1  0.65868381  0.51639937  0.84779832  1
  H+  H9  1  0.60983733  0.22454247  -0.00239662  1
  H+  H10  1  0.61871080  0.13746105  0.33845603  1
  H+  H11  1  0.88332781  0.03216752  0.65970820  1
  H+  H12  1  0.37101829  0.47491675  0.34581289  1
  H+  H13  1  0.78701681  0.89660456  0.15847686  1
  H+  H14  1  0.14687270  0.90393021  0.00694616  1
  H+  H15  1  0.98527360  0.87977474  0.66309501  1
  H+  H16  1  0.87875846  0.28332448  0.67033427  1
  H+  H17  1  0.85591659  0.14351413  0.67073295  1
  H+  H18  1  0.71674360  0.10669522  0.66114017  1
  H+  H19  1  0.88708272  0.11289224  0.17054610  1
  H+  H20  1  0.11744534  -0.01971444  0.35056169  1
  H+  H21  1  0.59111408  -0.03799375  0.82631958  1
  H+  H22  1  0.01619928  0.64600954  0.35321186  1
  H+  H23  1  0.63678426  0.25958216  0.84163155  1
  H+  H24  1  0.60328993  0.42696401  0.65927298  1
  H+  H25  1  0.72442248  0.36196492  0.99523725  1
  H+  H26  1  0.26908186  0.65667182  0.81838567  1
  H+  H27  1  0.36010072  0.19852439  0.82152806  1
  H+  H28  1  0.14087091  0.53073616  0.32896353  1
  H+  H29  1  0.50853337  0.87499653  0.67117766  1
  H+  H30  1  0.39654167  0.35832324  0.81856473  1
  H+  H31  1  0.60521522  0.68384072  0.75272137  1
  H+  H32  1  0.87753832  0.73392687  0.34565649  1
  H+  H33  1  0.52815078  0.12844137  0.15072191  1
  H+  H34  1  0.85462576  0.37946010  0.00895292  1
  H+  H35  1  0.63037124  0.73910464  0.16373485  1
  H+  H36  1  0.39990707  0.29659075  0.18205556  1
  H+  H37  1  0.86726292  0.89808640  0.67549916  1
  H+  H38  1  0.89476990  0.62008387  0.51429562  1
  H+  H39  1  0.89601315  0.78995816  0.66057664  1
  H+  H40  1  0.98322524  0.86898242  0.51089557  1
  H+  H41  1  0.66963180  0.56242165  0.64547120  1
  H+  H42  1  0.49183108  0.31248534  0.86383015  1
  H+  H43  1  0.01938260  0.14027954  0.66851385  1
  H+  H44  1  0.37918711  0.76600925  0.66013547  1
  H+  H45  1  0.61435180  -0.02589316  0.49255213  1
  H+  H46  1  0.35200011  0.47479517  0.16234582  1
  H+  H47  1  0.56404037  0.90598505  0.40682136  1
  H+  H48  1  0.87550558  -0.01111765  1.00400361  1
  H+  H49  1  0.85268782  0.88944072  -0.00169112  1
  H+  H50  1  0.92530024  0.84448756  0.57112580  1
  H+  H51  1  0.61038846  0.72556049  0.50485764  1
  H+  H52  1  0.85458440  0.14022513  0.82651325  1
  H+  H53  1  0.16509025  0.33298661  0.92673713  1
  H+  H54  1  0.02763294  0.14350107  0.00744191  1
  H+  H55  1  0.86094677  0.47268985  0.01668071  1
  H+  H56  1  0.74053616  0.88457216  -0.01029157  1
  H+  H57  1  0.97018538  0.36963056  0.66638939  1
  H+  H58  1  0.13348925  0.27715383  0.18246836  1
  H+  H59  1  0.37305354  0.54320577  0.98452526  1
  H+  H60  1  0.37720762  0.35864024  0.84878352  1
  H+  H61  1  0.21399217  0.36127452  0.64450120  1
  H+  H62  1  0.62945499  0.86479884  0.66167170  1
  H+  H63  1  0.90520231  0.87750553  0.17103296  1
  H+  H64  1  0.12304856  0.74240825  -0.00832145  1
  H+  H65  1  0.79420074  0.65322787  0.16373047  1
  H+  H66  1  0.87826118  0.23698241  0.33973216  1
  H+  H67  1  0.61862952  0.22618777  0.34504745  1
  H+  H68  1  0.11291886  0.44699941  0.45072134  1
  H+  H69  1  0.38099735  0.84231016  0.16854150  1
  H+  H70  1  0.23952855  0.87077577  0.98413731  1
  H+  H71  1  0.73000257  0.11639768  0.50669374  1
  H+  H72  1  0.04412327  0.39867389  0.36175449  1
  H+  H73  1  0.97598164  0.36526809  0.28238764  1
  H+  H74  1  0.88132380  0.77601423  0.82308974  1
  H+  H75  1  0.87726544  0.48710280  0.49898919  1
  H+  H76  1  0.10574444  0.48083522  0.82271164  1
  H+  H77  1  0.00398139  0.82522347  -0.05657259  1
  H+  H78  1  0.14056166  0.86736694  0.32884815  1
  H+  H79  1  0.91605947  0.08500082  0.26620144  1
  H+  H80  1  0.86875079  0.88932580  0.49825127  1
  H+  H81  1  0.13727971  0.61322365  0.63672116  1
  H+  H82  1  0.23511203  0.36488813  0.33429902  1
  H+  H83  1  0.10223036  0.22726355  0.82379515  1
  H+  H84  1  0.37125479  -0.02909791  0.99710255  1
  H+  H85  1  0.20711176  0.36183527  0.82965219  1
  H+  H86  1  0.61714743  0.65366437  0.34038582  1
  H+  H87  1  0.72240073  0.87142874  0.66215286  1
  H+  H88  1  0.36093383  0.85408092  0.51081419  1
  H+  H89  1  0.87927936  0.36602096  0.84165001  1
  H+  H90  1  0.10448373  0.38722884  -0.01934127  1
  H+  H91  1  0.96780764  0.61558537  0.84330885  1
  H+  H92  1  0.11612244  0.14245823  0.00783470  1
  H+  H93  1  0.49211829  0.38038608  0.17808710  1
  H+  H94  1  0.47592996  0.60872377  0.65595027  1
  H+  H95  1  0.48240291  0.11338271  0.32799030  1
  H+  H96  1  0.72900514  0.35255101  0.83976497  1
  H+  H97  1  0.41236256  0.82045812  0.23116608  1
  H+  H98  1  0.01837840  0.64590153  0.50484742  1
  H+  H99  1  0.59209478  0.18465751  0.69504160  1
  H+  H100  1  0.28222294  0.14148585  0.34652889  1
  H+  H101  1  0.14174928  0.28091279  -0.00969304  1
  H+  H102  1  0.40059796  0.82815079  0.60375929  1
  H+  H103  1  0.31236900  0.43045109  0.09958853  1
  H+  H104  1  0.35728001  0.88467918  0.68202605  1
  H+  H105  1  0.13885897  1.02807891  0.17041869  1
  H+  H106  1  0.08235328  0.41870953  0.72690142  1
  H+  H107  1  0.59796553  0.96451241  0.67314106  1
  H+  H108  1  0.62593222  0.51511838  0.32346064  1
  H+  H109  1  0.63277883  0.65001744  0.16415223  1
  H+  H110  1  0.10761600  0.73410956  0.35159268  1
  H+  H111  1  0.64534342  0.86871659  0.16022597  1
  H+  H112  1  0.73452794  0.12802014  0.32522212  1
  H+  H113  1  0.52551895  0.64364672  0.34460101  1
  H+  H114  1  0.21352070  0.61102947  0.99168188  1
  H+  H115  1  0.90813880  0.78984427  0.17204427  1
  H+  H116  1  0.50572629  0.12113851  0.83697049  1
  H+  H117  1  0.02316229  0.13493990  0.16041353  1
  H+  H118  1  0.58830221  0.09808019  0.68139680  1
  H+  H119  1  0.53663224  0.38389862  0.34593488  1
  H+  H120  1  0.22733365  0.12623661  0.16908830  1
  H+  H121  1  0.92383055  0.09376906  0.93342160  1
  H+  H122  1  0.03755450  0.63701819  0.12806174  1
  H+  H123  1  0.66638822  0.84064191  0.22295761  1
  H+  H124  1  0.78875481  0.39797183  0.48911770  1
  H+  H125  1  0.54287326  0.67282302  0.02661894  1
  H+  H126  1  0.36486671  0.97287461  0.33761573  1
  H+  H127  1  0.61643411  0.00605268  0.16652810  1
  H+  H128  1  0.96852298  0.58063305  0.19990320  1
  H+  H129  1  0.27286946  0.88622383  0.33873799  1
  H+  H130  1  0.63525875  0.10924439  0.98901995  1
  H+  H131  1  0.87630222  0.27511868  0.83709208  1
  H+  H132  1  0.37519445  0.85023267  0.32231182  1
  H+  H133  1  0.72542964  0.27303167  0.67107037  1
  H+  H134  1  0.16156069  0.31606225  0.55422801  1
  H+  H135  1  0.11760629  0.63187059  0.15624017  1
  H+  H136  1  0.13626698  0.10663923  0.50021357  1
  H+  H137  1  0.87619649  0.51312545  0.17562080  1
  H+  H138  1  0.84020102  0.20912136  0.15254760  1
  H+  H139  1  1.01572189  0.39244362  0.82526722  1
  H+  H140  1  0.77535769  0.77110959  0.94241262  1
  H+  H141  1  0.49527668  0.02820330  0.21031903  1
  H+  H142  1  0.37150865  0.95596993  0.15843089  1
  H+  H143  1  0.13828809  0.86684206  0.50921465  1
  H+  H144  1  0.36300675  0.74263412  0.81666804  1
  H+  H145  1  0.12218674  0.98217841  0.67131371  1
  H+  H146  1  0.60988430  0.76611203  0.31328252  1
  H+  H147  1  0.76253904  0.13399323  0.82527046  1
  H+  H148  1  0.63048720  0.39231413  0.34668892  1
  H+  H149  1  0.37760826  0.77424896  0.50757864  1
  H+  H150  1  0.97822191  0.10935602  0.50232582  1
  H+  H151  1  0.35368800  0.46923131  0.66046502  1
  H+  H152  1  0.85655457  0.22097658  0.00608758  1
  H+  H153  1  0.38874251  0.26323976  0.01429835  1
  H+  H154  1  0.65211907  0.53563312  0.50951989  1
  H+  H155  1  0.85391232  0.88043066  0.82946363  1
  H+  H156  1  0.13747751  0.12272662  0.34393769  1
  H+  H157  1  0.97231098  0.11769073  0.83700444  1
  H+  H158  1  0.14493603  0.86417659  0.17613401  1
  H+  H159  1  0.27570107  0.87675880  0.15604835  1
  H+  H160  1  0.12789089  0.12208905  0.16525661  1
  H+  H161  1  0.12683060  0.27172918  0.64953323  1
  H+  H162  1  0.69078446  0.60684249  0.56599274  1
  H+  H163  1  0.13291841  0.40082872  0.35768096  1
  H+  H164  1  0.47809102  0.85502426  0.96453649  1
  H+  H165  1  0.88493277  0.61961309  0.33892481  1
  H+  H166  1  0.38868578  0.84964818  -0.03484278  1
  H+  H167  1  0.61661693  0.39014577  -0.00064184  1
  H+  H168  1  0.57837162  0.56084268  0.94118864  1
  H+  H169  1  0.48983037  0.39020085  0.98924240  1
  H+  H170  1  0.52131707  0.13287142  0.99240541  1
  H+  H171  1  0.59004635  0.88278671  0.34267444  1
  H+  H172  1  0.62954729  0.65009873  0.65293011  1
  H+  H173  1  0.62614921  0.10066168  0.16312129  1
  H+  H174  1  0.88106279  0.65109951  0.16269691  1
  H+  H175  1  0.15566034  0.03483838  0.99584016  1
  H+  H176  1  0.66626464  0.31086895  0.65660591  1
  H+  H177  1  0.91752070  0.33024579  0.09998431  1
  H+  H178  1  -0.00260469  0.36803760  0.18497871  1
  H+  H179  1  0.36386012  0.61622801  0.82047253  1
  H+  H180  1  0.67284477  0.32516595  0.54547117  1
  H+  H181  1  0.48252753  0.61567322  0.17731547  1
  H+  H182  1  0.75290026  0.37209780  0.34084671  1
  H+  H183  1  0.62179157  0.37042228  0.84097020  1
  H+  H184  1  0.91258766  0.55217905  0.66578816  1
  H+  H185  1  0.62464666  0.10323802  0.84208325  1
  H+  H186  1  0.75603568  0.11644801  0.16192763  1
  H+  H187  1  0.35177649  0.13863384  0.66947212  1
  H+  H188  1  0.73050251  0.86517530  0.50781431  1
  H+  H189  1  0.78594340  0.65808046  0.65693745  1
  H+  H190  1  0.11194712  0.23337089  0.34252683  1
  H+  H191  1  0.35296967  0.70696287  0.16710986  1
  H+  H192  1  0.38825782  0.26524304  0.50389487  1
  H+  H193  1  0.38952839  0.60846183  0.17846476  1
  H+  H194  1  0.81766173  0.41215432  0.09918252  1
  H+  H195  1  0.88035521  0.66022198  0.66458910  1
  H+  H196  1  0.63866582  0.11246355  0.50514985  1
  H+  H197  1  0.89402644  0.02787695  0.17012320  1
  H+  H198  1  0.16093767  0.58426570  0.23838063  1
  H+  H199  1  0.65655129  0.53841596  0.16502419  1
  H+  H200  1  0.13646971  0.24946850  0.49878266  1
  H+  H201  1  0.23495375  0.12179134  0.65870636  1
  H+  H202  1  0.89141951  0.11823024  -0.00611431  1
  H+  H203  1  0.34170607  0.65449214  0.00821649  1
  H+  H204  1  0.17429613  0.08842326  0.56351761  1
  H+  H205  1  0.16302859  0.09634537  0.40227799  1
  H+  H206  1  0.85761998  0.48279090  0.83571807  1
  H+  H207  1  0.47090370  0.10450015  0.50874417  1
  H+  H208  1  0.22643425  0.86442391  0.50407748  1
  H+  H209  1  0.10038681  0.47471164  -0.02307937  1
  H+  H210  1  0.14077362  0.11506257  0.65457318  1
  H+  H211  1  0.23634025  0.87628309  0.83546703  1
  H+  H212  1  0.21522139  0.37086676  0.17729058  1
  H+  H213  1  0.39584059  0.65570465  0.48822664  1
  H+  H214  1  0.08325654  0.37177665  0.20843179  1
  H+  H215  1  0.26976786  0.40401153  0.99899267  1
  H+  H216  1  0.97598960  0.11860688  0.32470028  1
  H+  H217  1  0.40330540  0.31923959  0.56618654  1
  H+  H218  1  0.34683155  0.88728452  0.82614171  1
  H+  H219  1  0.61728502  0.88759110  0.49251756  1
  H+  H220  1  0.61735627  0.39548613  0.15097963  1
  H+  H221  1  0.47474534  0.61490613  0.51278934  1
  H+  H222  1  0.62625731  0.61943908  0.99614857  1
  H+  H223  1  0.44631390  0.34990015  0.65250268  1
  H+  H224  1  0.12189574  0.98088134  0.49642001  1
  H+  H225  1  0.26350135  0.61782684  0.17000178  1
  H+  H226  1  0.75964595  0.38158860  0.16001877  1
  H+  H227  1  0.38459220  0.60563212  0.32961026  1
  H+  H228  1  0.11708015  0.51326971  0.18853268  1
  H+  H229  1  0.11407487  0.74389171  0.50243528  1
  H+  H230  1  0.36897422  0.57362801  0.88082992  1
  H+  H231  1  0.44887960  0.62994472  0.95433155  1
  H+  H232  1  0.97962581  0.81767318  0.97278548  1
  H+  H233  1  -0.03314792  0.35756065  -0.01655007  1
  H+  H234  1  0.35628527  0.97680825  0.49143149  1
  H+  H235  1  0.43840494  0.06231744  0.23956936  1
  H+  H236  1  0.97480767  0.61006978  1.00424184  1
  H+  H237  1  0.23483056  0.12824908  0.98679975  1
  H+  H238  1  0.36073771  0.71822449  0.33165947  1
  H+  H239  1  0.66611560  0.08450874  0.27108917  1
  H+  H240  1  0.00896021  0.63322485  0.65860328  1
  H+  H241  1  0.32705603  0.91942186  0.73907183  1
  H+  H242  1  0.88199601  0.03043753  0.84372972  1
  H+  H243  1  0.32551492  0.47640401  0.80845979  1
  H+  H244  1  0.38727597  0.10543932  -0.01801659  1
  H+  H245  1  0.60822847  0.21806772  0.48536599  1
  H+  H246  1  0.60885621  -0.02839895  0.99963797  1
  H+  H247  1  0.67522650  0.58686498  0.22801975  1
  H+  H248  1  0.12961933  0.61536822  0.97851632  1
  H+  H249  1  0.91411244  0.08960971  0.59930749  1
  H+  H250  1  0.11583577  0.74570330  0.83077037  1
  H+  H251  1  0.79666909  0.41951471  0.68641279  1
  H+  H252  1  0.33142806  0.39862652  0.43110083  1
  H+  H253  1  0.13945468  0.54609572  0.55024962  1
  H+  H254  1  0.65752444  0.79342165  0.98609954  1
  H+  H255  1  0.87211191  0.97724844  0.34102622  1
  H+  H256  1  0.87389630  0.73178569  0.50135698  1
  H+  H257  1  0.14027972  0.77269281  0.17168596  1
  H+  H258  1  0.99075293  0.36936827  0.50585559  1
  H+  H259  1  0.89521159  0.32198352  0.93407115  1
  H+  H260  1  0.78498154  0.64500640  0.81446619  1
  H+  H261  1  0.88332262  0.61807141  0.83148574  1
  H+  H262  1  0.13287995  0.62281596  0.83474447  1
  H+  H263  1  0.36261239  0.41516775  0.00807301  1
  H+  H264  1  0.45678045  0.09306758  0.65854663  1
  H+  H265  1  0.36033266  0.15146376  0.16946057  1
  H+  H266  1  0.87098937  0.22717900  0.48977991  1
  H+  H267  1  0.86629905  0.97729865  0.49674905  1
  H+  H268  1  0.38564207  0.60798950  0.66181399  1
  H+  H269  1  0.63736031  0.36203819  0.49530815  1
  H+  H270  1  0.62105074  0.26192806  0.16100178  1
  H+  H271  1  0.36624500  0.13161881  0.49477416  1
  H+  H272  1  0.10496717  0.38520847  0.66523654  1
  H+  H273  1  0.13077761  0.76670668  0.66172289  1
  H+  H274  1  0.36024002  0.36095629  0.49350611  1
  H+  H275  1  0.11817432  0.35846000  0.84016019  1
  H+  H276  1  0.51588317  0.86941350  0.15209832  1
  H+  H277  1  0.88389595  0.60598171  0.01171379  1
  H+  H278  1  0.61180949  0.72805024  0.65786852  1
  H+  H279  1  0.72372652  0.10765892  0.99089885  1
  H+  H280  1  0.13940904  0.87114994  0.83869431  1
  H+  H281  1  0.26784757  0.62818594  0.66032858  1
  H+  H282  1  0.10390610  0.97942354  0.82350274  1
  H+  H283  1  0.39999523  0.27524593  0.33321329  1
  H+  H284  1  0.61457321  0.63957050  0.50329371  1
  H+  H285  1  0.78453988  0.64276020  0.49657141  1
  H+  H286  1  0.89968624  0.87212854  0.33040952  1
  H+  H287  1  0.39254034  0.11199138  0.32278122  1
  H+  H288  1  0.27878409  0.13564904  0.49185598  1
  H+  H289  1  0.66168992  0.07362963  0.89643881  1
  H+  H290  1  0.46449023  0.85271614  0.33011963  1
  H+  H291  1  0.16598939  0.83669972  0.60934552  1
  H+  H292  1  0.13146975  0.52125697  0.64594268  1
  H+  H293  1  0.65980373  0.07771108  0.60055676  1
  H+  H294  1  0.61413769  0.47982652  -0.00063182  1
  H+  H295  1  0.87847627  0.40751211  0.68442616  1
  H+  H296  1  0.08548078  0.16763923  0.10046675  1
  H+  H297  1  0.87680407  0.48481865  0.34518960  1
  H+  H298  1  0.42845712  0.39066446  0.93665462  1
  H+  H299  1  0.40945906  0.07183746  0.92008502  1
  H+  H300  1  0.10636547  0.14005253  0.82229959  1
  H+  H301  1  0.66890255  0.33064140  0.93364066  1
  H+  H302  1  0.67026573  0.84198507  0.56687385  1
  H+  H303  1  0.57957380  0.16400575  0.08644875  1
  H+  H304  1  0.56983375  0.47336430  0.70283458  1
  H+  H305  1  0.57358493  0.39446003  0.79095771  1
  H+  H306  1  0.34112490  0.90724098  0.05424846  1
  H+  H307  1  0.60738914  0.68752975  0.07882835  1
  H+  H308  1  0.16627490  0.59102141  0.89070091  1
  H+  H309  1  0.22952210  0.61510598  0.32358485  1
  H+  H310  1  0.40708730  0.07249047  0.56791309  1
  H+  H311  1  0.10780176  0.68546753  0.05026752  1
  H+  H312  1  0.86834723  0.35342079  0.14846252  1
  H+  H313  1  0.84020890  0.42982156  0.77493259  1
  H+  H314  1  0.32111293  0.15901816  0.75338589  1
  H+  H315  1  0.34750898  0.16621962  0.39962341  1
  H+  H316  1  0.93145514  0.59564089  0.57469859  1
  H+  H317  1  0.17151708  0.34076141  0.27734021  1
  H+  H318  1  0.16743198  0.83081899  0.27094743  1
  H+  H319  1  0.73043255  0.87053515  0.87983696  1
  H+  H320  1  0.11147700  0.88642498  0.67447762  1
  H+  H321  1  0.34834489  0.18939084  0.10775884  1
  H+  H322  1  0.56573412  0.53641867  0.28622917  1
  H+  H323  1  0.34646596  0.66858980  0.39362354  1
  H+  H324  1  0.70103619  0.34230970  0.28021553  1
  H+  H325  1  0.16771879  0.09007533  0.89038291  1
  H+  H326  1  0.06031930  0.90467027  0.01582764  1
  H+  H327  1  0.17559201  0.85007084  0.92556466  1
  H+  H328  1  0.86755792  0.81330660  0.91481051  1
  H+  H329  1  0.72234459  0.43634636  0.61124670  1
  H+  H330  1  0.02919680  0.89004233  0.34142345  1
  H+  H331  1  0.36802549  0.00860993  0.65843119  1
  H+  H332  1  0.55543051  0.79429069  0.27349825  1
  H+  H333  1  0.34128661  0.37341995  0.65959125  1
  H+  H334  1  0.96830361  0.86866213  0.83223699  1
  H+  H335  1  0.60789045  0.30707088  0.21819624  1
  H+  H336  1  0.30607121  0.65210408  0.07413423  1
  H+  H337  1  0.32858138  0.91696947  0.43110270  1
  H+  H338  1  0.84153430  0.68150205  0.75220111  1
  H+  H339  1  0.56214109  0.13791265  0.77848544  1
  H+  H340  1  0.45226645  0.74336235  0.45216199  1
  H+  H341  1  0.61636492  0.88816958  -0.00493131  1
  H+  H342  1  0.03201182  0.06188720  0.45247307  1
  H+  H343  1  0.43594489  0.34108468  0.27651059  1
  H+  H344  1  0.29773410  0.41115143  0.75140588  1
  H+  H345  1  0.11556620  0.44737856  0.09473315  1
  H+  H346  1  0.52599286  0.38425996  0.49752404  1
  H+  H347  1  0.67523980  0.40215743  0.61299109  1
  H+  H348  1  0.83530449  0.16637764  0.43221559  1
  H+  H349  1  0.57339754  0.90468468  0.09075675  1
  H+  H350  1  0.32071032  0.66393579  0.72331581  1
  H+  H351  1  0.07284755  0.40663620  0.09481491  1
  H+  H352  1  0.44875743  0.23141703  0.03757611  1
  H+  H353  1  0.58758410  0.41867191  0.43906974  1
  H+  H354  1  0.84078225  0.67541142  0.06634367  1
  H+  H355  1  0.11769282  0.65156371  0.71052294  1
  H+  H356  1  0.84866197  0.67723505  0.40634989  1
  H+  H357  1  0.40649894  0.58761502  0.56560377  1
  H+  H358  1  0.82327822  0.16721210  0.73161626  1
  H+  H359  1  0.89137312  0.11581212  0.50288245  1
  H+  H360  1  0.41952239  0.57676240  0.27293134  1
  H+  H361  1  0.90809754  0.58424589  0.27868576  1
  H+  H362  1  0.07462414  0.15944578  0.39638729  1
  H+  H363  1  0.22183302  0.11340083  0.82798499  1
  H+  H364  1  0.69211978  0.59024554  0.89668666  1
  H+  H365  1  0.82335863  0.15539965  0.06358353  1
  H+  H366  1  0.85666436  0.42624884  0.40418106  1
  H+  H367  1  0.25715441  0.35143514  0.49057430  1
  H+  H368  1  0.84652823  0.92671387  0.09941561  1
  H+  H369  1  0.93111857  0.84391659  0.27019342  1
  H+  H370  1  0.55763460  0.90070230  0.76888293  1
  H+  H371  1  0.10739947  0.93188700  0.10705761  1
  H+  H372  1  0.57533300  0.15251748  0.43118165  1
  H+  H373  1  0.07514319  0.68051545  0.43734123  1
  H+  H374  1  0.58949909  0.42909003  0.09365307  1
  H+  H375  1  0.83231844  0.92420966  0.73388151  1
  H+  H376  1  0.91605321  0.37932785  0.33103038  1
  H+  H377  1  0.07342332  0.68816739  0.77188691  1
  H+  H378  1  0.08815353  0.91764472  0.43801608  1
  H+  H379  1  0.84553557  0.91839587  0.40016119  1
  H+  H380  1  0.36424967  -0.00154344  0.83576861  1
  H+  H381  1  0.07957389  0.17045114  0.72679064  1
  H+  H382  1  0.07883521  0.92033941  0.76462575  1
  H+  H383  1  0.41782167  0.27655612  0.91230861  1
  O2-  O384  1  0.08541730  0.16324287  0.14646880  1
  O2-  O385  1  0.06922815  0.12224753  0.46279497  1
  O2-  O386  1  0.07227530  0.16670000  0.80783207  1
  O2-  O387  1  0.04494247  0.39639136  0.21461765  1
  O2-  O388  1  0.10834377  0.44864267  0.49654431  1
  O2-  O389  1  0.07532906  0.41974922  0.80892593  1
  O2-  O390  1  0.09885917  0.67106186  0.13633858  1
  O2-  O391  1  0.07889262  0.68097131  0.48587820  1
  O2-  O392  1  0.08102625  0.68358818  0.81549419  1
  O2-  O393  1  0.10244833  0.93407719  0.15226842  1
  O2-  O394  1  0.08796102  0.91897058  0.48339562  1
  O2-  O395  1  0.07272888  0.91814456  0.81040435  1
  O2-  O396  1  0.33151690  0.18008331  0.15173630  1
  O2-  O397  1  0.33958731  0.16445971  0.47639420  1
  O2-  O398  1  0.31575180  0.14702319  0.80027142  1
  O2-  O399  1  0.30855076  0.41994531  0.14386354  1
  O2-  O400  1  0.32335315  0.38641358  0.47678449  1
  O2-  O401  1  0.29265827  0.41419458  0.79611625  1
  O2-  O402  1  0.32353340  0.64538598  0.15425404  1
  O2-  O403  1  0.39242663  0.70218136  0.46148285  1
  O2-  O404  1  0.32733793  0.68387742  0.79955501  1
  O2-  O405  1  0.33429099  0.90001768  0.13831948  1
  O2-  O406  1  0.32266833  0.91627991  0.47622763  1
  O2-  O407  1  0.31659245  0.91778083  0.81421931  1
  O2-  O408  1  0.58511310  0.16816807  0.13231380  1
  O2-  O409  1  0.57629064  0.15558208  0.47675826  1
  O2-  O410  1  0.56768850  0.15237600  0.82270880  1
  O2-  O411  1  0.59370888  0.43266205  0.13895561  1
  O2-  O412  1  0.58726068  0.41403875  0.48435413  1
  O2-  O413  1  0.58636097  0.40004799  0.83423357  1
  O2-  O414  1  0.59899514  0.67733088  0.15023741  1
  O2-  O415  1  0.57645213  0.66347392  0.49522157  1
  O2-  O416  1  0.61706786  0.69437505  0.79675382  1
  O2-  O417  1  0.57584210  0.90555989  0.13645328  1
  O2-  O418  1  0.58399731  0.91451394  0.47726930  1
  O2-  O419  1  0.56053493  0.90063109  0.81422463  1
  O2-  O420  1  0.81549075  0.14657440  0.14512820  1
  O2-  O421  1  0.83584896  0.16501679  0.47754678  1
  O2-  O422  1  0.82335589  0.16844235  0.80998211  1
  O2-  O423  1  0.81951567  0.41254414  0.14558056  1
  O2-  O424  1  0.85075146  0.42890717  0.47959419  1
  O2-  O425  1  0.83009576  0.42133555  0.81982066  1
  O2-  O426  1  0.85500278  0.68517483  0.14894867  1
  O2-  O427  1  0.84772586  0.67204794  0.48513224  1
  O2-  O428  1  0.84429071  0.68294230  0.79825634  1
  O2-  O429  1  0.84845653  0.92653219  0.14490807  1
  O2-  O430  1  0.83723437  0.91721145  0.48095731  1
  O2-  O431  1  0.82658870  0.91869944  0.82056822  1
  O2-  O432  1  0.16505601  0.09258753  0.18173827  1
  O2-  O433  1  0.17581178  0.08571521  0.51753771  1
  O2-  O434  1  0.16150427  0.08851685  0.84591000  1
  O2-  O435  1  0.15840710  0.33545473  0.19932707  1
  O2-  O436  1  0.17093072  0.31019658  0.50961751  1
  O2-  O437  1  0.14947782  0.32812381  0.85250771  1
  O2-  O438  1  0.15412165  0.57637183  0.19167448  1
  O2-  O439  1  0.12256612  0.53510000  0.50555305  1
  O2-  O440  1  0.16405761  0.59177983  0.84495584  1
  O2-  O441  1  0.17272043  0.83131128  0.18968087  1
  O2-  O442  1  0.16679050  0.83383689  0.52223742  1
  O2-  O443  1  0.16968267  0.84228653  0.85518547  1
  O2-  O444  1  0.45456124  0.04698511  0.19912725  1
  O2-  O445  1  0.40964453  0.07658641  0.52128624  1
  O2-  O446  1  0.40142232  0.06543439  0.85304543  1
  O2-  O447  1  0.43893871  0.35066435  0.20265327  1
  O2-  O448  1  0.41351142  0.32561294  0.51974114  1
  O2-  O449  1  0.44182650  0.25907288  0.87933028  1
  O2-  O450  1  0.42367762  0.58203068  0.19383545  1
  O2-  O451  1  0.41163860  0.59172696  0.52065057  1
  O2-  O452  1  0.37854228  0.57349203  0.83695616  1
  O2-  O453  1  0.41326535  0.81521956  0.18549399  1
  O2-  O454  1  0.37864535  0.81884307  0.53442515  1
  O2-  O455  1  0.42860982  0.85172623  0.84793398  1
  O2-  O456  1  0.64379690  0.06450371  0.18595394  1
  O2-  O457  1  0.67016571  0.08536748  0.52312018  1
  O2-  O458  1  0.65959611  0.07524702  0.85117932  1
  O2-  O459  1  0.64410119  0.31978331  0.18231237  1
  O2-  O460  1  0.67097742  0.33067930  0.50162056  1
  O2-  O461  1  0.66894669  0.32024894  0.85691330  1
  O2-  O462  1  0.68768675  0.59691410  0.18353797  1
  O2-  O463  1  0.68469929  0.59760929  0.51762382  1
  O2-  O464  1  0.69850928  0.57804516  0.85428571  1
  O2-  O465  1  0.68060657  0.84534020  0.17821661  1
  O2-  O466  1  0.66968176  0.83790550  0.52149201  1
  O2-  O467  1  0.73514059  0.86632047  0.83513415  1
  O2-  O468  1  0.92388955  0.08922755  0.18461232  1
  O2-  O469  1  0.91965393  0.08509965  0.52115968  1
  O2-  O470  1  0.91372461  0.09143289  0.85648720  1
  O2-  O471  1  0.89966741  0.32065494  0.14251398  1
  O2-  O472  1  0.92804553  0.33053300  0.50697737  1
  O2-  O473  1  0.90819295  0.33360642  0.85554872  1
  O2-  O474  1  0.91157725  0.57268418  0.19275465  1
  O2-  O475  1  0.92676748  0.59035792  0.52824217  1
  O2-  O476  1  0.90562041  0.58397577  0.85206633  1
  O2-  O477  1  0.93934697  0.85117242  0.18606791  1
  O2-  O478  1  0.92259998  0.83888421  0.52551516  1
  O2-  O479  1  0.90516467  0.83554530  0.84272798  1
  O2-  O480  1  0.16967567  0.09317696  0.35821870  1
  O2-  O481  1  0.17272578  0.08712210  0.63963937  1
  O2-  O482  1  0.17381647  0.09290751  0.97794502  1
  O2-  O483  1  0.17363720  0.34008428  0.32275030  1
  O2-  O484  1  0.15281035  0.32951266  0.62964898  1
  O2-  O485  1  0.17127674  0.33935937  0.97252379  1
  O2-  O486  1  0.16953705  0.58689189  0.30794070  1
  O2-  O487  1  0.16335242  0.57603099  0.62291875  1
  O2-  O488  1  0.15886334  0.58302012  0.96641530  1
  O2-  O489  1  0.16919173  0.83421106  0.31607408  1
  O2-  O490  1  0.14588494  0.82746157  0.65161499  1
  O2-  O491  1  0.17795742  0.84969178  0.97258557  1
  O2-  O492  1  0.42311107  0.08105717  0.30973587  1
  O2-  O493  1  0.39969279  0.06868005  0.63903221  1
  O2-  O494  1  0.41824634  0.07718444  0.96765530  1
  O2-  O495  1  0.43327183  0.33767284  0.32238868  1
  O2-  O496  1  0.38819021  0.31336185  0.63635683  1
  O2-  O497  1  0.42744545  0.36602091  0.97648628  1
  O2-  O498  1  0.41737564  0.57552539  0.31834659  1
  O2-  O499  1  0.41332959  0.57576360  0.64574538  1
  O2-  O500  1  0.38870959  0.60003378  0.96578209  1
  O2-  O501  1  0.40679101  0.82157380  0.30710897  1
  O2-  O502  1  0.40985983  0.82816779  0.64935856  1
  O2-  O503  1  0.41898197  0.82114614  0.94837733  1
  O2-  O504  1  0.67242586  0.09895312  0.31451950  1
  O2-  O505  1  0.65625257  0.07368556  0.64607177  1
  O2-  O506  1  0.66337591  0.07646339  0.97557849  1
  O2-  O507  1  0.69170517  0.34185034  0.32390824  1
  O2-  O508  1  0.68807606  0.29142513  0.68985985  1
  O2-  O509  1  0.66393239  0.33332421  0.97893270  1
  O2-  O510  1  0.62576139  0.56151620  0.29818420  1
  O2-  O511  1  0.69981680  0.62086080  0.63038196  1
  O2-  O512  1  0.62563029  0.57440661  0.96907116  1
  O2-  O513  1  0.61397205  0.81633505  0.28802056  1
  O2-  O514  1  0.66434229  0.84044571  0.64388000  1
  O2-  O515  1  0.68605679  0.85027565  0.96624222  1
  O2-  O516  1  0.91436375  0.08590135  0.31128749  1
  O2-  O517  1  0.91228630  0.09268259  0.64474300  1
  O2-  O518  1  0.92640487  0.09252638  0.97908895  1
  O2-  O519  1  0.94763119  0.34793934  0.32279950  1
  O2-  O520  1  0.90704719  0.34562438  0.66121606  1
  O2-  O521  1  0.90110749  0.32308501  0.97951975  1
  O2-  O522  1  0.91354254  0.58555550  0.32318966  1
  O2-  O523  1  0.94398244  0.60918909  0.64606121  1
  O2-  O524  1  0.91395242  0.57209958  1.01482356  1
  O2-  O525  1  0.93148477  0.84174686  0.31514594  1
  O2-  O526  1  0.92439017  0.85221368  0.64757312  1
  O2-  O527  1  0.83545586  0.79912290  0.95456563  1
  O2-  O528  1  0.08728361  0.17253736  0.02518013  1
  O2-  O529  1  0.07808348  0.17014356  0.35005821  1
  O2-  O530  1  0.08086110  0.17024007  0.68149921  1
  O2-  O531  1  0.06549722  0.41111129  -0.01817888  1
  O2-  O532  1  0.10536692  0.43237306  0.37506810  1
  O2-  O533  1  0.07837917  0.41820970  0.68174864  1
  O2-  O534  1  0.09308192  0.68164066  0.00681385  1
  O2-  O535  1  0.07306845  0.67889144  0.37352200  1
  O2-  O536  1  0.10116936  0.66551036  0.67198897  1
  O2-  O537  1  0.12040761  0.93687086  0.02862051  1
  O2-  O538  1  0.08987607  0.91750161  0.35811694  1
  O2-  O539  1  0.08653024  0.92357433  0.68906233  1
  O2-  O540  1  0.38784630  0.21356693  0.03462591  1
  O2-  O541  1  0.34506203  0.16763237  0.35384650  1
  O2-  O542  1  0.32323470  0.16953767  0.68480358  1
  O2-  O543  1  0.32869134  0.44312167  0.01659934  1
  O2-  O544  1  0.34162281  0.41331437  0.36006814  1
  O2-  O545  1  0.31367357  0.40764012  0.67163736  1
  O2-  O546  1  0.29993278  0.66383464  0.03098434  1
  O2-  O547  1  0.33368505  0.65853926  0.34876876  1
  O2-  O548  1  0.32634188  0.65745199  0.67873224  1
  O2-  O549  1  0.34022168  0.90929198  0.00922886  1
  O2-  O550  1  0.33383233  0.91295506  0.35309831  1
  O2-  O551  1  0.33372502  0.92192432  0.69359485  1
  O2-  O552  1  0.57984131  0.16347079  0.01174614  1
  O2-  O553  1  0.58337216  0.16429184  0.35427092  1
  O2-  O554  1  0.55452721  0.12258791  0.70084512  1
  O2-  O555  1  0.58518225  0.41970833  0.01508655  1
  O2-  O556  1  0.59755452  0.42010945  0.36040725  1
  O2-  O557  1  0.55785934  0.44073078  0.66528569  1
  O2-  O558  1  0.60321099  0.69048727  0.03250426  1
  O2-  O559  1  0.58755150  0.68524082  0.35089167  1
  O2-  O560  1  0.58688896  0.66655667  0.66915806  1
  O2-  O561  1  0.57973340  0.90992200  0.01229421  1
  O2-  O562  1  0.55216476  0.90098481  0.36140692  1
  O2-  O563  1  0.56905421  0.90470875  0.68859232  1
  O2-  O564  1  0.82823845  0.15878822  0.01849020  1
  O2-  O565  1  0.83982781  0.17603650  0.35171899  1
  O2-  O566  1  0.82220799  0.17011757  0.68616163  1
  O2-  O567  1  0.82374762  0.40839218  0.02585726  1
  O2-  O568  1  0.85336590  0.42340232  0.35845421  1
  O2-  O569  1  0.85645159  0.44746576  0.69936966  1
  O2-  O570  1  0.82864818  0.65841448  0.02310502  1
  O2-  O571  1  0.84706142  0.67402731  0.36101681  1
  O2-  O572  1  0.84709902  0.68751635  0.67850146  1
  O2-  O573  1  0.84074390  0.92976240  0.02171280  1
  O2-  O574  1  0.84998927  0.91752302  0.35511632  1
  O2-  O575  1  0.83451147  0.92691161  0.68906980  1
