# generated using pymatgen
data_H2O
_symmetry_space_group_name_H-M   'P 1'
_cell_length_a   17.99879009
_cell_length_b   18.00805512
_cell_length_c   22.01333413
_cell_angle_alpha   90.00858710
_cell_angle_beta   89.98409538
_cell_angle_gamma   120.01742049
_symmetry_Int_Tables_number   1
_chemical_formula_structural   H2O
_chemical_formula_sum   'H384 O192'
_cell_volume   6178.03409681
_cell_formula_units_Z   192
loop_
 _symmetry_equiv_pos_site_id
 _symmetry_equiv_pos_as_xyz
  1  'x, y, z'
loop_
 _atom_type_symbol
 _atom_type_oxidation_number
  H+  1.0
  O2-  -2.0
loop_
 _atom_site_type_symbol
 _atom_site_label
 _atom_site_symmetry_multiplicity
 _atom_site_fract_x
 _atom_site_fract_y
 _atom_site_fract_z
 _atom_site_occupancy
  H+  H0  1  0.63122412  0.02353844  0.32174018  1
  H+  H1  1  0.69769542  0.13552128  0.98936064  1
  H+  H2  1  0.63334144  0.11146405  0.68503574  1
  H+  H3  1  0.22190251  0.12018330  0.84128888  1
  H+  H4  1  0.11214996  0.97195850  0.01160329  1
  H+  H5  1  0.64031108  0.02845171  0.83880670  1
  H+  H6  1  0.14015388  0.83577674  0.51514417  1
  H+  H7  1  0.11288875  0.39178225  0.47891388  1
  H+  H8  1  0.14393032  0.60945316  0.16954696  1
  H+  H9  1  0.38765906  0.35575682  0.98682324  1
  H+  H10  1  0.39827943  0.86125332  0.50304806  1
  H+  H11  1  0.11071666  0.38923602  0.34207157  1
  H+  H12  1  0.90425953  0.11131279  0.99959659  1
  H+  H13  1  0.92159503  0.58462892  0.72270858  1
  H+  H14  1  0.46242081  0.34570872  0.83076615  1
  H+  H15  1  0.66074262  0.38329510  0.97398707  1
  H+  H16  1  1.01198416  0.90662325  0.84343958  1
  H+  H17  1  0.86849936  0.36987792  0.48929170  1
  H+  H18  1  0.27228038  0.13336167  1.00768207  1
  H+  H19  1  0.16823433  0.55526695  0.66250261  1
  H+  H20  1  0.64628546  0.02642044  0.51324221  1
  H+  H21  1  0.89905105  1.01966288  -0.00023588  1
  H+  H22  1  0.46218913  0.10732212  -0.01022008  1
  H+  H23  1  0.22420700  0.85351161  0.32754563  1
  H+  H24  1  0.32872220  0.66885323  0.10038689  1
  H+  H25  1  0.26421186  0.63801700  1.00859403  1
  H+  H26  1  0.39029133  0.36512105  0.17735437  1
  H+  H27  1  0.63522884  0.34593344  0.82591802  1
  H+  H28  1  0.27213588  0.12935763  0.66805609  1
  H+  H29  1  0.87144362  0.48831044  0.17460492  1
  H+  H30  1  0.88201743  0.23730832  0.84945590  1
  H+  H31  1  0.62575541  0.71839061  0.15805939  1
  H+  H32  1  0.27248768  0.14222556  0.49315309  1
  H+  H33  1  0.02066976  0.12750166  0.67988209  1
  H+  H34  1  0.88402624  0.85419542  0.32420365  1
  H+  H35  1  0.28225701  0.64674863  0.32648786  1
  H+  H36  1  1.01287144  0.37855540  1.00684230  1
  H+  H37  1  0.57992519  0.19818903  0.35582612  1
  H+  H38  1  0.11139035  0.87819760  0.33705231  1
  H+  H39  1  0.98363636  0.84571960  0.16896249  1
  H+  H40  1  0.02354962  0.71713977  0.05590486  1
  H+  H41  1  0.40944053  0.90008058  0.17911393  1
  H+  H42  1  1.02907904  0.14285196  0.16303183  1
  H+  H43  1  0.12208303  0.51591374  0.51194970  1
  H+  H44  1  0.90252349  0.34331542  0.85395695  1
  H+  H45  1  0.59733222  0.12237784  0.33630216  1
  H+  H46  1  0.36901777  0.46988233  0.49277544  1
  H+  H47  1  0.12204943  0.65092957  0.66976007  1
  H+  H48  1  0.60870722  0.22404139  0.66667668  1
  H+  H49  1  0.12786253  0.76388993  0.84120417  1
  H+  H50  1  0.11957894  0.76820561  0.00436112  1
  H+  H51  1  0.61898103  0.62797545  0.15807395  1
  H+  H52  1  0.41496887  0.57059015  0.85115056  1
  H+  H53  1  0.39006514  0.62790706  0.31551793  1
  H+  H54  1  0.86262009  0.12879609  0.83906420  1
  H+  H55  1  0.46115641  0.10058594  0.83645639  1
  H+  H56  1  0.46686629  0.59726358  0.65046751  1
  H+  H57  1  0.86200434  0.72093133  0.33692179  1
  H+  H58  1  0.93152768  0.81738911  0.84034321  1
  H+  H59  1  0.88384825  0.23724273  0.50455050  1
  H+  H60  1  0.60230826  0.21691207  0.82500054  1
  H+  H61  1  0.42932281  0.83883164  0.56410510  1
  H+  H62  1  0.73790382  0.88639099  0.83551379  1
  H+  H63  1  0.10996505  0.13765326  0.83388703  1
  H+  H64  1  0.13943870  1.03705294  0.50025379  1
  H+  H65  1  0.13723057  0.36291122  -0.00934307  1
  H+  H66  1  0.86491789  0.48874554  0.65291649  1
  H+  H67  1  0.36255446  -0.02318811  0.34055172  1
  H+  H68  1  0.37528573  0.10035488  0.32992003  1
  H+  H69  1  0.14561888  1.01888715  0.32746040  1
  H+  H70  1  0.34573042  0.11651116  0.82524872  1
  H+  H71  1  0.91483068  0.82479156  0.26436811  1
  H+  H72  1  0.39860248  0.78152309  0.66180426  1
  H+  H73  1  0.22110671  0.84836587  0.84726318  1
  H+  H74  1  0.36111952  0.22179990  0.99809931  1
  H+  H75  1  1.02770953  0.62595637  0.16577685  1
  H+  H76  1  0.98272038  0.62639668  0.99993069  1
  H+  H77  1  0.72460845  0.11121677  0.68440965  1
  H+  H78  1  0.73825388  0.60947772  0.66121743  1
  H+  H79  1  0.37630686  0.76516456  0.99479463  1
  H+  H80  1  0.38463568  0.60722331  0.65973393  1
  H+  H81  1  0.76273682  0.64233610  0.48871363  1
  H+  H82  1  0.35229765  0.63362369  1.01092917  1
  H+  H83  1  0.66885814  0.82046709  0.25172246  1
  H+  H84  1  0.60556838  0.81467018  0.31763754  1
  H+  H85  1  0.66488476  0.57845228  0.24041659  1
  H+  H86  1  0.13797805  0.11146285  1.00386349  1
  H+  H87  1  0.38291036  0.10345406  0.65958103  1
  H+  H88  1  0.04655905  0.36672346  0.84974950  1
  H+  H89  1  0.03129585  0.39341488  0.15678930  1
  H+  H90  1  -0.00175074  0.37921161  0.49249899  1
  H+  H91  1  0.11804147  0.60325464  0.51163670  1
  H+  H92  1  0.48813107  0.88134268  0.33420554  1
  H+  H93  1  0.10884138  0.21767620  0.68793270  1
  H+  H94  1  0.02157787  0.62395829  0.82795502  1
  H+  H95  1  0.88051607  0.59517336  0.17435139  1
  H+  H96  1  0.72448737  0.86271386  0.50717312  1
  H+  H97  1  0.63468605  0.60965485  0.33763343  1
  H+  H98  1  0.64037242  0.91154740  0.35250130  1
  H+  H99  1  0.03524267  0.12827150  0.33639476  1
  H+  H100  1  0.16917546  0.59263835  0.59599698  1
  H+  H101  1  0.35622599  0.46766064  0.67771855  1
  H+  H102  1  0.61756037  0.89033572  0.49557020  1
  H+  H103  1  0.58128073  0.91565830  0.76380042  1
  H+  H104  1  0.62708013  0.89059305  0.82800748  1
  H+  H105  1  0.08847935  0.91311984  0.72564242  1
  H+  H106  1  0.51121141  0.63723435  0.49543973  1
  H+  H107  1  0.38405884  0.35452925  0.50812941  1
  H+  H108  1  0.75892861  0.06408895  0.38160403  1
  H+  H109  1  0.08232956  0.45121547  0.70396695  1
  H+  H110  1  0.27407028  0.88102430  0.15990997  1
  H+  H111  1  0.38061121  0.89138382  0.34073433  1
  H+  H112  1  0.52519508  0.63458421  0.34034887  1
  H+  H113  1  0.88917895  0.82663225  0.15297981  1
  H+  H114  1  0.02295096  0.88094004  0.33262971  1
  H+  H115  1  0.96329554  0.61240361  0.50233272  1
  H+  H116  1  0.26253748  0.87714772  1.00565546  1
  H+  H117  1  0.88932920  0.61658011  0.32854865  1
  H+  H118  1  0.86583620  0.21853813  0.00957868  1
  H+  H119  1  0.88622720  0.03436175  0.17834488  1
  H+  H120  1  0.14960763  0.78046320  0.66392584  1
  H+  H121  1  0.96822159  0.35355633  0.66450003  1
  H+  H122  1  0.51304122  0.36999938  0.14673360  1
  H+  H123  1  0.63897964  0.91372700  0.13441977  1
  H+  H124  1  0.62682170  0.61136481  0.51106658  1
  H+  H125  1  0.25310567  0.62728118  0.81614262  1
  H+  H126  1  -0.10581783  0.09096851  0.33607346  1
  H+  H127  1  0.79672990  0.11423731  0.02602926  1
  H+  H128  1  0.61417225  0.39480356  0.34064179  1
  H+  H129  1  0.35415963  0.57457881  0.49485397  1
  H+  H130  1  0.41097619  0.77060862  0.85319726  1
  H+  H131  1  0.64375959  0.25659904  0.50034191  1
  H+  H132  1  0.11856522  0.91609343  0.48033341  1
  H+  H133  1  0.13547719  0.10861080  0.66213377  1
  H+  H134  1  0.73322103  0.11621559  0.52272709  1
  H+  H135  1  0.23446190  0.61057095  0.17002274  1
  H+  H136  1  0.14183932  0.36484328  0.16991103  1
  H+  H137  1  0.63422291  0.35604296  0.64802218  1
  H+  H138  1  0.12719976  0.61273890  1.00632105  1
  H+  H139  1  0.88935511  0.63297565  0.68092446  1
  H+  H140  1  0.56546327  0.65410966  0.80737177  1
  H+  H141  1  0.97887552  0.85769542  1.00308601  1
  H+  H142  1  0.36284130  0.21642617  0.67192467  1
  H+  H143  1  0.13093769  0.59882918  0.82897060  1
  H+  H144  1  0.14291942  0.27153429  0.32492052  1
  H+  H145  1  0.87628043  0.38436698  1.01261288  1
  H+  H146  1  0.89673561  0.11601028  0.51872231  1
  H+  H147  1  0.66458903  0.30625714  0.31365914  1
  H+  H148  1  0.64151889  0.27946153  0.16838364  1
  H+  H149  1  0.12058767  0.22811853  0.16163996  1
  H+  H150  1  0.41631259  0.32391785  0.26648384  1
  H+  H151  1  0.28178823  0.39397437  0.16028680  1
  H+  H152  1  0.75144860  0.35105097  0.49549431  1
  H+  H153  1  0.89037961  0.77059087  0.65145497  1
  H+  H154  1  0.62032189  0.46610480  0.66705604  1
  H+  H155  1  0.56528033  0.23926102  0.01039183  1
  H+  H156  1  0.18075122  0.97986803  0.79775926  1
  H+  H157  1  0.73095085  0.86808926  0.00575049  1
  H+  H158  1  0.47652196  0.11008000  0.66017762  1
  H+  H159  1  0.01016473  0.12869281  0.83468996  1
  H+  H160  1  0.61568352  0.79113056  0.65740687  1
  H+  H161  1  0.87115113  0.48977368  0.34389002  1
  H+  H162  1  0.52653407  0.88293965  0.83436349  1
  H+  H163  1  0.13303749  0.03563971  0.84831958  1
  H+  H164  1  0.37593910  0.88816808  0.66568182  1
  H+  H165  1  0.82470242  0.28180438  0.96864665  1
  H+  H166  1  0.50730435  0.89473470  0.00551301  1
  H+  H167  1  0.76368199  0.88935668  0.17433095  1
  H+  H168  1  0.07659244  0.66851781  0.10320419  1
  H+  H169  1  0.47596701  0.35406757  0.32713685  1
  H+  H170  1  0.14188842  0.52432959  0.32527596  1
  H+  H171  1  0.76773065  0.87470550  0.34079806  1
  H+  H172  1  0.28105538  0.88895389  0.66706031  1
  H+  H173  1  0.77491171  0.13665046  0.83579292  1
  H+  H174  1  0.30788366  0.40718263  0.76642112  1
  H+  H175  1  0.37289691  0.85388037  0.99131992  1
  H+  H176  1  0.63081927  0.58384336  0.88007337  1
  H+  H177  1  0.71367712  0.59202521  1.01761051  1
  H+  H178  1  0.11320051  0.71710526  0.33741174  1
  H+  H179  1  0.12244934  0.47955763  0.15545088  1
  H+  H180  1  0.11770848  0.14188398  0.49210144  1
  H+  H181  1  0.13842739  0.76226910  0.17684353  1
  H+  H182  1  0.60713148  0.38449225  0.14602308  1
  H+  H183  1  0.49318570  0.61857963  0.15577958  1
  H+  H184  1  0.85255960  0.73200007  0.48952313  1
  H+  H185  1  0.63218617  0.77449006  0.50907015  1
  H+  H186  1  0.13266137  0.88768868  0.82714938  1
  H+  H187  1  0.58551826  0.99230209  0.00220078  1
  H+  H188  1  0.88915642  1.02499238  0.84304892  1
  H+  H189  1  0.36938341  0.14569928  0.15690577  1
  H+  H190  1  0.12479992  0.35190976  0.69137907  1
  H+  H191  1  0.37594317  0.98637112  0.66494470  1
  H+  H192  1  0.37597085  0.51806714  1.00555053  1
  H+  H193  1  0.77182261  0.38325345  0.16239788  1
  H+  H194  1  0.46075540  0.09400227  0.32921639  1
  H+  H195  1  0.29968771  0.45627220  0.82951361  1
  H+  H196  1  0.65118721  0.79702670  0.83303997  1
  H+  H197  1  0.36011206  0.87489209  0.84309553  1
  H+  H198  1  0.72125466  0.59543878  0.18124205  1
  H+  H199  1  0.98201672  0.11142420  0.50687240  1
  H+  H200  1  0.37266231  0.48197371  0.15472056  1
  H+  H201  1  0.11896013  0.71675989  0.48966903  1
  H+  H202  1  0.86051196  0.13446639  0.66293584  1
  H+  H203  1  0.68001482  0.34356183  0.88623543  1
  H+  H204  1  0.61259892  0.13897433  0.98406429  1
  H+  H205  1  0.35172884  0.96641481  0.00287135  1
  H+  H206  1  0.74815305  0.39382030  0.32134569  1
  H+  H207  1  0.35233272  0.95826517  0.83590575  1
  H+  H208  1  0.13531648  0.02005227  0.65599480  1
  H+  H209  1  0.38253281  0.46807701  0.34451122  1
  H+  H210  1  0.70868046  0.57371355  0.85641584  1
  H+  H211  1  0.85623641  0.90638243  0.18882754  1
  H+  H212  1  0.38504104  0.02209969  0.16761069  1
  H+  H213  1  0.37180205  0.37464496  0.33807745  1
  H+  H214  1  0.83144101  0.66675308  0.39867133  1
  H+  H215  1  0.57519574  0.66747406  0.43907046  1
  H+  H216  1  0.38680812  0.27394029  0.17378138  1
  H+  H217  1  0.90337509  0.52765903  0.99487936  1
  H+  H218  1  0.78060348  0.14831403  0.16079032  1
  H+  H219  1  0.36639700  0.63766269  0.15282441  1
  H+  H220  1  0.38701481  0.35318675  0.66364157  1
  H+  H221  1  0.36308384  0.53784063  0.28728558  1
  H+  H222  1  0.86932359  0.70167444  0.16273002  1
  H+  H223  1  0.87902696  0.57249788  0.84389133  1
  H+  H224  1  0.28552922  0.88448998  0.48904954  1
  H+  H225  1  0.87915174  0.45066529  0.84188347  1
  H+  H226  1  0.36862546  0.24049917  0.49525022  1
  H+  H227  1  0.10226799  0.95769502  0.16602660  1
  H+  H228  1  0.84205123  0.66704231  0.82169288  1
  H+  H229  1  0.86163883  0.97809986  0.49287852  1
  H+  H230  1  0.12554689  0.52500205  0.99786305  1
  H+  H231  1  0.07801979  0.41361738  0.06231395  1
  H+  H232  1  0.86763804  0.38526384  0.16576502  1
  H+  H233  1  0.64250685  0.03367027  0.15327894  1
  H+  H234  1  0.29105746  0.65424036  0.66494128  1
  H+  H235  1  0.47501940  0.35621299  0.50654267  1
  H+  H236  1  0.27331301  0.38299967  0.00483598  1
  H+  H237  1  0.81689598  0.16103384  0.36313744  1
  H+  H238  1  0.24131358  0.36253630  0.48685722  1
  H+  H239  1  0.97948070  0.61455421  0.32671071  1
  H+  H240  1  0.11286802  0.88246509  0.00804577  1
  H+  H241  1  0.90523046  0.30236750  0.32108747  1
  H+  H242  1  0.87692673  0.90471231  0.82605741  1
  H+  H243  1  0.11602104  0.22862462  0.48354830  1
  H+  H244  1  0.52815121  0.89067921  0.49522117  1
  H+  H245  1  0.72356492  0.60781682  0.33566285  1
  H+  H246  1  0.22994819  0.36021856  0.32605282  1
  H+  H247  1  0.87446767  0.40343059  0.33707781  1
  H+  H248  1  0.03307415  0.65385900  0.67562946  1
  H+  H249  1  0.13916017  0.51183406  0.83401363  1
  H+  H250  1  0.62196638  0.12789322  0.50235730  1
  H+  H251  1  0.75866532  0.40789945  -0.02651361  1
  H+  H252  1  0.37318704  1.10359237  -0.01092523  1
  H+  H253  1  1.03302640  0.13447480  1.00916267  1
  H+  H254  1  0.36950762  0.73761462  0.32548595  1
  H+  H255  1  0.61694883  0.82764467  0.19343689  1
  H+  H256  1  1.02565007  0.88101181  0.66714604  1
  H+  H257  1  0.61690529  0.72090127  0.34261134  1
  H+  H258  1  0.85882573  0.71217155  0.01316931  1
  H+  H259  1  0.89213102  0.36816590  0.64279436  1
  H+  H260  1  0.14806289  0.10924187  0.32887947  1
  H+  H261  1  -0.02770221  0.87077468  0.49953215  1
  H+  H262  1  0.14057036  0.27686286  0.99364411  1
  H+  H263  1  0.64057572  0.59007167  0.65686546  1
  H+  H264  1  0.60059480  0.12876830  0.81813659  1
  H+  H265  1  0.85666258  0.22044916  0.65570197  1
  H+  H266  1  0.60510739  0.47680023  0.34554834  1
  H+  H267  1  0.48454997  0.87387796  0.66588839  1
  H+  H268  1  0.31911362  0.72703387  0.80491442  1
  H+  H269  1  0.52703764  0.37963017  0.66773979  1
  H+  H270  1  0.15002321  0.86976406  0.65768200  1
  H+  H271  1  0.56913734  0.40992303  0.43767944  1
  H+  H272  1  0.52162345  0.14253577  0.15852010  1
  H+  H273  1  0.34667178  0.59950439  0.84367688  1
  H+  H274  1  0.86434365  0.62656874  0.00622927  1
  H+  H275  1  0.36787047  0.22024488  0.34040293  1
  H+  H276  1  0.26064657  0.61226970  0.46367615  1
  H+  H277  1  0.89222241  0.28203336  0.17453036  1
  H+  H278  1  0.70851920  0.11331282  0.30058926  1
  H+  H279  1  0.86327213  0.88035823  0.66992115  1
  H+  H280  1  0.66119497  0.68194733  0.79860559  1
  H+  H281  1  0.26828405  0.37829685  0.68075028  1
  H+  H282  1  0.37249139  0.26150836  0.83385524  1
  H+  H283  1  0.84241668  0.15919689  0.45777041  1
  H+  H284  1  0.89219376  1.02031226  0.66191734  1
  H+  H285  1  0.62809750  0.69305034  0.63572366  1
  H+  H286  1  0.72503885  0.36130500  0.64215705  1
  H+  H287  1  0.27692041  0.13100717  0.34275016  1
  H+  H288  1  0.13374287  0.32407989  0.62698004  1
  H+  H289  1  0.58270457  0.93218464  0.08590659  1
  H+  H290  1  0.51349864  0.32832920  0.99135161  1
  H+  H291  1  0.94204658  0.34844816  0.55588618  1
  H+  H292  1  0.34199153  0.91690346  0.40756642  1
  H+  H293  1  0.92633565  0.57182910  0.90542808  1
  H+  H294  1  0.84732656  0.42119383  0.06793546  1
  H+  H295  1  0.12136744  0.09415210  0.17601543  1
  H+  H296  1  0.61780226  0.99383338  0.69596601  1
  H+  H297  1  0.56383853  0.35120576  0.05381210  1
  H+  H298  1  0.40743063  0.32341715  0.92388503  1
  H+  H299  1  0.21619049  0.51535353  0.45717460  1
  H+  H300  1  0.87182586  0.88571100  0.02053623  1
  H+  H301  1  0.77529841  0.88396016  0.67189099  1
  H+  H302  1  0.41297245  0.32371417  0.60228546  1
  H+  H303  1  0.65554987  0.77937787  0.98716415  1
  H+  H304  1  0.89367624  0.12623323  0.18212757  1
  H+  H305  1  0.06876772  0.39295654  0.76067530  1
  H+  H306  1  0.37638400  0.97645015  0.49110866  1
  H+  H307  1  0.15488959  0.06578201  0.23399548  1
  H+  H308  1  0.92902092  0.35006350  0.23049363  1
  H+  H309  1  0.64452694  0.54594126  0.96831509  1
  H+  H310  1  0.34934979  0.41107662  0.43218147  1
  H+  H311  1  0.91322848  0.30180392  0.91932455  1
  H+  H312  1  0.16521735  0.08457361  0.94289875  1
  H+  H313  1  0.61126802  0.14468924  0.15000840  1
  H+  H314  1  0.17020731  0.08804228  0.56433997  1
  H+  H315  1  0.85108281  0.17562409  0.10820488  1
  H+  H316  1  0.91038887  0.56910876  0.23939469  1
  H+  H317  1  0.57367697  0.16986964  0.72958677  1
  H+  H318  1  0.17989618  0.34685112  0.54101895  1
  H+  H319  1  0.08012267  0.92836911  0.42027652  1
  H+  H320  1  0.14145271  0.38098386  0.82189788  1
  H+  H321  1  0.18689119  0.82832233  0.57207030  1
  H+  H322  1  0.61722823  0.90167362  0.68163586  1
  H+  H323  1  0.91862535  0.83590457  0.94594984  1
  H+  H324  1  0.82569253  0.71019083  0.71822430  1
  H+  H325  1  0.17037468  0.33600544  0.23052094  1
  H+  H326  1  0.44055070  0.87231809  0.26933419  1
  H+  H327  1  0.92826480  0.07954446  0.60289677  1
  H+  H328  1  0.56805561  0.17893185  0.06188364  1
  H+  H329  1  0.92141379  0.07886788  0.90703016  1
  H+  H330  1  0.33990177  0.67211908  0.72822389  1
  H+  H331  1  0.59663498  0.47011180  0.49590942  1
  H+  H332  1  0.92073768  0.83611632  0.59526097  1
  H+  H333  1  0.66439152  0.84432158  0.59875675  1
  H+  H334  1  0.07223092  0.15689794  0.76839426  1
  H+  H335  1  0.16925369  0.57904530  0.26303164  1
  H+  H336  1  0.08552896  0.42580613  0.40505176  1
  H+  H337  1  0.08192563  0.65839050  0.43021480  1
  H+  H338  1  0.58197616  0.14511099  0.44133752  1
  H+  H339  1  0.84131857  0.92419851  0.76487928  1
  H+  H340  1  0.84430930  0.92220147  0.07790840  1
  H+  H341  1  0.34267151  0.17713356  0.09824503  1
  H+  H342  1  0.41072933  0.07660145  0.22852371  1
  H+  H343  1  0.87894740  0.61617349  0.50137356  1
  H+  H344  1  0.40851252  0.58262475  0.95158669  1
  H+  H345  1  0.09065942  0.16853401  0.06949252  1
  H+  H346  1  0.13690028  0.85052852  0.17599237  1
  H+  H347  1  0.40360693  0.07246607  0.89709296  1
  H+  H348  1  0.59766476  0.44876451  0.82803340  1
  H+  H349  1  0.65402672  0.08330772  0.21475722  1
  H+  H350  1  0.63392451  0.67449103  0.03802829  1
  H+  H351  1  0.83653053  0.64393072  0.10247299  1
  H+  H352  1  0.43768581  0.60127040  0.21583425  1
  H+  H353  1  0.67652846  0.34856866  0.22420267  1
  H+  H354  1  0.92373178  0.07843873  0.27016930  1
  H+  H355  1  0.33546867  0.17064813  0.43038478  1
  H+  H356  1  0.83305866  0.40483322  0.43287459  1
  H+  H357  1  0.80675322  0.61520163  0.76222352  1
  H+  H358  1  0.83360520  0.42042596  0.70401041  1
  H+  H359  1  0.65803560  0.09272386  0.89423621  1
  H+  H360  1  0.08317050  0.90347839  0.10374953  1
  H+  H361  1  0.08235676  0.66512877  0.76836444  1
  H+  H362  1  0.66713609  0.57904331  0.56352458  1
  H+  H363  1  0.60159370  0.67564140  0.70636626  1
  H+  H364  1  0.31934430  0.14766171  0.76414916  1
  H+  H365  1  0.48371803  0.09833675  0.50917033  1
  H+  H366  1  0.33412170  0.40843647  0.06373406  1
  H+  H367  1  0.82945379  0.91512247  0.43382222  1
  H+  H368  1  0.67199016  0.32472021  0.55662375  1
  H+  H369  1  0.42616461  0.83045668  0.91140755  1
  H+  H370  1  0.88341002  0.86957872  0.50461893  1
  H+  H371  1  0.15413349  0.82068174  0.93916938  1
  H+  H372  1  0.57855554  0.40377266  0.76199922  1
  H+  H373  1  0.49960964  0.90109486  0.17812035  1
  H+  H374  1  0.41706778  0.06611843  0.56400776  1
  H+  H375  1  0.79145283  0.36335588  0.83420582  1
  H+  H376  1  0.11347221  0.62817705  0.33478892  1
  H+  H377  1  0.86105767  0.96045609  0.33720349  1
  H+  H378  1  0.32884567  0.91119751  0.09810858  1
  H+  H379  1  0.39449538  0.56822901  0.55973084  1
  H+  H380  1  0.16728728  0.82465390  0.26702576  1
  H+  H381  1  0.99715096  0.38740636  0.32740010  1
  H+  H382  1  0.09189896  0.16304018  0.39602740  1
  H+  H383  1  0.59954035  0.93358754  0.41081758  1
  O2-  O384  1  0.08827760  0.16741373  0.14688647  1
  O2-  O385  1  0.08345654  0.16584091  0.47383932  1
  O2-  O386  1  0.07135202  0.15882356  0.81561735  1
  O2-  O387  1  0.09018915  0.41826916  0.14020156  1
  O2-  O388  1  0.09130370  0.43016249  0.46753029  1
  O2-  O389  1  0.09741014  0.40510051  0.82542272  1
  O2-  O390  1  0.08580835  0.65998160  0.14877331  1
  O2-  O391  1  0.07927729  0.65818784  0.47557478  1
  O2-  O392  1  0.08226455  0.66015812  0.81336722  1
  O2-  O393  1  0.07957845  0.89722290  0.14908776  1
  O2-  O394  1  0.08144307  0.93729006  0.46626733  1
  O2-  O395  1  0.12241340  0.93436697  0.80777333  1
  O2-  O396  1  0.34357232  0.17999446  0.14332739  1
  O2-  O397  1  0.33367562  0.17513190  0.47697722  1
  O2-  O398  1  0.31112438  0.14213088  0.80908328  1
  O2-  O399  1  0.34158219  0.41934236  0.14487739  1
  O2-  O400  1  0.34292778  0.40863665  0.47762094  1
  O2-  O401  1  0.28559131  0.39900246  0.81051330  1
  O2-  O402  1  0.32956826  0.66328190  0.14543735  1
  O2-  O403  1  0.27344856  0.56702077  0.45350184  1
  O2-  O404  1  0.31938532  0.67284051  0.80341492  1
  O2-  O405  1  0.33326477  0.91672090  0.14345051  1
  O2-  O406  1  0.34389626  0.91557462  0.47076645  1
  O2-  O407  1  0.32229541  0.89538583  0.82758905  1
  O2-  O408  1  0.58114381  0.17735132  0.14146613  1
  O2-  O409  1  0.58822319  0.15576254  0.48551638  1
  O2-  O410  1  0.56749539  0.15735330  0.80724043  1
  O2-  O411  1  0.56380129  0.38667050  0.12046725  1
  O2-  O412  1  0.56394661  0.40919787  0.48269815  1
  O2-  O413  1  0.57159785  0.39290242  0.80656284  1
  O2-  O414  1  0.59537983  0.66195645  0.13803268  1
  O2-  O415  1  0.57332604  0.66975668  0.48456172  1
  O2-  O416  1  0.61740423  0.69574020  0.78612626  1
  O2-  O417  1  0.59774376  0.93370623  0.13227362  1
  O2-  O418  1  0.59035432  0.92335708  0.48001404  1
  O2-  O419  1  0.58558349  0.91631554  0.81358634  1
  O2-  O420  1  0.84396013  0.17921520  0.15347287  1
  O2-  O421  1  0.84823615  0.17252930  0.50137293  1
  O2-  O422  1  0.83820704  0.16572221  0.82624828  1
  O2-  O423  1  0.83714613  0.41796332  0.15192453  1
  O2-  O424  1  0.82597850  0.38852443  0.47660708  1
  O2-  O425  1  0.85377589  0.39092936  0.82606198  1
  O2-  O426  1  0.83840672  0.64118725  0.14854184  1
  O2-  O427  1  0.82203149  0.67368026  0.47156484  1
  O2-  O428  1  0.80687845  0.60802047  0.80786948  1
  O2-  O429  1  0.82613331  0.92477481  0.16131249  1
  O2-  O430  1  0.82793437  0.91685094  0.47930058  1
  O2-  O431  1  0.84159530  0.92869852  0.81035511  1
  O2-  O432  1  0.12919785  0.04774784  0.19324219  1
  O2-  O433  1  0.17527952  0.09490895  0.51894096  1
  O2-  O434  1  0.16225711  0.09667499  0.85969656  1
  O2-  O435  1  0.17224615  0.33493878  0.18528804  1
  O2-  O436  1  0.17801625  0.33478745  0.49789361  1
  O2-  O437  1  0.19163024  0.34425617  0.80415917  1
  O2-  O438  1  0.17205266  0.57752131  0.18504870  1
  O2-  O439  1  0.14647720  0.57408474  0.53181443  1
  O2-  O440  1  0.17010939  0.57575236  0.83622561  1
  O2-  O441  1  0.16926927  0.82301019  0.19239665  1
  O2-  O442  1  0.18594807  0.82463603  0.52620373  1
  O2-  O443  1  0.15791809  0.82426027  0.85673910  1
  O2-  O444  1  0.41787084  0.08205189  0.18401513  1
  O2-  O445  1  0.42133991  0.06345645  0.51929812  1
  O2-  O446  1  0.40064165  0.06915292  0.85137576  1
  O2-  O447  1  0.41814997  0.33306150  0.19332751  1
  O2-  O448  1  0.41137483  0.32026240  0.52229841  1
  O2-  O449  1  0.40330952  0.32177765  0.84701914  1
  O2-  O450  1  0.43191958  0.59176555  0.17160994  1
  O2-  O451  1  0.40117235  0.56816152  0.51501575  1
  O2-  O452  1  0.35524072  0.55291967  0.85952708  1
  O2-  O453  1  0.45548020  0.90082227  0.20481290  1
  O2-  O454  1  0.43284072  0.83706883  0.51934469  1
  O2-  O455  1  0.43553860  0.83111448  0.86447517  1
  O2-  O456  1  0.66866588  0.09354886  0.17122606  1
  O2-  O457  1  0.67055064  0.08539523  0.52985049  1
  O2-  O458  1  0.67001834  0.08972261  0.85027595  1
  O2-  O459  1  0.67950484  0.34154095  0.17963338  1
  O2-  O460  1  0.67905261  0.31972818  0.51141133  1
  O2-  O461  1  0.66727160  0.31905270  0.84363660  1
  O2-  O462  1  0.66275002  0.57632604  0.19548966  1
  O2-  O463  1  0.65940511  0.58111987  0.51878119  1
  O2-  O464  1  0.65048152  0.54287318  0.87415128  1
  O2-  O465  1  0.66818135  0.82391691  0.20167351  1
  O2-  O466  1  0.66496620  0.83515232  0.52449671  1
  O2-  O467  1  0.67553052  0.85687389  0.84611668  1
  O2-  O468  1  0.92227268  0.09327369  0.19502337  1
  O2-  O469  1  0.92348623  0.07920939  0.52545334  1
  O2-  O470  1  0.92075827  0.08432407  0.86089126  1
  O2-  O471  1  0.92203525  0.34489905  0.18525549  1
  O2-  O472  1  0.93684777  0.34311362  0.51080984  1
  O2-  O473  1  0.92633423  0.30653603  0.87090473  1
  O2-  O474  1  0.90869561  0.56176265  0.19333219  1
  O2-  O475  1  0.90677202  0.58793310  0.52182539  1
  O2-  O476  1  0.92312448  0.56036576  0.85967237  1
  O2-  O477  1  0.92026371  0.81275172  0.18292781  1
  O2-  O478  1  0.91496203  0.83976110  0.51868352  1
  O2-  O479  1  0.95118969  0.87493246  0.85588863  1
  O2-  O480  1  0.18044527  0.08026509  0.31523879  1
  O2-  O481  1  0.16544687  0.08112238  0.64218300  1
  O2-  O482  1  0.16450664  0.07737803  0.98740613  1
  O2-  O483  1  0.16990191  0.33262581  0.31165700  1
  O2-  O484  1  0.15383771  0.32526477  0.66816580  1
  O2-  O485  1  0.17112344  0.33624250  0.97776858  1
  O2-  O486  1  0.17030354  0.58412402  0.30852578  1
  O2-  O487  1  0.18538193  0.60938334  0.64219996  1
  O2-  O488  1  0.15910103  0.58739577  0.98886310  1
  O2-  O489  1  0.16446943  0.82514631  0.31314433  1
  O2-  O490  1  0.18335655  0.84076865  0.64641410  1
  O2-  O491  1  0.15878348  0.82793696  0.98390182  1
  O2-  O492  1  0.40051033  0.06510514  0.31382443  1
  O2-  O493  1  0.41472298  0.07366417  0.64576655  1
  O2-  O494  1  0.40245255  0.07155795  0.97389755  1
  O2-  O495  1  0.41483870  0.32019428  0.31287847  1
  O2-  O496  1  0.41634774  0.32312989  0.64759289  1
  O2-  O497  1  0.41136501  0.32078684  0.96935169  1
  O2-  O498  1  0.41427183  0.58908679  0.30170651  1
  O2-  O499  1  0.40430045  0.56790205  0.64342148  1
  O2-  O500  1  0.40140669  0.58046822  0.99544481  1
  O2-  O501  1  0.43084452  0.85844152  0.31569072  1
  O2-  O502  1  0.42540386  0.84277337  0.64773224  1
  O2-  O503  1  0.40696518  0.82638806  0.97796779  1
  O2-  O504  1  0.64621212  0.07816468  0.29871455  1
  O2-  O505  1  0.66243244  0.07941593  0.69761300  1
  O2-  O506  1  0.64173277  0.10616740  0.96984158  1
  O2-  O507  1  0.68815552  0.36616277  0.30287805  1
  O2-  O508  1  0.66354565  0.32543381  0.63078522  1
  O2-  O509  1  0.71228338  0.40333887  0.94746755  1
  O2-  O510  1  0.66210614  0.57645022  0.32279665  1
  O2-  O511  1  0.67800841  0.56879916  0.64210144  1
  O2-  O512  1  0.65116894  0.55415000  1.01232009  1
  O2-  O513  1  0.66160164  0.81884372  0.31507284  1
  O2-  O514  1  0.66426337  0.84613921  0.64499183  1
  O2-  O515  1  0.67286895  0.84155585  0.98875943  1
  O2-  O516  1  0.92578600  0.06715728  0.31481960  1
  O2-  O517  1  0.92652356  0.08104501  0.64849148  1
  O2-  O518  1  0.92905754  0.07832369  0.98009158  1
  O2-  O519  1  0.93574433  0.36165308  0.30734151  1
  O2-  O520  1  0.92174722  0.33541251  0.63408605  1
  O2-  O521  1  0.88202129  0.29333321  0.97997106  1
  O2-  O522  1  0.91813264  0.58476826  0.31208152  1
  O2-  O523  1  0.92332133  0.60099967  0.68027957  1
  O2-  O524  1  0.92567693  0.58562629  0.97682031  1
  O2-  O525  1  0.91814476  0.82770750  0.30938242  1
  O2-  O526  1  0.92201084  0.83303402  0.64095811  1
  O2-  O527  1  0.91680843  0.82752829  0.98998991  1
  O2-  O528  1  0.09335459  0.16738443  0.02399331  1
  O2-  O529  1  0.09579188  0.16270692  0.35062739  1
  O2-  O530  1  0.07994317  0.15575032  0.69954676  1
  O2-  O531  1  0.07376237  0.41380136  0.01689217  1
  O2-  O532  1  0.08342019  0.42269969  0.35487877  1
  O2-  O533  1  0.06039469  0.39110768  0.71350647  1
  O2-  O534  1  0.05513760  0.69040387  0.03971840  1
  O2-  O535  1  0.08123288  0.65638457  0.35140546  1
  O2-  O536  1  0.09506899  0.68270247  0.68783565  1
  O2-  O537  1  0.08129759  0.91083748  0.02569629  1
  O2-  O538  1  0.08283639  0.91144241  0.34953386  1
  O2-  O539  1  0.08747093  0.91306278  0.68065620  1
  O2-  O540  1  0.33477936  0.16308953  0.01728660  1
  O2-  O541  1  0.33785799  0.16107531  0.35938080  1
  O2-  O542  1  0.33146567  0.15476781  0.68480167  1
  O2-  O543  1  0.33485406  0.41076588  0.01854943  1
  O2-  O544  1  0.34498503  0.40805831  0.35606827  1
  O2-  O545  1  0.32850162  0.40852965  0.69568776  1
  O2-  O546  1  0.32611085  0.67051799  0.02116871  1
  O2-  O547  1  0.34451597  0.67688267  0.33655509  1
  O2-  O548  1  0.34946318  0.67641931  0.68303453  1
  O2-  O549  1  0.32419553  0.90666672  0.01927427  1
  O2-  O550  1  0.34070153  0.91548264  0.35811610  1
  O2-  O551  1  0.34455232  0.92075607  0.67874200  1
  O2-  O552  1  0.56274725  0.18209572  0.01698252  1
  O2-  O553  1  0.55971502  0.13740778  0.36118222  1
  O2-  O554  1  0.57453683  0.16513786  0.68410088  1
  O2-  O555  1  0.56348663  0.32919179  0.01109874  1
  O2-  O556  1  0.57559020  0.41396902  0.35733206  1
  O2-  O557  1  0.58739670  0.40543989  0.68225558  1
  O2-  O558  1  0.65365887  0.68383860  -0.00460749  1
  O2-  O559  1  0.58143420  0.66084810  0.36079316  1
  O2-  O560  1  0.58321207  0.65530601  0.66407850  1
  O2-  O561  1  0.56536459  0.93628877  0.02155042  1
  O2-  O562  1  0.60882835  0.94114549  0.36413143  1
  O2-  O563  1  0.58167381  0.92281551  0.70140534  1
  O2-  O564  1  0.85479921  0.16065648  0.03420920  1
  O2-  O565  1  0.81820898  0.11180679  0.38030601  1
  O2-  O566  1  0.82659465  0.16202723  0.67287117  1
  O2-  O567  1  0.85521265  0.42416052  0.02348762  1
  O2-  O568  1  0.83935778  0.42680121  0.35501937  1
  O2-  O569  1  0.83525146  0.42553363  0.65976125  1
  O2-  O570  1  0.83416972  0.65264340  0.02830476  1
  O2-  O571  1  0.83308222  0.66118337  0.35293645  1
  O2-  O572  1  0.82504993  0.66754820  0.69070311  1
  O2-  O573  1  0.85009853  0.92464196  0.03328600  1
  O2-  O574  1  0.82847479  0.90184000  0.35533277  1
  O2-  O575  1  0.83494755  0.91135852  0.68744564  1
