# generated using pymatgen
data_H2O
_symmetry_space_group_name_H-M   'P 1'
_cell_length_a   18.00229845
_cell_length_b   17.99885539
_cell_length_c   22.00073739
_cell_angle_alpha   90.00940442
_cell_angle_beta   89.98258070
_cell_angle_gamma   119.98100703
_symmetry_Int_Tables_number   1
_chemical_formula_structural   H2O
_chemical_formula_sum   'H384 O192'
_cell_volume   6174.81257196
_cell_formula_units_Z   192
loop_
 _symmetry_equiv_pos_site_id
 _symmetry_equiv_pos_as_xyz
  1  'x, y, z'
loop_
 _atom_type_symbol
 _atom_type_oxidation_number
  H+  1.0
  O2-  -2.0
loop_
 _atom_site_type_symbol
 _atom_site_label
 _atom_site_symmetry_multiplicity
 _atom_site_fract_x
 _atom_site_fract_y
 _atom_site_fract_z
 _atom_site_occupancy
  H+  H0  1  0.83851447  0.46331494  0.17067820  1
  H+  H1  1  0.10545005  0.68330738  0.49127332  1
  H+  H2  1  0.89453196  0.02167033  0.50798639  1
  H+  H3  1  0.89013339  0.66269345  0.83776122  1
  H+  H4  1  0.62344245  0.01331232  0.32006360  1
  H+  H5  1  0.47736383  0.60884878  0.76572020  1
  H+  H6  1  0.26852276  0.89144922  0.33622443  1
  H+  H7  1  0.39161271  0.60606583  1.01714439  1
  H+  H8  1  0.44672617  0.58322902  0.33491989  1
  H+  H9  1  0.56399658  0.40938597  0.53290790  1
  H+  H10  1  0.65125999  0.39914628  -0.02203839  1
  H+  H11  1  0.62681794  0.15346499  0.17368342  1
  H+  H12  1  0.56131825  0.68654507  0.35561863  1
  H+  H13  1  0.86133762  0.73207374  0.33913039  1
  H+  H14  1  0.44002918  0.07311711  0.99826612  1
  H+  H15  1  0.46024483  0.11119281  0.86688997  1
  H+  H16  1  0.39516809  0.28152331  0.17458988  1
  H+  H17  1  0.12037358  0.64704973  0.32792456  1
  H+  H18  1  0.34997050  0.48167338  0.32960435  1
  H+  H19  1  0.40566885  0.62820364  0.49242758  1
  H+  H20  1  0.34295470  0.48352140  0.64341351  1
  H+  H21  1  0.85978393  0.50072919  0.66507835  1
  H+  H22  1  0.74881051  0.11960296  0.84659880  1
  H+  H23  1  0.77104495  0.87821658  0.15588791  1
  H+  H24  1  0.40569152  0.27606917  0.64976575  1
  H+  H25  1  0.85350661  0.12585864  0.34759833  1
  H+  H26  1  0.52285258  0.63289639  0.01227181  1
  H+  H27  1  1.00046025  0.36332512  0.83216486  1
  H+  H28  1  0.36997122  0.24677163  0.34383074  1
  H+  H29  1  0.40147802  0.66191070  0.85488973  1
  H+  H30  1  0.47049563  0.86772132  0.66233136  1
  H+  H31  1  0.58607262  0.22927440  0.00015455  1
  H+  H32  1  0.13723214  0.38064580  0.32462984  1
  H+  H33  1  0.58945294  0.50879463  0.35591279  1
  H+  H34  1  0.63229420  0.09817835  0.66355660  1
  H+  H35  1  0.61148745  0.11841639  0.33550347  1
  H+  H36  1  0.66621536  0.12812989  0.84648448  1
  H+  H37  1  0.62846543  0.52055102  0.16948287  1
  H+  H38  1  0.54818411  0.11076023  0.81262754  1
  H+  H39  1  0.11237440  0.27439347  0.66639503  1
  H+  H40  1  0.14404487  0.51426917  0.16747749  1
  H+  H41  1  0.36362830  0.38766486  0.16049425  1
  H+  H42  1  0.33372992  0.37930819  0.49194267  1
  H+  H43  1  0.14682021  0.52385914  0.83308839  1
  H+  H44  1  0.85540932  0.83255486  0.50854504  1
  H+  H45  1  0.68660588  1.01372734  0.18725590  1
  H+  H46  1  0.38471812  0.86293115  0.98851896  1
  H+  H47  1  0.95000504  0.85496557  0.49853738  1
  H+  H48  1  0.56883197  0.06586230  0.01670559  1
  H+  H49  1  0.12788454  0.25491613  0.47831323  1
  H+  H50  1  0.11777933  0.48356877  0.33511047  1
  H+  H51  1  0.49497419  0.36445387  0.64685928  1
  H+  H52  1  0.75749565  0.17535183  0.18417383  1
  H+  H53  1  0.31516486  0.35136733  0.76090592  1
  H+  H54  1  0.93174100  0.85474238  0.94511431  1
  H+  H55  1  0.82581254  0.36927278  0.17303353  1
  H+  H56  1  0.88881919  0.86371364  0.15777735  1
  H+  H57  1  -0.01123713  0.88886662  0.85392977  1
  H+  H58  1  0.77604908  0.64114168  0.33412557  1
  H+  H59  1  0.88006194  0.22990786  0.81601298  1
  H+  H60  1  0.99281691  0.63118454  0.32179744  1
  H+  H61  1  1.00748761  0.12176391  1.00118310  1
  H+  H62  1  0.86931078  0.10096400  0.18129784  1
  H+  H63  1  0.39475139  0.38706316  0.67380485  1
  H+  H64  1  0.24365107  0.31424049  0.81368806  1
  H+  H65  1  0.31750587  0.41656111  0.39130398  1
  H+  H66  1  0.27246960  0.62887695  0.48096858  1
  H+  H67  1  0.88014766  0.11647829  0.99039547  1
  H+  H68  1  0.30422848  0.90885551  0.49048786  1
  H+  H69  1  0.86106199  0.21922951  0.34346797  1
  H+  H70  1  0.61770434  0.69480993  0.41392021  1
  H+  H71  1  0.36828477  0.12532010  0.83454974  1
  H+  H72  1  0.91588731  0.37367107  0.33449671  1
  H+  H73  1  0.35858916  0.62576928  0.33256386  1
  H+  H74  1  0.02424120  0.97794195  0.44732087  1
  H+  H75  1  0.87461589  0.01797781  0.16375334  1
  H+  H76  1  0.34707891  0.36717224  1.00676941  1
  H+  H77  1  0.91597855  0.06972812  0.61012886  1
  H+  H78  1  0.38676978  0.02690653  0.66690563  1
  H+  H79  1  0.00523668  0.14214877  0.69460694  1
  H+  H80  1  0.13780034  0.49001113  0.46101040  1
  H+  H81  1  0.88864780  0.62025322  0.65066340  1
  H+  H82  1  0.61877388  0.90145260  0.81834315  1
  H+  H83  1  0.85820976  0.22979708  0.99763725  1
  H+  H84  1  0.62240950  0.38983433  0.34495116  1
  H+  H85  1  0.64793035  0.36980995  0.49642668  1
  H+  H86  1  0.59931571  0.38654992  0.14861573  1
  H+  H87  1  0.37888809  0.85589191  0.31511723  1
  H+  H88  1  0.41958815  0.34349495  0.23356996  1
  H+  H89  1  0.63269066  0.74016720  0.50401430  1
  H+  H90  1  0.41310621  0.03293046  0.49440750  1
  H+  H91  1  0.38497732  0.14179302  0.67046460  1
  H+  H92  1  0.37134420  0.22735844  0.49926070  1
  H+  H93  1  0.16286588  0.82879575  0.91412086  1
  H+  H94  1  0.49051065  0.60266285  0.79680339  1
  H+  H95  1  0.98017906  0.34674470  0.50604711  1
  H+  H96  1  0.17441393  0.09033302  0.88771110  1
  H+  H97  1  0.40255051  0.26485039  0.84682560  1
  H+  H98  1  0.61305569  0.46639091  0.81819903  1
  H+  H99  1  0.82485277  0.70269702  0.65564106  1
  H+  H100  1  0.36492056  0.89843364  0.82546664  1
  H+  H101  1  0.17657693  0.08623308  0.69076243  1
  H+  H102  1  0.22942608  0.37502463  0.32489627  1
  H+  H103  1  0.91819241  0.37009222  0.82224122  1
  H+  H104  1  0.65016233  0.12275892  0.51071156  1
  H+  H105  1  0.72644546  0.39538360  0.82444620  1
  H+  H106  1  0.34273250  0.11801346  0.01216345  1
  H+  H107  1  0.89000164  0.36643320  0.98189434  1
  H+  H108  1  0.94883777  0.08396975  0.34214503  1
  H+  H109  1  0.61107969  0.22956565  0.29944604  1
  H+  H110  1  0.60056617  0.80725980  0.82752972  1
  H+  H111  1  0.11907309  0.88600189  -0.00964946  1
  H+  H112  1  0.00474259  0.12676707  0.14745567  1
  H+  H113  1  0.58936443  0.92462513  0.15303500  1
  H+  H114  1  0.16541308  0.61238241  0.16278986  1
  H+  H115  1  0.54735107  0.45297500  0.00418075  1
  H+  H116  1  0.33916249  0.96615639  -0.00010312  1
  H+  H117  1  0.86866736  0.48097218  1.00935462  1
  H+  H118  1  0.50423482  0.11816595  0.17887497  1
  H+  H119  1  0.66404843  0.02778315  0.16479138  1
  H+  H120  1  0.36084392  0.89905704  0.67217320  1
  H+  H121  1  0.61777605  0.71907170  0.16861560  1
  H+  H122  1  0.83530106  0.66302807  0.42480414  1
  H+  H123  1  0.07135453  0.64418457  0.14869696  1
  H+  H124  1  0.40674057  0.12238321  0.49914950  1
  H+  H125  1  0.11615336  0.73056202  0.98992140  1
  H+  H126  1  0.09410296  0.12141908  0.15228471  1
  H+  H127  1  0.65038240  0.69108543  0.75204630  1
  H+  H128  1  0.91489059  0.86943110  0.37555790  1
  H+  H129  1  0.11087037  0.83863916  0.49354525  1
  H+  H130  1  0.61854655  0.62103729  0.16786802  1
  H+  H131  1  0.91732766  0.50135133  0.35427488  1
  H+  H132  1  0.65295256  0.62698021  0.50741674  1
  H+  H133  1  0.23141344  0.87230075  0.17764612  1
  H+  H134  1  0.46285708  0.38489436  0.33415245  1
  H+  H135  1  0.23259382  0.76912828  0.54315828  1
  H+  H136  1  0.71615309  0.86126953  0.51152261  1
  H+  H137  1  0.13894801  0.87386065  0.32899895  1
  H+  H138  1  0.03090197  0.38532196  0.15797509  1
  H+  H139  1  0.58193619  0.40372483  0.72182414  1
  H+  H140  1  0.84426213  0.62877109  0.18418536  1
  H+  H141  1  0.59435286  0.21095956  0.83020549  1
  H+  H142  1  0.63143587  0.23983590  1.00630387  1
  H+  H143  1  0.87447794  1.02484889  -0.01155325  1
  H+  H144  1  0.73340262  0.35948587  0.49544760  1
  H+  H145  1  0.75668273  0.35446327  0.36186774  1
  H+  H146  1  0.13574951  0.02216918  0.98343357  1
  H+  H147  1  0.64397198  0.73683395  0.66588569  1
  H+  H148  1  0.45978137  0.83711862  0.16550057  1
  H+  H149  1  0.29965479  0.65310295  0.66672897  1
  H+  H150  1  0.57886848  0.32212692  0.83952029  1
  H+  H151  1  0.08005709  -0.04611504  0.66771821  1
  H+  H152  1  0.26119797  0.40387381  0.49032899  1
  H+  H153  1  0.33647678  0.48364782  0.82752967  1
  H+  H154  1  0.11329515  0.64493318  0.67538319  1
  H+  H155  1  0.03449731  0.89329452  0.00379527  1
  H+  H156  1  0.89862500  0.79260852  0.00491381  1
  H+  H157  1  0.06385404  0.14536044  0.07803738  1
  H+  H158  1  0.79754623  0.64988362  0.83529736  1
  H+  H159  1  0.89146595  0.28009599  0.15993577  1
  H+  H160  1  1.02324187  0.38592735  0.99945775  1
  H+  H161  1  0.45605180  0.33381845  -0.00490031  1
  H+  H162  1  0.35647668  0.57588294  0.63909240  1
  H+  H163  1  0.76774784  0.88686879  -0.00718857  1
  H+  H164  1  0.64676541  0.86286823  0.66015959  1
  H+  H165  1  0.03344856  0.39033486  0.33922306  1
  H+  H166  1  0.71464038  0.35555558  0.80595389  1
  H+  H167  1  0.37710127  0.14720892  0.16388739  1
  H+  H168  1  0.72141034  0.61348599  0.17966818  1
  H+  H169  1  0.92643206  0.33883516  0.26967205  1
  H+  H170  1  0.23534078  0.37435328  0.17782426  1
  H+  H171  1  0.14406885  0.77907914  0.82676228  1
  H+  H172  1  0.86170200  0.83348544  0.66630475  1
  H+  H173  1  0.36344476  0.70839423  0.16308661  1
  H+  H174  1  0.36431298  0.71955014  0.33025235  1
  H+  H175  1  0.58990441  0.16671193  0.42174510  1
  H+  H176  1  0.03895852  0.40446978  0.66849603  1
  H+  H177  1  0.52109559  0.62627084  0.17030128  1
  H+  H178  1  0.62154461  0.87864880  0.31677351  1
  H+  H179  1  0.24237697  0.12728029  0.52040894  1
  H+  H180  1  0.36964203  0.36640343  0.32309018  1
  H+  H181  1  0.30305115  0.15426941  0.66360408  1
  H+  H182  1  0.65512803  0.81281977  0.33010762  1
  H+  H183  1  0.66904673  0.07663316  0.93865033  1
  H+  H184  1  0.62899844  0.83583660  0.16598194  1
  H+  H185  1  0.92018694  0.08237005  0.88848323  1
  H+  H186  1  0.13711500  0.36951606  0.97663805  1
  H+  H187  1  0.38249429  0.89298843  0.15689086  1
  H+  H188  1  0.38526157  0.11703828  0.32785353  1
  H+  H189  1  0.90679750  0.19995281  0.13834030  1
  H+  H190  1  0.22901949  0.61591700  0.32249362  1
  H+  H191  1  0.51801835  0.11696989  0.33926608  1
  H+  H192  1  0.17890319  0.83115798  0.23861007  1
  H+  H193  1  0.36024569  0.74259695  0.81706134  1
  H+  H194  1  0.71856977  0.10622839  1.00103442  1
  H+  H195  1  0.48146731  0.11051342  0.66561967  1
  H+  H196  1  0.62051070  0.23602054  0.47979010  1
  H+  H197  1  0.22384482  0.36488942  0.97832116  1
  H+  H198  1  0.73835302  0.61831624  0.49766287  1
  H+  H199  1  0.12301836  0.99017066  0.82042221  1
  H+  H200  1  0.13623197  0.61225655  -0.01466557  1
  H+  H201  1  0.38158111  0.77391247  0.49936611  1
  H+  H202  1  0.55038250  0.92967340  0.37834131  1
  H+  H203  1  0.40310965  0.54292408  0.50886781  1
  H+  H204  1  0.86387671  0.21104259  0.66411166  1
  H+  H205  1  0.85081971  0.97824141  0.81962739  1
  H+  H206  1  0.69805480  0.35186097  0.15217849  1
  H+  H207  1  0.67174026  0.61519542  0.82301623  1
  H+  H208  1  0.85955387  0.89170206  0.00293400  1
  H+  H209  1  0.09607452  0.59953609  0.46421130  1
  H+  H210  1  0.77020508  0.39134190  0.33988003  1
  H+  H211  1  0.86402201  0.37719928  0.49903098  1
  H+  H212  1  0.31942591  0.40111280  0.06491595  1
  H+  H213  1  0.65449317  0.65364838  0.66515464  1
  H+  H214  1  0.09342640  0.10975097  0.33985266  1
  H+  H215  1  0.22044807  0.85361955  0.97549773  1
  H+  H216  1  0.35352161  0.47400701  0.85580264  1
  H+  H217  1  0.91266712  0.52697414  0.82772682  1
  H+  H218  1  0.07763020  0.91308804  0.73183851  1
  H+  H219  1  0.45003877  0.36844369  0.49440443  1
  H+  H220  1  0.03582711  0.88623939  0.32665040  1
  H+  H221  1  0.14568857  0.05417684  0.51977332  1
  H+  H222  1  0.12400266  0.40035697  0.66729614  1
  H+  H223  1  0.72622632  0.35739752  0.64370305  1
  H+  H224  1  0.14177748  0.61129591  0.83376082  1
  H+  H225  1  1.03836940  0.64191157  0.82727779  1
  H+  H226  1  0.07535852  0.82985584  0.51548352  1
  H+  H227  1  0.47617078  0.87817860  0.82525665  1
  H+  H228  1  0.63001897  0.77815956  0.96849707  1
  H+  H229  1  0.12994372  0.85984597  0.66039152  1
  H+  H230  1  0.12554168  1.02431931  0.16265708  1
  H+  H231  1  0.14956996  0.18278495  0.49312689  1
  H+  H232  1  0.93508027  0.40053998  0.16577976  1
  H+  H233  1  0.40351562  0.02187975  0.17909355  1
  H+  H234  1  0.15879301  0.32449477  0.89202378  1
  H+  H235  1  0.51638792  0.38620976  0.82138390  1
  H+  H236  1  0.60516499  0.35309035  0.36696497  1
  H+  H237  1  0.36392654  0.72402648  -0.01129024  1
  H+  H238  1  0.77377054  0.46285128  0.70145403  1
  H+  H239  1  0.36978086  0.47837739  0.15933413  1
  H+  H240  1  0.71970057  0.09611684  0.66204534  1
  H+  H241  1  0.62033548  0.21830576  0.66465353  1
  H+  H242  1  0.64487104  0.71813822  0.82126248  1
  H+  H243  1  0.34736209  0.20913127  0.00943137  1
  H+  H244  1  0.11423413  0.89689643  0.82117584  1
  H+  H245  1  0.51229468  0.13331944  0.48742262  1
  H+  H246  1  0.21603353  0.07783671  0.29179052  1
  H+  H247  1  0.88607554  0.00864128  0.66911560  1
  H+  H248  1  0.86846830  0.59458112  0.50296672  1
  H+  H249  1  0.94325436  0.60063367  0.17556324  1
  H+  H250  1  0.78135524  0.65989384  0.00588934  1
  H+  H251  1  0.13397024  0.32296930  0.60204071  1
  H+  H252  1  0.66251740  0.54968094  0.99140921  1
  H+  H253  1  0.65232081  0.64093494  0.33147197  1
  H+  H254  1  0.89109431  0.10685697  0.51316162  1
  H+  H255  1  0.24132690  0.11724950  0.83357377  1
  H+  H256  1  0.22238021  0.86506016  0.66533786  1
  H+  H257  1  0.73520371  0.39191830  0.97443156  1
  H+  H258  1  0.60607739  0.85782202  0.50462243  1
  H+  H259  1  0.14541210  0.37212045  0.17268372  1
  H+  H260  1  0.23097063  0.87187598  0.82941932  1
  H+  H261  1  0.83012068  0.41182601  0.06200442  1
  H+  H262  1  0.60877415  -0.02836882  0.69685011  1
  H+  H263  1  0.61273613  0.37047987  0.66419156  1
  H+  H264  1  0.37069849  0.32869547  0.83938794  1
  H+  H265  1  0.15000564  0.54264533  0.65633168  1
  H+  H266  1  0.78257949  0.13808243  0.49954166  1
  H+  H267  1  0.83783261  0.16357013  0.43788964  1
  H+  H268  1  0.03833422  0.89216920  0.14076207  1
  H+  H269  1  0.11143548  0.47547822  1.00100177  1
  H+  H270  1  0.21709441  0.11235162  -0.00638011  1
  H+  H271  1  0.40183850  0.61031717  0.17817355  1
  H+  H272  1  0.60625318  0.87729747  -0.00242020  1
  H+  H273  1  0.15209485  0.73639639  0.15711133  1
  H+  H274  1  0.83627595  0.18709985  0.06308661  1
  H+  H275  1  0.77904996  0.88167551  0.67073827  1
  H+  H276  1  0.89309261  0.34980817  0.65170958  1
  H+  H277  1  0.85378959  1.00934964  0.35391430  1
  H+  H278  1  0.85687375  0.11906129  0.67075877  1
  H+  H279  1  0.36226507  0.98684541  0.83335133  1
  H+  H280  1  0.09840434  0.11938326  1.00145050  1
  H+  H281  1  0.89890681  0.62434779  0.32676513  1
  H+  H282  1  0.14343806  0.78429841  0.32738240  1
  H+  H283  1  0.98544332  0.62613865  0.99816777  1
  H+  H284  1  0.54631128  0.64693835  0.48978946  1
  H+  H285  1  0.27679210  0.64852489  0.81982927  1
  H+  H286  1  0.11084120  0.73278452  0.67731468  1
  H+  H287  1  0.09536419  0.15170162  0.69907088  1
  H+  H288  1  0.08762478  0.66844991  0.38942233  1
  H+  H289  1  0.05630624  0.92049231  0.41250492  1
  H+  H290  1  0.13027451  1.00062612  0.32593899  1
  H+  H291  1  0.59910029  0.16956324  0.72927574  1
  H+  H292  1  0.16449650  0.57843960  0.92732523  1
  H+  H293  1  0.63122080  0.30599493  0.20551504  1
  H+  H294  1  0.82641193  0.90781614  0.73531593  1
  H+  H295  1  0.28017716  0.16218543  0.35374893  1
  H+  H296  1  0.59930911  0.67833301  0.05757849  1
  H+  H297  1  0.14158167  0.52172691  0.52614065  1
  H+  H298  1  0.54441273  0.09955587  0.07491559  1
  H+  H299  1  0.69083880  0.32020434  0.28922431  1
  H+  H300  1  0.59413187  0.21599170  0.14671884  1
  H+  H301  1  0.66696940  0.32080414  0.58476731  1
  H+  H302  1  0.64237395  0.62672268  0.98599835  1
  H+  H303  1  0.33050979  0.92428904  0.73441840  1
  H+  H304  1  0.27650814  0.63344630  -0.01154878  1
  H+  H305  1  0.28518601  0.61473165  0.16524818  1
  H+  H306  1  0.69551890  0.13421288  0.24286681  1
  H+  H307  1  0.90228456  0.80123275  0.85893521  1
  H+  H308  1  0.65310452  0.85048745  0.91668714  1
  H+  H309  1  0.75189251  0.90512864  0.81468085  1
  H+  H310  1  0.41414183  0.33463380  0.56190623  1
  H+  H311  1  0.40352786  0.31485777  0.93326821  1
  H+  H312  1  0.10559602  0.93004180  0.08798514  1
  H+  H313  1  -0.01882391  0.62452808  0.66049546  1
  H+  H314  1  0.85661610  0.46456798  0.50040151  1
  H+  H315  1  0.33856151  0.16970717  0.10642263  1
  H+  H316  1  0.16115043  0.09830314  0.62051720  1
  H+  H317  1  0.62138224  0.31085805  0.89800514  1
  H+  H318  1  0.59369078  0.89369234  0.44166247  1
  H+  H319  1  0.51582492  0.39525626  0.15820215  1
  H+  H320  1  0.08254079  0.15781701  0.39603918  1
  H+  H321  1  0.38787195  0.06410862  0.93228130  1
  H+  H322  1  0.42449421  0.08269586  0.24337637  1
  H+  H323  1  0.42677313  0.84732894  0.89065280  1
  H+  H324  1  0.37517374  0.02069346  0.32757008  1
  H+  H325  1  0.35576362  0.67074669  0.72376068  1
  H+  H326  1  0.82296670  0.91223479  0.09292808  1
  H+  H327  1  0.35492294  0.16737445  0.77111664  1
  H+  H328  1  0.13356079  0.07287453  0.22558241  1
  H+  H329  1  0.47472199  0.86390263  0.99014869  1
  H+  H330  1  0.39995281  0.65271580  0.92454107  1
  H+  H331  1  0.08490425  0.41248752  0.09447849  1
  H+  H332  1  0.40629729  0.82482314  0.22773720  1
  H+  H333  1  0.17036001  0.34938104  0.25854000  1
  H+  H334  1  0.66947182  0.08217888  0.56891127  1
  H+  H335  1  0.71031677  0.59821802  0.59411729  1
  H+  H336  1  0.17102736  0.58285281  0.26266576  1
  H+  H337  1  0.12484227  0.38382031  0.81595654  1
  H+  H338  1  0.33902792  0.92122740  0.39116089  1
  H+  H339  1  0.56578447  0.87905673  0.08930849  1
  H+  H340  1  0.86068383  0.71793627  0.48739644  1
  H+  H341  1  0.89776445  0.11417042  0.82875569  1
  H+  H342  1  0.88781281  0.80574284  0.60374458  1
  H+  H343  1  0.10079317  0.42514538  0.75889784  1
  H+  H344  1  0.82259255  0.39973237  0.80962579  1
  H+  H345  1  0.34410858  0.17107210  0.43988625  1
  H+  H346  1  0.18003389  0.61932272  0.60702845  1
  H+  H347  1  0.88933338  0.26113950  0.50579030  1
  H+  H348  1  0.67803353  0.57906054  0.88754134  1
  H+  H349  1  0.90507353  0.57455305  0.56366117  1
  H+  H350  1  0.10452837  0.68199676  0.05424136  1
  H+  H351  1  0.56952228  0.42002165  0.06549736  1
  H+  H352  1  0.08949832  0.66916071  0.76447741  1
  H+  H353  1  0.71900637  0.10335286  0.33318278  1
  H+  H354  1  0.93655715  0.84920535  0.21271724  1
  H+  H355  1  0.91051755  0.62584298  0.95840273  1
  H+  H356  1  0.85229977  0.72179469  0.17030547  1
  H+  H357  1  0.66313271  0.83108692  0.23234620  1
  H+  H358  1  0.92713597  0.32362281  0.59407144  1
  H+  H359  1  0.63090658  0.49706452  0.50317249  1
  H+  H360  1  0.47463171  0.86782104  0.31350784  1
  H+  H361  1  0.93324851  0.56241307  0.89505515  1
  H+  H362  1  0.42396950  0.57568688  0.24019893  1
  H+  H363  1  0.66021688  0.59261897  0.27181489  1
  H+  H364  1  0.42615847  0.85256222  0.59689789  1
  H+  H365  1  0.38910952  0.51625908  1.01611041  1
  H+  H366  1  0.29715182  0.89768855  0.05503567  1
  H+  H367  1  0.40914924  0.96239333  0.10340698  1
  H+  H368  1  0.55937530  0.44905962  0.41424817  1
  H+  H369  1  0.38484385  0.89277900  0.48821566  1
  H+  H370  1  0.86786422  0.86733742  0.31644222  1
  H+  H371  1  0.07670989  0.21221560  0.79487428  1
  H+  H372  1  0.47748938  0.85425250  0.49994074  1
  H+  H373  1  0.42650647  0.46633071  0.71762354  1
  H+  H374  1  0.33432702  0.66955586  0.42496992  1
  H+  H375  1  0.85600183  0.64646335  0.03108913  1
  H+  H376  1  0.83839891  0.16488167  0.75935395  1
  H+  H377  1  0.16588068  0.77605911  0.58563465  1
  H+  H378  1  0.92395931  0.33701939  0.92342858  1
  H+  H379  1  0.67076840  0.83443834  0.59405080  1
  H+  H380  1  0.86207054  0.43770963  0.74706377  1
  H+  H381  1  0.90924937  0.57782870  0.24454141  1
  H+  H382  1  0.88668028  0.43898099  0.41181979  1
  H+  H383  1  0.61037564  0.96704298  0.00837171  1
  O2-  O384  1  0.06424600  0.15133659  0.13033796  1
  O2-  O385  1  0.14256824  0.21461366  0.45954973  1
  O2-  O386  1  0.07754018  0.22678975  0.83882560  1
  O2-  O387  1  0.09024185  0.41573845  0.13987272  1
  O2-  O388  1  0.09041443  0.36941563  0.48251836  1
  O2-  O389  1  0.09977952  0.42070110  0.80441668  1
  O2-  O390  1  0.12831752  0.68074283  0.13215411  1
  O2-  O391  1  0.07678309  0.64151759  0.45816083  1
  O2-  O392  1  0.09740395  0.67103880  0.80997075  1
  O2-  O393  1  0.09983937  0.93039304  0.13312255  1
  O2-  O394  1  0.03023242  0.92755545  0.45303989  1
  O2-  O395  1  0.08454700  0.92788284  0.80764697  1
  O2-  O396  1  0.35415336  0.18341239  0.15025632  1
  O2-  O397  1  0.34716615  0.16619898  0.48502444  1
  O2-  O398  1  0.34930498  0.16596336  0.81564664  1
  O2-  O399  1  0.33382993  0.41807277  0.14477980  1
  O2-  O400  1  0.31657901  0.41756790  0.47226664  1
  O2-  O401  1  0.29361490  0.31275708  0.79660866  1
  O2-  O402  1  0.34658329  0.64854676  0.15311738  1
  O2-  O403  1  0.33215918  0.67175988  0.47061953  1
  O2-  O404  1  0.33549143  0.68242487  0.80252136  1
  O2-  O405  1  0.37218160  0.94028220  0.13942892  1
  O2-  O406  1  0.36116152  0.93222845  0.47271796  1
  O2-  O407  1  0.33368497  0.92825877  0.81143265  1
  O2-  O408  1  0.57426101  0.15262383  0.15167144  1
  O2-  O409  1  0.58917431  0.17262486  0.46801445  1
  O2-  O410  1  0.60118692  0.16502282  0.80675086  1
  O2-  O411  1  0.57523138  0.42507987  0.13883842  1
  O2-  O412  1  0.59448148  0.43173749  0.49465897  1
  O2-  O413  1  0.57373244  0.40734776  0.80187145  1
  O2-  O414  1  0.58530587  0.65732832  0.15232245  1
  O2-  O415  1  0.61007802  0.67907470  0.48259385  1
  O2-  O416  1  0.67272627  0.69584511  0.79544497  1
  O2-  O417  1  0.56023873  0.86720821  0.13509332  1
  O2-  O418  1  0.57280368  0.88435155  0.48325920  1
  O2-  O419  1  0.57407154  0.93744378  0.78055129  1
  O2-  O420  1  0.85876335  0.21079963  0.13911944  1
  O2-  O421  1  0.84308923  0.16574681  0.48351559  1
  O2-  O422  1  0.84524919  0.16843206  0.80453560  1
  O2-  O423  1  0.80909147  0.40580408  0.15020009  1
  O2-  O424  1  0.83208094  0.40429588  0.48219749  1
  O2-  O425  1  0.87879477  0.43333282  0.79018520  1
  O2-  O426  1  0.81269459  0.65891860  0.17355442  1
  O2-  O427  1  0.83195802  0.65838181  0.47016754  1
  O2-  O428  1  0.85911254  0.69415448  0.83436956  1
  O2-  O429  1  0.82979016  0.91155167  0.13824257  1
  O2-  O430  1  0.85030380  0.91099480  0.44817594  1
  O2-  O431  1  0.81032324  0.92014202  0.80259667  1
  O2-  O432  1  0.13826900  0.08080059  0.18115690  1
  O2-  O433  1  0.18513431  0.10917154  0.53878003  1
  O2-  O434  1  0.17876909  0.08703672  0.84307822  1
  O2-  O435  1  0.17585380  0.34680707  0.19471573  1
  O2-  O436  1  0.14380424  0.36081399  0.51720419  1
  O2-  O437  1  0.15254081  0.31344324  0.84364395  1
  O2-  O438  1  0.17936426  0.57336552  0.18548665  1
  O2-  O439  1  0.15522299  0.54297655  0.48457215  1
  O2-  O440  1  0.17281581  0.58281655  0.85075815  1
  O2-  O441  1  0.18444941  0.81987757  0.19449670  1
  O2-  O442  1  0.17271510  0.73824114  0.55534993  1
  O2-  O443  1  0.16861306  0.83907403  0.84199448  1
  O2-  O444  1  0.43280292  0.08308536  0.19699646  1
  O2-  O445  1  0.44402777  0.09560305  0.50665408  1
  O2-  O446  1  0.39877259  0.07200322  0.86903549  1
  O2-  O447  1  0.42192345  0.34347417  0.18812524  1
  O2-  O448  1  0.39865336  0.32774908  0.51663680  1
  O2-  O449  1  0.41902558  0.32460223  0.86056145  1
  O2-  O450  1  0.43490954  0.58130398  0.19363469  1
  O2-  O451  1  0.44141842  0.60094818  0.49359684  1
  O2-  O452  1  0.43658362  0.66051937  0.88908609  1
  O2-  O453  1  0.40226929  0.82275369  0.18132840  1
  O2-  O454  1  0.41588197  0.83514022  0.51302576  1
  O2-  O455  1  0.41919968  0.84786372  0.84576088  1
  O2-  O456  1  0.70639182  0.16968721  0.20534484  1
  O2-  O457  1  0.68393431  0.09750147  0.52548834  1
  O2-  O458  1  0.69260332  0.09850471  0.86722672  1
  O2-  O459  1  0.63500942  0.31885153  0.16012298  1
  O2-  O460  1  0.66962609  0.33021134  0.50692104  1
  O2-  O461  1  0.57963545  0.27703535  0.86540097  1
  O2-  O462  1  0.65480959  0.57983333  0.18809189  1
  O2-  O463  1  0.68183401  0.59269191  0.52041526  1
  O2-  O464  1  0.68223890  0.57040443  0.84365529  1
  O2-  O465  1  0.66581194  0.81709492  0.18734069  1
  O2-  O466  1  0.66035234  0.82328343  0.52936193  1
  O2-  O467  1  0.64032967  0.86497019  0.84200220  1
  O2-  O468  1  0.90858935  0.07879162  0.17734114  1
  O2-  O469  1  0.91735828  0.07469890  0.53132539  1
  O2-  O470  1  0.92195933  0.07861619  0.84385039  1
  O2-  O471  1  0.93072110  0.35171429  0.18780381  1
  O2-  O472  1  0.92117581  0.32315280  0.52150804  1
  O2-  O473  1  0.93842249  0.33595535  0.84473072  1
  O2-  O474  1  0.89114317  0.56637149  0.19877311  1
  O2-  O475  1  0.88691956  0.55612325  0.52139069  1
  O2-  O476  1  0.93471488  0.58028056  0.85288286  1
  O2-  O477  1  0.92039928  0.83325718  0.17046390  1
  O2-  O478  1  0.89597339  0.81380326  0.52055863  1
  O2-  O479  1  0.93363219  0.85984138  0.87645479  1
  O2-  O480  1  0.16171970  0.06686435  0.30895346  1
  O2-  O481  1  0.13514370  0.08504360  0.66176221  1
  O2-  O482  1  0.16037024  0.08422949  0.97250895  1
  O2-  O483  1  0.16694633  0.34775358  0.30716655  1
  O2-  O484  1  0.14614863  0.33090144  0.64566686  1
  O2-  O485  1  0.16959053  0.34592153  0.95533664  1
  O2-  O486  1  0.16804896  0.58831719  0.30768302  1
  O2-  O487  1  0.17693232  0.60633993  0.65028683  1
  O2-  O488  1  0.16340593  0.57814354  0.97304198  1
  O2-  O489  1  0.17418028  0.84548809  0.31338370  1
  O2-  O490  1  0.16260472  0.82939784  0.64900424  1
  O2-  O491  1  0.15974968  0.82403396  0.96029865  1
  O2-  O492  1  0.41093826  0.08286624  0.31278649  1
  O2-  O493  1  0.42128041  0.08734067  0.65179829  1
  O2-  O494  1  0.38301873  0.05895355  0.98172971  1
  O2-  O495  1  0.40854379  0.34239611  0.31283782  1
  O2-  O496  1  0.43276012  0.33527180  0.63163153  1
  O2-  O497  1  0.39721603  0.30966968  0.97940215  1
  O2-  O498  1  0.39672618  0.56652438  0.30939648  1
  O2-  O499  1  0.34419042  0.52513933  0.61405340  1
  O2-  O500  1  0.42574010  0.57782783  1.02613337  1
  O2-  O501  1  0.41009746  0.82741514  0.29995987  1
  O2-  O502  1  0.42601864  0.87133302  0.63901689  1
  O2-  O503  1  0.41660205  0.83627505  0.97101020  1
  O2-  O504  1  0.66314036  0.08047223  0.31127338  1
  O2-  O505  1  0.65765356  0.06205224  0.65086439  1
  O2-  O506  1  0.65983827  0.06852771  0.98426110  1
  O2-  O507  1  0.63332200  0.28234589  0.27358382  1
  O2-  O508  1  0.66673957  0.31811151  0.63025899  1
  O2-  O509  1  0.68938752  0.39172005  0.94971643  1
  O2-  O510  1  0.67095345  0.60005303  0.31611659  1
  O2-  O511  1  0.70910432  0.59315928  0.63989539  1
  O2-  O512  1  0.68019412  0.60375305  0.97048568  1
  O2-  O513  1  0.65961860  0.85649778  0.30120027  1
  O2-  O514  1  0.67945375  0.83868531  0.64201307  1
  O2-  O515  1  0.65994488  0.84057865  0.96075835  1
  O2-  O516  1  0.88752297  0.06181392  0.33047831  1
  O2-  O517  1  0.91214389  0.07033680  0.65547595  1
  O2-  O518  1  0.90886792  0.08539698  0.97433730  1
  O2-  O519  1  0.92690969  0.32991550  0.31427800  1
  O2-  O520  1  0.92826402  0.32490046  0.64046882  1
  O2-  O521  1  0.91979784  0.33524393  0.96880235  1
  O2-  O522  1  0.92959257  0.59519153  0.31060817  1
  O2-  O523  1  0.92217948  0.59147663  0.64166847  1
  O2-  O524  1  0.92170068  0.59244263  0.98813955  1
  O2-  O525  1  0.90167987  0.84445256  0.33456194  1
  O2-  O526  1  0.87641331  0.79137454  0.64726934  1
  O2-  O527  1  0.92911354  0.85395914  0.99215132  1
  O2-  O528  1  0.06560676  0.14532491  0.02061641  1
  O2-  O529  1  0.05295619  0.12363682  0.35939719  1
  O2-  O530  1  0.06398885  0.18134044  0.71119868  1
  O2-  O531  1  0.08288103  0.41474455  0.01600968  1
  O2-  O532  1  0.09490400  0.42457066  0.35192357  1
  O2-  O533  1  0.09951332  0.43803862  0.68177652  1
  O2-  O534  1  0.08748029  0.67203879  0.01066373  1
  O2-  O535  1  0.09130798  0.67843874  0.34351158  1
  O2-  O536  1  0.07832385  0.67041562  0.69056012  1
  O2-  O537  1  0.09830436  0.92205059  0.01035673  1
  O2-  O538  1  0.08983217  0.91657507  0.34888154  1
  O2-  O539  1  0.07618887  0.90302128  0.68677040  1
  O2-  O540  1  0.31687636  0.15163664  0.02948635  1
  O2-  O541  1  0.34182779  0.18580591  0.36075312  1
  O2-  O542  1  0.35866996  0.17995892  0.68340340  1
  O2-  O543  1  0.31930424  0.40054586  0.01954093  1
  O2-  O544  1  0.31744208  0.41526633  0.34598045  1
  O2-  O545  1  0.37455109  0.41872799  0.70059099  1
  O2-  O546  1  0.33955459  0.66128154  -0.00623906  1
  O2-  O547  1  0.33194366  0.66107287  0.34824894  1
  O2-  O548  1  0.35725069  0.66567068  0.67891175  1
  O2-  O549  1  0.31337153  0.90190310  0.01228597  1
  O2-  O550  1  0.33292548  0.92326613  0.34655611  1
  O2-  O551  1  0.32525080  0.92302516  0.68893511  1
  O2-  O552  1  0.51886595  0.06091133  0.03994685  1
  O2-  O553  1  0.57951101  0.14998025  0.35070400  1
  O2-  O554  1  0.59072754  0.16076402  0.68437325  1
  O2-  O555  1  0.56895968  0.41649707  0.01926873  1
  O2-  O556  1  0.53843541  0.46356790  0.37755404  1
  O2-  O557  1  0.58482331  0.40350656  0.67655789  1
  O2-  O558  1  0.58874155  0.67101161  0.01362924  1
  O2-  O559  1  0.61964844  0.70239353  0.36690988  1
  O2-  O560  1  0.62274152  0.67887941  0.68427693  1
  O2-  O561  1  0.57633716  0.90433203  0.01953876  1
  O2-  O562  1  0.56318992  0.92432204  0.33610030  1
  O2-  O563  1  0.57655149  0.91380799  0.71722072  1
  O2-  O564  1  0.82842149  0.17302135  0.01851186  1
  O2-  O565  1  0.82608910  0.16091159  0.36118849  1
  O2-  O566  1  0.82780843  0.15299766  0.68149799  1
  O2-  O567  1  0.83739789  0.41847006  0.01749214  1
  O2-  O568  1  0.92251276  0.45535943  0.37453334  1
  O2-  O569  1  0.81326358  0.44518948  0.68543069  1
  O2-  O570  1  0.83574211  0.68766437  0.02944601  1
  O2-  O571  1  0.83750103  0.67013202  0.34781143  1
  O2-  O572  1  0.79794408  0.63436558  0.66046627  1
  O2-  O573  1  0.82324362  0.91756939  0.01487647  1
  O2-  O574  1  0.79441136  0.90725024  0.41046189  1
  O2-  O575  1  0.83712895  0.90504130  0.68963701  1
