# generated using pymatgen
data_H2O
_symmetry_space_group_name_H-M   'P 1'
_cell_length_a   17.99555634
_cell_length_b   17.99361384
_cell_length_c   22.00409967
_cell_angle_alpha   90.00163750
_cell_angle_beta   89.98720039
_cell_angle_gamma   120.01095793
_symmetry_Int_Tables_number   1
_chemical_formula_structural   H2O
_chemical_formula_sum   'H384 O192'
_cell_volume   6169.78358602
_cell_formula_units_Z   192
loop_
 _symmetry_equiv_pos_site_id
 _symmetry_equiv_pos_as_xyz
  1  'x, y, z'
loop_
 _atom_type_symbol
 _atom_type_oxidation_number
  H+  1.0
  O2-  -2.0
loop_
 _atom_site_type_symbol
 _atom_site_label
 _atom_site_symmetry_multiplicity
 _atom_site_fract_x
 _atom_site_fract_y
 _atom_site_fract_z
 _atom_site_occupancy
  H+  H0  1  0.12801685  0.22424588  0.34782503  1
  H+  H1  1  0.11647162  0.38173286  0.47950441  1
  H+  H2  1  0.22873083  0.86947534  0.84300589  1
  H+  H3  1  0.37209500  0.10423808  0.50784251  1
  H+  H4  1  0.64271785  0.59118865  0.66172997  1
  H+  H5  1  0.89453871  0.61315826  0.66480528  1
  H+  H6  1  0.86543264  0.64804249  0.00309919  1
  H+  H7  1  0.87716408  0.38074605  -0.01677828  1
  H+  H8  1  0.63492283  0.37022194  0.15928048  1
  H+  H9  1  0.77706320  0.30011049  0.10959840  1
  H+  H10  1  0.29992531  0.69117228  0.66237001  1
  H+  H11  1  0.12598098  0.33383666  1.01574271  1
  H+  H12  1  0.99935310  0.62053956  0.83833836  1
  H+  H13  1  0.91406653  0.62625249  0.83313971  1
  H+  H14  1  0.40515784  0.36185066  0.51329495  1
  H+  H15  1  0.74935735  0.90357983  0.82734685  1
  H+  H16  1  0.02155851  0.12370017  0.83078011  1
  H+  H17  1  0.38174748  0.83836270  -0.06370739  1
  H+  H18  1  0.02605420  0.35959212  0.32420476  1
  H+  H19  1  0.61027966  0.13897529  0.00572480  1
  H+  H20  1  0.10572491  0.51601292  0.45582414  1
  H+  H21  1  0.45275529  0.84489282  0.67098328  1
  H+  H22  1  0.09583015  -0.02079476  0.15421282  1
  H+  H23  1  0.11630158  0.44604620  0.30608948  1
  H+  H24  1  0.51762734  0.88371072  0.49468149  1
  H+  H25  1  0.59987925  0.97587281  0.49764266  1
  H+  H26  1  0.36496004  0.62773753  0.35989704  1
  H+  H27  1  0.12718345  0.20918431  0.52208627  1
  H+  H28  1  0.74222016  0.90679874  0.17292042  1
  H+  H29  1  0.34665587  0.69586299  0.76601217  1
  H+  H30  1  0.48210734  0.11911973  1.00235331  1
  H+  H31  1  0.07471073  0.88321318  0.15784920  1
  H+  H32  1  0.87407627  0.10847964  0.66053822  1
  H+  H33  1  0.83446585  0.42057029  0.74186966  1
  H+  H34  1  1.02671214  0.63621815  0.49671007  1
  H+  H35  1  0.38637710  0.27381681  0.17078420  1
  H+  H36  1  0.97349258  0.11762151  0.16189463  1
  H+  H37  1  0.54014967  0.65484517  0.29711097  1
  H+  H38  1  0.58950743  0.08797786  0.35481906  1
  H+  H39  1  0.34734777  0.87389541  0.67762033  1
  H+  H40  1  0.11079488  0.51576312  0.15774341  1
  H+  H41  1  0.78178140  0.89159603  0.49901171  1
  H+  H42  1  0.48457479  0.63311806  0.83113835  1
  H+  H43  1  0.48519534  0.35349822  0.83708615  1
  H+  H44  1  0.77173280  0.38168490  0.49833255  1
  H+  H45  1  0.50653977  0.12833166  0.50120268  1
  H+  H46  1  0.89427831  0.86561202  0.33191704  1
  H+  H47  1  0.12302747  0.73991597  0.15341437  1
  H+  H48  1  0.87488236  0.48178934  0.82995482  1
  H+  H49  1  0.14045297  0.10928000  0.84082131  1
  H+  H50  1  0.59619584  0.89651975  0.67618910  1
  H+  H51  1  0.64220079  0.35790977  0.66133363  1
  H+  H52  1  0.14872898  0.35169701  0.32830931  1
  H+  H53  1  0.27445696  0.13419820  0.15986773  1
  H+  H54  1  0.40043963  0.54148988  0.83450759  1
  H+  H55  1  0.91722653  0.12761946  0.50788738  1
  H+  H56  1  0.63896856  0.52288440  0.17112141  1
  H+  H57  1  0.66287601  0.60182496  0.50119865  1
  H+  H58  1  0.57944360  0.76104689  0.14212807  1
  H+  H59  1  0.19206171  0.35691070  0.70704042  1
  H+  H60  1  0.72967157  0.11232102  0.84843174  1
  H+  H61  1  0.36668899  0.22959874  1.00417479  1
  H+  H62  1  0.38790954  0.11778622  0.32629680  1
  H+  H63  1  0.35593279  -0.02067726  0.33814721  1
  H+  H64  1  0.35929618  0.48703424  0.36871269  1
  H+  H65  1  1.01405227  0.13861758  0.68204973  1
  H+  H66  1  0.39053533  0.89173978  0.16490528  1
  H+  H67  1  0.82174094  0.64708673  0.86655436  1
  H+  H68  1  0.08559298  0.17670573  0.01754246  1
  H+  H69  1  0.66097386  0.24124085  0.35771727  1
  H+  H70  1  0.11579756  -0.01543832  0.33356414  1
  H+  H71  1  0.87941677  0.57794023  0.25886529  1
  H+  H72  1  0.29922906  0.88411050  0.17177602  1
  H+  H73  1  0.90218136  0.01249937  1.01518741  1
  H+  H74  1  0.81617214  0.89041836  0.72202549  1
  H+  H75  1  0.88137250  0.36615913  0.67806862  1
  H+  H76  1  0.25878271  0.87990626  0.49457780  1
  H+  H77  1  0.98543419  0.39904780  0.46017673  1
  H+  H78  1  0.02548225  0.39987516  0.67940787  1
  H+  H79  1  0.73210671  0.36090716  0.66214598  1
  H+  H80  1  0.14891734  0.62571886  0.65580744  1
  H+  H81  1  0.14777597  0.52482994  0.83962227  1
  H+  H82  1  0.15268712  0.42311986  0.49257746  1
  H+  H83  1  0.61912043  0.93652563  0.07846047  1
  H+  H84  1  0.69598227  0.11276893  0.52822210  1
  H+  H85  1  0.35248105  0.77666837  -0.00593731  1
  H+  H86  1  0.10971609  0.55244570  0.34827131  1
  H+  H87  1  0.70473936  0.86104556  0.27377211  1
  H+  H88  1  0.40033939  0.61247288  0.14615249  1
  H+  H89  1  0.23714685  0.61659619  0.83865585  1
  H+  H90  1  0.63687875  0.62480631  0.32699085  1
  H+  H91  1  0.84595338  0.63586813  0.33701009  1
  H+  H92  1  0.17232335  0.59132477  0.55850249  1
  H+  H93  1  1.02387228  0.88366502  0.68318920  1
  H+  H94  1  0.47834741  0.60419063  0.11883386  1
  H+  H95  1  0.63806284  0.11746045  0.17337425  1
  H+  H96  1  0.91808041  0.13008568  0.97086148  1
  H+  H97  1  0.72594660  0.62599356  0.33383530  1
  H+  H98  1  0.20283968  0.62706347  0.32957812  1
  H+  H99  1  0.80819594  0.65675044  0.50835716  1
  H+  H100  1  0.88071929  0.62885609  0.16741874  1
  H+  H101  1  0.09438000  0.65908975  0.33642241  1
  H+  H102  1  0.08298764  0.91376755  0.06126378  1
  H+  H103  1  0.76377689  0.39185702  -0.00926770  1
  H+  H104  1  0.61433125  0.23404792  0.16054443  1
  H+  H105  1  0.13041640  0.76042504  0.98839753  1
  H+  H106  1  0.38916466  0.87522785  0.32441528  1
  H+  H107  1  0.89787552  0.01505661  0.33135019  1
  H+  H108  1  0.07970900  0.42270434  0.07370058  1
  H+  H109  1  0.45725489  0.57456881  0.67414136  1
  H+  H110  1  0.65677522  0.40736458  0.31108047  1
  H+  H111  1  0.23292204  0.11266483  0.32771081  1
  H+  H112  1  0.61538609  0.23203076  0.68773153  1
  H+  H113  1  0.04468256  -0.06246716  0.53902110  1
  H+  H114  1  0.17063870  0.03203863  0.51000483  1
  H+  H115  1  0.13986121  0.01968409  0.84114137  1
  H+  H116  1  0.62309584  0.89579782  0.00742588  1
  H+  H117  1  0.86942892  0.23207907  0.16482386  1
  H+  H118  1  0.53471692  0.37986705  0.49220322  1
  H+  H119  1  0.34783175  0.93691219  0.07920632  1
  H+  H120  1  0.28052886  0.13632915  0.00400934  1
  H+  H121  1  0.34652221  0.87706439  0.49532214  1
  H+  H122  1  0.36784035  0.01154560  0.50569742  1
  H+  H123  1  0.28290144  0.39160564  0.35352810  1
  H+  H124  1  0.32430833  0.91609704  0.39603771  1
  H+  H125  1  0.10985395  0.10829701  0.51434149  1
  H+  H126  1  0.34103420  0.99101821  0.82086220  1
  H+  H127  1  0.76271880  0.13196638  0.67816504  1
  H+  H128  1  0.85977120  0.87843844  0.66409708  1
  H+  H129  1  0.19265836  0.89441330  0.17350638  1
  H+  H130  1  0.78080754  0.88477820  0.34802788  1
  H+  H131  1  0.36619677  0.38711058  0.14783124  1
  H+  H132  1  0.85369333  0.22135577  0.67866927  1
  H+  H133  1  0.37059177  0.47953576  0.13891083  1
  H+  H134  1  0.36679639  -0.00182717  0.65920208  1
  H+  H135  1  0.58700972  0.66966741  0.65217201  1
  H+  H136  1  0.86682453  0.47760590  0.68018261  1
  H+  H137  1  0.14161717  0.11575224  0.17796837  1
  H+  H138  1  0.78005752  0.63115515  0.67567832  1
  H+  H139  1  0.87002394  0.22018028  0.82559997  1
  H+  H140  1  0.02610842  0.63601719  0.00121125  1
  H+  H141  1  0.82030610  0.15864989  0.48127098  1
  H+  H142  1  0.86256468  0.14049975  0.15022308  1
  H+  H143  1  0.15926783  0.54427443  0.65692058  1
  H+  H144  1  0.92437753  0.32221156  0.26859736  1
  H+  H145  1  0.61061372  0.73734131  0.49400722  1
  H+  H146  1  0.16031709  0.63929059  0.17209700  1
  H+  H147  1  0.02476790  0.38900846  0.82859649  1
  H+  H148  1  0.72892207  0.10230452  0.32418577  1
  H+  H149  1  0.70983160  0.61446821  0.82712636  1
  H+  H150  1  0.76590847  0.63820821  0.15508170  1
  H+  H151  1  0.52095227  0.89473896  0.83324817  1
  H+  H152  1  0.62163115  0.37718173  0.48946851  1
  H+  H153  1  0.10971188  0.39354401  0.67568861  1
  H+  H154  1  0.13039919  0.63982184  0.82878805  1
  H+  H155  1  0.64020122  0.79343278  1.02079854  1
  H+  H156  1  0.79360381  0.40071485  0.34019041  1
  H+  H157  1  0.64963199  0.27435110  0.34788008  1
  H+  H158  1  0.87602972  0.35448538  0.17426151  1
  H+  H159  1  0.88432286  0.35935985  0.83255402  1
  H+  H160  1  0.86612620  0.52486081  0.32280347  1
  H+  H161  1  0.88629345  0.53142789  0.98950417  1
  H+  H162  1  0.38980013  0.11481867  0.17231931  1
  H+  H163  1  0.39422300  0.26666121  0.83668095  1
  H+  H164  1  0.41941956  0.32788499  -0.07159854  1
  H+  H165  1  1.02782441  0.63363488  0.67669145  1
  H+  H166  1  0.40652197  0.78391851  0.16930837  1
  H+  H167  1  0.72910559  0.12203044  0.17506663  1
  H+  H168  1  0.10981466  0.87765602  0.68113015  1
  H+  H169  1  0.61158963  0.74088135  0.32736804  1
  H+  H170  1  0.13264014  0.76688219  0.66475608  1
  H+  H171  1  0.89682827  0.88333974  0.84830165  1
  H+  H172  1  0.28387213  0.16006025  0.49050618  1
  H+  H173  1  0.39309145  0.37339837  0.32834107  1
  H+  H174  1  0.89005568  0.52246993  0.51202833  1
  H+  H175  1  0.88884109  0.77191229  0.66140506  1
  H+  H176  1  0.11508347  0.63329674  -0.00155682  1
  H+  H177  1  0.61058837  0.48756511  0.34201472  1
  H+  H178  1  0.12486082  0.97014241  0.00073755  1
  H+  H179  1  0.61568856  0.38980733  -0.00456924  1
  H+  H180  1  1.01732207  0.88776876  0.33217214  1
  H+  H181  1  0.86388867  0.38815868  0.49091621  1
  H+  H182  1  0.61317036  0.97388544  0.33690637  1
  H+  H183  1  0.90117789  0.25012008  0.32002194  1
  H+  H184  1  0.74944662  0.35770042  0.14619485  1
  H+  H185  1  0.10661976  0.21574894  0.83600523  1
  H+  H186  1  0.14350173  1.01136348  0.66638055  1
  H+  H187  1  0.14412984  0.09602495  0.99721229  1
  H+  H188  1  0.64104363  0.98788359  0.15972039  1
  H+  H189  1  0.82740335  0.67362667  0.05987274  1
  H+  H190  1  0.12981881  0.85621789  0.99342509  1
  H+  H191  1  0.12306110  0.76943893  0.50968391  1
  H+  H192  1  0.40444088  0.82215629  0.56859785  1
  H+  H193  1  0.62087855  0.46357124  0.67510486  1
  H+  H194  1  0.39061520  0.12073222  1.00250791  1
  H+  H195  1  0.12805664  0.78504421  0.32916636  1
  H+  H196  1  0.45584237  0.63553236  0.37049938  1
  H+  H197  1  0.36695369  0.23578549  0.33553279  1
  H+  H198  1  1.02439088  0.88599677  0.83527121  1
  H+  H199  1  0.25994005  0.87796755  0.67384959  1
  H+  H200  1  0.13475564  0.85973201  0.84364059  1
  H+  H201  1  0.64742699  0.87389346  0.32623966  1
  H+  H202  1  0.67219393  0.29575793  0.83150919  1
  H+  H203  1  0.90596904  0.04596170  0.11999296  1
  H+  H204  1  0.11532325  0.89002975  0.33240679  1
  H+  H205  1  0.62042468  0.02353393  0.67623495  1
  H+  H206  1  0.37973168  0.23537730  0.49578913  1
  H+  H207  1  0.52777919  0.14350287  0.16063038  1
  H+  H208  1  0.65305931  0.50983566  0.50578924  1
  H+  H209  1  0.27253542  0.12389249  0.82574571  1
  H+  H210  1  0.42981031  0.13348468  0.83073612  1
  H+  H211  1  0.22200059  0.87329627  0.32466182  1
  H+  H212  1  0.38160901  0.01646596  1.01435936  1
  H+  H213  1  0.50113706  0.08917374  0.35308997  1
  H+  H214  1  0.28554837  0.35352375  0.67185300  1
  H+  H215  1  0.52659280  0.65065151  0.02762468  1
  H+  H216  1  0.90637319  0.24622049  0.47416493  1
  H+  H217  1  1.01891645  0.12401542  0.51642161  1
  H+  H218  1  0.66565063  0.08060003  0.26758755  1
  H+  H219  1  0.13730117  0.51444722  0.99056032  1
  H+  H220  1  0.87766816  0.02013512  0.65808277  1
  H+  H221  1  0.72605175  0.61564278  0.97976293  1
  H+  H222  1  0.63319524  0.26220916  0.50830514  1
  H+  H223  1  0.37515940  0.21369073  0.67188723  1
  H+  H224  1  0.52212941  0.38801587  0.15046760  1
  H+  H225  1  0.47554219  0.86802588  0.32793677  1
  H+  H226  1  0.36221386  0.64567910  0.44836633  1
  H+  H227  1  -0.02570406  0.38291137  0.17458946  1
  H+  H228  1  0.94299283  0.87405279  0.16784809  1
  H+  H229  1  0.29188060  0.64628072  0.16173772  1
  H+  H230  1  0.39197683  0.36556447  0.98467285  1
  H+  H231  1  0.87281427  -0.02160837  0.50061686  1
  H+  H232  1  0.23541550  0.09844856  0.65734259  1
  H+  H233  1  0.12422482  0.34832675  0.85129205  1
  H+  H234  1  0.89445240  0.54909794  0.16395065  1
  H+  H235  1  0.37127970  0.65168505  1.00263579  1
  H+  H236  1  0.38537739  0.76601931  0.50956615  1
  H+  H237  1  0.89520912  0.77753238  0.32958679  1
  H+  H238  1  0.61351271  0.78838688  0.20768372  1
  H+  H239  1  0.72125895  0.12271298  0.99871095  1
  H+  H240  1  0.98397318  0.10545084  0.33152191  1
  H+  H241  1  0.60341522  0.88206285  0.15819722  1
  H+  H242  1  0.64239025  0.87656284  0.50038088  1
  H+  H243  1  0.37426799  0.65653109  0.82136953  1
  H+  H244  1  0.40946775  0.54805280  0.98711234  1
  H+  H245  1  0.62848149  0.80127520  0.65957609  1
  H+  H246  1  0.98160404  0.86524999  0.99283250  1
  H+  H247  1  0.85249438  0.24506172  0.00952184  1
  H+  H248  1  0.61115355  0.89510316  0.82617238  1
  H+  H249  1  0.48008686  0.61214284  0.51914633  1
  H+  H250  1  0.12834587  0.23352417  0.16780251  1
  H+  H251  1  0.47987265  0.37139049  0.32426112  1
  H+  H252  1  0.60598522  0.10559300  0.51880773  1
  H+  H253  1  0.12882001  0.72911450  0.82886820  1
  H+  H254  1  0.23516464  0.61715022  0.50241288  1
  H+  H255  1  0.86511431  0.73928240  0.83813823  1
  H+  H256  1  0.79977756  0.86648238  0.19397106  1
  H+  H257  1  0.62692404  -0.00758155  1.01022359  1
  H+  H258  1  0.63969868  0.52478105  0.97904139  1
  H+  H259  1  0.09749147  0.16463488  0.11274126  1
  H+  H260  1  0.34185038  0.67537829  0.09849732  1
  H+  H261  1  0.38731638  0.79175459  0.84139989  1
  H+  H262  1  0.86939513  0.11645508  0.32910618  1
  H+  H263  1  0.30099600  0.70128474  0.39449891  1
  H+  H264  1  0.03209833  0.49759389  0.11694733  1
  H+  H265  1  0.81868848  0.41057434  0.05220405  1
  H+  H266  1  0.48924796  0.34521266  0.66242884  1
  H+  H267  1  0.38307836  0.40164360  0.82964835  1
  H+  H268  1  0.91670246  0.93699943  1.03757459  1
  H+  H269  1  0.36923227  0.62925929  0.51512257  1
  H+  H270  1  0.38925359  0.88157046  0.84088023  1
  H+  H271  1  0.15793235  0.33998154  0.53130656  1
  H+  H272  1  0.62914127  0.74249323  0.81084078  1
  H+  H273  1  0.34989963  0.74549456  0.33412215  1
  H+  H274  1  0.16072618  0.37296649  0.18608946  1
  H+  H275  1  0.29778262  0.42455156  -0.00835048  1
  H+  H276  1  0.36510496  0.45017411  0.67086841  1
  H+  H277  1  0.60709388  0.14199669  0.69869194  1
  H+  H278  1  0.72369970  0.87671137  0.65622562  1
  H+  H279  1  0.10526125  0.84653712  0.52094381  1
  H+  H280  1  0.63907614  0.27930567  0.98168727  1
  H+  H281  1  0.29168715  0.37553902  0.51107897  1
  H+  H282  1  0.62790933  0.38599546  0.82712355  1
  H+  H283  1  0.88713825  0.78371459  -0.00453873  1
  H+  H284  1  0.24703594  0.37222905  0.17032893  1
  H+  H285  1  0.63749714  0.03037805  0.84532755  1
  H+  H286  1  0.90191627  0.61736669  0.51180877  1
  H+  H287  1  0.77770691  0.39756521  0.83236384  1
  H+  H288  1  0.84703602  0.15498481  0.38626311  1
  H+  H289  1  0.39728931  0.02897105  0.17615998  1
  H+  H290  1  0.69676172  0.85705105  0.88608108  1
  H+  H291  1  0.12093533  0.64824354  0.49064491  1
  H+  H292  1  0.09256068  0.66574582  0.73420619  1
  H+  H293  1  0.08851248  0.42097000  0.77229833  1
  H+  H294  1  0.90492204  0.33419504  0.61857842  1
  H+  H295  1  0.66770432  0.32344079  0.56742432  1
  H+  H296  1  0.34176870  0.17795059  0.39570092  1
  H+  H297  1  0.19729314  0.30619101  1.01396617  1
  H+  H298  1  0.92304409  0.58093860  0.60584946  1
  H+  H299  1  0.93948787  0.84031703  0.60729576  1
  H+  H300  1  0.56065568  0.13280498  0.44238127  1
  H+  H301  1  0.08246014  0.91017637  0.77494884  1
  H+  H302  1  0.17059331  0.57599312  0.93209326  1
  H+  H303  1  0.16958014  0.07702497  0.23218679  1
  H+  H304  1  0.67204552  0.33868643  0.91873277  1
  H+  H305  1  0.84075419  0.43096294  0.40293773  1
  H+  H306  1  0.91049133  0.32996072  0.89195613  1
  H+  H307  1  0.01934174  0.35008755  0.02898756  1
  H+  H308  1  0.83244304  0.15960289  0.76692700  1
  H+  H309  1  0.59754465  0.78865450  0.95713816  1
  H+  H310  1  0.15738303  0.82736495  0.60521710  1
  H+  H311  1  0.08237466  0.44952672  0.39867639  1
  H+  H312  1  0.34029882  0.42391778  0.05628171  1
  H+  H313  1  0.54906897  0.17768631  0.77889646  1
  H+  H314  1  0.66923973  0.84956904  0.56106642  1
  H+  H315  1  0.39618450  0.51845398  0.51898554  1
  H+  H316  1  0.91729597  0.84614538  0.90849315  1
  H+  H317  1  0.64578955  0.08201814  0.61779932  1
  H+  H318  1  0.14226890  0.30841548  0.91056656  1
  H+  H319  1  0.39919546  0.34312989  0.66084708  1
  H+  H320  1  0.75112631  0.46863739  0.28619153  1
  H+  H321  1  0.41771424  0.08630741  0.26765847  1
  H+  H322  1  0.58731562  0.41849542  0.39556022  1
  H+  H323  1  0.84758077  0.73239477  0.15406746  1
  H+  H324  1  0.43672777  0.56843527  0.25895495  1
  H+  H325  1  0.34591756  0.89792351  0.01160296  1
  H+  H326  1  0.57476715  0.67323763  0.43886187  1
  H+  H327  1  0.83835097  0.66710925  0.73505674  1
  H+  H328  1  0.41208147  0.59214143  0.26076539  1
  H+  H329  1  0.83955998  0.67386547  0.40210906  1
  H+  H330  1  0.33515931  0.16745471  0.10088734  1
  H+  H331  1  0.66405242  0.08433954  0.93778241  1
  H+  H332  1  0.97393385  0.36469094  0.52674583  1
  H+  H333  1  0.15606828  0.05361437  0.58245351  1
  H+  H334  1  0.89657159  1.00016511  0.76967310  1
  H+  H335  1  0.84147166  0.91287942  0.40669285  1
  H+  H336  1  0.61470315  0.64686166  0.81874345  1
  H+  H337  1  0.34243668  0.41162211  0.44767989  1
  H+  H338  1  0.42979291  0.84001604  0.22949669  1
  H+  H339  1  0.90171007  0.83592684  0.23153460  1
  H+  H340  1  0.52608682  0.38804163  -0.00268246  1
  H+  H341  1  0.16714018  0.59578793  0.23386178  1
  H+  H342  1  0.18173587  0.31585013  0.59398395  1
  H+  H343  1  0.89520182  0.74394070  0.49010312  1
  H+  H344  1  0.19142417  0.32688556  0.27511652  1
  H+  H345  1  0.43460062  0.32464515  0.56985142  1
  H+  H346  1  0.17504941  0.07723753  0.93256203  1
  H+  H347  1  0.07488601  0.16099719  0.74122199  1
  H+  H348  1  0.55642004  0.23547473  0.83639747  1
  H+  H349  1  0.89480978  0.06253443  0.91827558  1
  H+  H350  1  0.32365916  0.92414322  0.76778410  1
  H+  H351  1  0.43528604  0.60800804  0.92899955  1
  H+  H352  1  0.67850235  0.36333920  0.22115879  1
  H+  H353  1  0.37590483  0.09863246  0.66152816  1
  H+  H354  1  0.41718221  0.33907534  0.22692943  1
  H+  H355  1  0.65806870  0.58404723  0.88997297  1
  H+  H356  1  0.33912690  0.15132717  0.73125424  1
  H+  H357  1  0.91264692  0.87690987  0.49243335  1
  H+  H358  1  0.82663870  0.18554526  0.06932392  1
  H+  H359  1  0.27529822  0.63430413  0.00644197  1
  H+  H360  1  0.12295224  0.26202093  0.68245068  1
  H+  H361  1  0.14371241  0.11204846  0.33065315  1
  H+  H362  1  0.58616135  0.65668444  0.72542816  1
  H+  H363  1  0.09596498  0.16405807  0.40690011  1
  H+  H364  1  0.16312340  0.82919699  0.92702883  1
  H+  H365  1  0.35425933  0.42241095  0.76852917  1
  H+  H366  1  0.10717477  0.68272191  0.09400699  1
  H+  H367  1  0.97261526  0.40008902  0.97464334  1
  H+  H368  1  0.61179712  0.46842788  0.82406728  1
  H+  H369  1  0.67000321  0.58058767  0.23127468  1
  H+  H370  1  0.40626643  0.55936347  0.61338150  1
  H+  H371  1  0.56385399  0.91523633  0.73916973  1
  H+  H372  1  0.92660873  0.59287603  0.93204399  1
  H+  H373  1  0.58918400  0.40550865  0.73598528  1
  H+  H374  1  0.92619612  0.08987597  0.57471736  1
  H+  H375  1  0.58687727  0.17569515  0.06466768  1
  H+  H376  1  0.14995680  0.84304307  0.23413848  1
  H+  H377  1  0.67964669  0.56857052  0.60217887  1
  H+  H378  1  0.58145501  0.91588039  0.39686806  1
  H+  H379  1  0.39510045  0.06232088  0.59492840  1
  H+  H380  1  0.02391483  0.07759923  0.04050493  1
  H+  H381  1  0.58234101  0.41998201  0.09060396  1
  H+  H382  1  0.87709373  0.10127164  0.82588687  1
  H+  H383  1  0.07919335  0.68976391  0.40026096  1
  O2-  O384  1  0.09491207  0.17148886  0.15759931  1
  O2-  O385  1  0.08949516  0.15118508  0.50206831  1
  O2-  O386  1  0.08241324  0.15599754  0.81778891  1
  O2-  O387  1  0.06081917  0.46799266  0.13329053  1
  O2-  O388  1  0.06181807  0.48119834  0.42478910  1
  O2-  O389  1  0.08700631  0.41872810  0.81753714  1
  O2-  O390  1  0.11661636  0.68542846  0.13838741  1
  O2-  O391  1  0.08552699  0.67480767  0.47953216  1
  O2-  O392  1  0.09945559  0.66925454  0.81265212  1
  O2-  O393  1  0.05755062  0.92076890  0.13651988  1
  O2-  O394  1  0.00407141  0.87392953  0.54158326  1
  O2-  O395  1  0.08467055  0.91164639  0.82061469  1
  O2-  O396  1  0.33571552  0.16618897  0.14635680  1
  O2-  O397  1  0.34171189  0.17505681  0.47812051  1
  O2-  O398  1  0.33306391  0.15056310  0.80868635  1
  O2-  O399  1  0.33324791  0.41378955  0.13097671  1
  O2-  O400  1  0.34924141  0.41100043  0.49319871  1
  O2-  O401  1  0.36162343  0.43777747  0.81196014  1
  O2-  O402  1  0.34992456  0.67563573  0.14355248  1
  O2-  O403  1  0.34629687  0.65872210  0.48842185  1
  O2-  O404  1  0.34121986  0.68602628  0.81034058  1
  O2-  O405  1  0.35536591  0.92258875  0.15426267  1
  O2-  O406  1  0.31887972  0.90922786  0.47941961  1
  O2-  O407  1  0.32493352  0.93033828  0.81282290  1
  O2-  O408  1  0.58800111  0.17391331  0.14474690  1
  O2-  O409  1  0.56655802  0.15416014  0.48633076  1
  O2-  O410  1  0.52692931  0.17643690  0.82148693  1
  O2-  O411  1  0.58276632  0.41799499  0.13613766  1
  O2-  O412  1  0.59409721  0.41060375  0.47495450  1
  O2-  O413  1  0.58812361  0.40818223  0.81062086  1
  O2-  O414  1  0.61420464  0.74299648  0.07792983  1
  O2-  O415  1  0.57937199  0.67511354  0.48316747  1
  O2-  O416  1  0.59238520  0.68219306  0.79809243  1
  O2-  O417  1  0.64069514  0.93944741  0.13729363  1
  O2-  O418  1  0.57762409  0.91788994  0.47944845  1
  O2-  O419  1  0.57890242  0.92341412  0.81297822  1
  O2-  O420  1  0.83223412  0.17495521  0.14600783  1
  O2-  O421  1  0.87991628  0.18217193  0.46906468  1
  O2-  O422  1  0.84054478  0.15876022  0.81194132  1
  O2-  O423  1  0.80081496  0.35885136  0.12440630  1
  O2-  O424  1  0.83259351  0.41959319  0.48465226  1
  O2-  O425  1  0.83987523  0.42178280  0.81550374  1
  O2-  O426  1  0.82589318  0.67381511  0.13732774  1
  O2-  O427  1  0.86268698  0.68012596  0.48587012  1
  O2-  O428  1  0.83805753  0.67667483  0.82734823  1
  O2-  O429  1  0.75247724  0.87624379  0.20604965  1
  O2-  O430  1  0.84368017  0.91821376  0.48681930  1
  O2-  O431  1  0.86635830  0.98301719  0.80894956  1
  O2-  O432  1  0.16768998  0.07866979  0.18706437  1
  O2-  O433  1  0.13183328  0.04173750  0.53536554  1
  O2-  O434  1  0.17329357  0.08079602  0.85476295  1
  O2-  O435  1  0.19052519  0.34127934  0.19409234  1
  O2-  O436  1  0.18326990  0.30744883  0.54910482  1
  O2-  O437  1  0.14445149  0.30943472  0.86590669  1
  O2-  O438  1  0.17988083  0.59956711  0.18991822  1
  O2-  O439  1  0.17369057  0.59371483  0.51306256  1
  O2-  O440  1  0.17767670  0.58509497  0.85576809  1
  O2-  O441  1  0.14271874  0.84259484  0.18860551  1
  O2-  O442  1  0.14904110  0.82977973  0.52696391  1
  O2-  O443  1  0.16827337  0.83230442  0.85899681  1
  O2-  O444  1  0.42420976  0.08998834  0.18959313  1
  O2-  O445  1  0.39738394  0.07030407  0.52488642  1
  O2-  O446  1  0.36418805  0.09802945  0.83889146  1
  O2-  O447  1  0.41613681  0.33605253  0.18173862  1
  O2-  O448  1  0.43384170  0.32801293  0.52400224  1
  O2-  O449  1  0.42455618  0.32601133  0.85241682  1
  O2-  O450  1  0.42598661  0.57473431  0.14451402  1
  O2-  O451  1  0.42124178  0.57714206  0.53672604  1
  O2-  O452  1  0.42580292  0.60288999  0.84845190  1
  O2-  O453  1  0.43328502  0.84409880  0.18460743  1
  O2-  O454  1  0.40781297  0.82627144  0.52371176  1
  O2-  O455  1  0.41808417  0.85144770  0.85789122  1
  O2-  O456  1  0.66820816  0.08765289  0.18941822  1
  O2-  O457  1  0.63573187  0.07473727  0.53771440  1
  O2-  O458  1  0.67113317  0.08725312  0.86497159  1
  O2-  O459  1  0.66593527  0.34174381  0.17766096  1
  O2-  O460  1  0.66757399  0.32320042  0.52168644  1
  O2-  O461  1  0.68257969  0.34876208  0.85107556  1
  O2-  O462  1  0.67296146  0.58243904  0.18657099  1
  O2-  O463  1  0.68745384  0.57066509  0.52154197  1
  O2-  O464  1  0.65107673  0.58395108  0.84323460  1
  O2-  O465  1  0.56726291  0.78268675  0.18143912  1
  O2-  O466  1  0.67385186  0.84759159  0.51623490  1
  O2-  O467  1  0.69225185  0.85874974  0.84159771  1
  O2-  O468  1  0.91125384  0.08397897  0.15384752  1
  O2-  O469  1  0.93940942  0.09269579  0.52893162  1
  O2-  O470  1  0.90709308  0.06671140  0.84075551  1
  O2-  O471  1  0.91803196  0.33961942  0.19163760  1
  O2-  O472  1  0.94302081  0.35121934  0.48828368  1
  O2-  O473  1  0.91415014  0.32782808  0.84695431  1
  O2-  O474  1  0.91173589  0.60144967  0.18685089  1
  O2-  O475  1  0.92640703  0.58215920  0.52819563  1
  O2-  O476  1  0.93786075  0.59350289  0.85259972  1
  O2-  O477  1  0.88710313  0.83841221  0.18836893  1
  O2-  O478  1  0.95370080  0.85516931  0.48503128  1
  O2-  O479  1  0.91695537  0.84451664  0.86193835  1
  O2-  O480  1  0.17152644  0.08005948  0.31366295  1
  O2-  O481  1  0.17489833  0.06614817  0.64279557  1
  O2-  O482  1  0.17775251  0.07172200  0.97779981  1
  O2-  O483  1  0.18507206  0.32432162  0.32014063  1
  O2-  O484  1  0.16211653  0.32707873  0.66993195  1
  O2-  O485  1  0.14217566  0.29353829  0.99683252  1
  O2-  O486  1  0.14214220  0.59268948  0.31510157  1
  O2-  O487  1  0.18484554  0.60239741  0.63895299  1
  O2-  O488  1  0.16489618  0.57479734  0.97776997  1
  O2-  O489  1  0.16088364  0.84606652  0.31000679  1
  O2-  O490  1  0.16081784  0.82860111  0.65069858  1
  O2-  O491  1  0.15803898  0.82363136  0.97430870  1
  O2-  O492  1  0.41122935  0.08055542  0.31291744  1
  O2-  O493  1  0.39760930  0.06023188  0.64163109  1
  O2-  O494  1  0.41850848  0.08542592  0.99165446  1
  O2-  O495  1  0.41851652  0.34094231  0.30988770  1
  O2-  O496  1  0.42935801  0.31242602  0.64511917  1
  O2-  O497  1  0.41819492  0.33013241  0.97411230  1
  O2-  O498  1  0.39470846  0.60190543  0.38198969  1
  O2-  O499  1  0.39849458  0.54558076  0.65762170  1
  O2-  O500  1  0.43464919  0.60867412  0.97447127  1
  O2-  O501  1  0.41575897  0.84069046  0.31110836  1
  O2-  O502  1  0.39208931  0.81288134  0.65418535  1
  O2-  O503  1  0.35126986  0.82626969  0.97567922  1
  O2-  O504  1  0.66698789  0.07457290  0.31275345  1
  O2-  O505  1  0.65718196  0.08397654  0.66216374  1
  O2-  O506  1  0.66055876  0.08437166  0.98408519  1
  O2-  O507  1  0.70425047  0.40730576  0.28773822  1
  O2-  O508  1  0.67320892  0.32886336  0.64463367  1
  O2-  O509  1  0.66924466  0.33924951  0.96650588  1
  O2-  O510  1  0.66606710  0.59199782  0.31771100  1
  O2-  O511  1  0.68034520  0.56854354  0.64762430  1
  O2-  O512  1  0.67011797  0.58195089  0.95887802  1
  O2-  O513  1  0.68010190  0.84389407  0.31585676  1
  O2-  O514  1  0.66396603  0.85818248  0.64218894  1
  O2-  O515  1  0.64824517  0.82902669  0.97997671  1
  O2-  O516  1  0.92537948  0.07433237  0.31480147  1
  O2-  O517  1  0.90762356  0.08104342  0.64493650  1
  O2-  O518  1  0.88841587  0.06879459  0.96247108  1
  O2-  O519  1  0.93707235  0.31288975  0.31089898  1
  O2-  O520  1  0.91118256  0.33365318  0.66252397  1
  O2-  O521  1  0.91334734  0.35363410  0.97099526  1
  O2-  O522  1  0.84962587  0.56235040  0.29937664  1
  O2-  O523  1  0.92342070  0.58095159  0.65157887  1
  O2-  O524  1  0.92365559  0.59288566  0.97734056  1
  O2-  O525  1  0.92627705  0.83832897  0.31344289  1
  O2-  O526  1  0.91806045  0.83407733  0.64984955  1
  O2-  O527  1  0.92087010  0.84534872  0.98187336  1
  O2-  O528  1  0.08459807  0.12786205  0.03865608  1
  O2-  O529  1  0.09557947  0.16286460  0.36238245  1
  O2-  O530  1  0.07412877  0.16984366  0.69625482  1
  O2-  O531  1  0.07895614  0.39621903  0.03310621  1
  O2-  O532  1  0.09269895  0.39955231  0.33589849  1
  O2-  O533  1  0.08728704  0.43042354  0.69072299  1
  O2-  O534  1  0.08892120  0.66805307  0.01237325  1
  O2-  O535  1  0.07522680  0.69634147  0.35562010  1
  O2-  O536  1  0.08985169  0.66666073  0.68879106  1
  O2-  O537  1  0.09051078  0.90923096  0.01639676  1
  O2-  O538  1  0.08211506  0.92107701  0.34664299  1
  O2-  O539  1  0.08403173  0.91155817  0.69819329  1
  O2-  O540  1  0.33945065  0.17015317  0.02187733  1
  O2-  O541  1  0.33737955  0.17486787  0.35072139  1
  O2-  O542  1  0.34016947  0.15168353  0.68561875  1
  O2-  O543  1  0.34989266  0.43191657  0.01061215  1
  O2-  O544  1  0.34153787  0.42525054  0.37193940  1
  O2-  O545  1  0.34496032  0.38846213  0.68557174  1
  O2-  O546  1  0.33465163  0.67315491  0.02072400  1
  O2-  O547  1  0.30830205  0.68717731  0.35289939  1
  O2-  O548  1  0.35706029  0.72687672  0.68226780  1
  O2-  O549  1  0.33839733  0.94295978  0.03506584  1
  O2-  O550  1  0.32466001  0.91711942  0.35088436  1
  O2-  O551  1  0.32184666  0.91053306  0.68826060  1
  O2-  O552  1  0.58265211  0.17291123  0.01931188  1
  O2-  O553  1  0.54170373  0.08303623  0.38025984  1
  O2-  O554  1  0.58124307  0.17719158  0.70997614  1
  O2-  O555  1  0.58653802  0.42037488  0.01218975  1
  O2-  O556  1  0.58215765  0.42453481  0.35088165  1
  O2-  O557  1  0.58820487  0.40320282  0.68992474  1
  O2-  O558  1  0.56078241  0.65155869  0.06326693  1
  O2-  O559  1  0.57042421  0.67772119  0.33558382  1
  O2-  O560  1  0.57571537  0.62802113  0.68417545  1
  O2-  O561  1  0.60264495  0.93255093  0.02963233  1
  O2-  O562  1  0.58156743  0.91245694  0.35176698  1
  O2-  O563  1  0.55661362  0.91404899  0.69343874  1
  O2-  O564  1  0.82039732  0.18563359  0.02414460  1
  O2-  O565  1  0.83726964  0.14754497  0.34221127  1
  O2-  O566  1  0.82537892  0.15925469  0.68944388  1
  O2-  O567  1  0.82515186  0.42396928  0.00798059  1
  O2-  O568  1  0.85092722  0.43410072  0.35853081  1
  O2-  O569  1  0.83504797  0.41726842  0.69576396  1
  O2-  O570  1  0.83275029  0.67701401  0.01423274  1
  O2-  O571  1  0.83292787  0.67863935  0.35781070  1
  O2-  O572  1  0.84091527  0.66799545  0.69044287  1
  O2-  O573  1  0.92536951  0.99345684  0.04965959  1
  O2-  O574  1  0.84183190  0.91085797  0.36154279  1
  O2-  O575  1  0.82666566  0.90710627  0.67927945  1
