# generated using pymatgen
data_H2O
_symmetry_space_group_name_H-M   'P 1'
_cell_length_a   17.99443268
_cell_length_b   17.99134797
_cell_length_c   21.99562095
_cell_angle_alpha   89.99002777
_cell_angle_beta   89.99236818
_cell_angle_gamma   120.00505505
_symmetry_Int_Tables_number   1
_chemical_formula_structural   H2O
_chemical_formula_sum   'H384 O192'
_cell_volume   6166.61132066
_cell_formula_units_Z   192
loop_
 _symmetry_equiv_pos_site_id
 _symmetry_equiv_pos_as_xyz
  1  'x, y, z'
loop_
 _atom_type_symbol
 _atom_type_oxidation_number
  H+  1.0
  O2-  -2.0
loop_
 _atom_site_type_symbol
 _atom_site_label
 _atom_site_symmetry_multiplicity
 _atom_site_fract_x
 _atom_site_fract_y
 _atom_site_fract_z
 _atom_site_occupancy
  H+  H0  1  0.28709805  0.15368374  0.16457410  1
  H+  H1  1  0.41834049  0.58041521  0.26573891  1
  H+  H2  1  0.63520315  0.10867741  0.84107422  1
  H+  H3  1  0.63617105  0.60817021  0.83999571  1
  H+  H4  1  0.78277535  0.14541394  0.01237018  1
  H+  H5  1  0.56275847  0.89352354  0.01683067  1
  H+  H6  1  0.22263890  0.85760558  0.83444014  1
  H+  H7  1  0.19254847  0.71790479  0.30655973  1
  H+  H8  1  0.11689986  -0.03028519  1.01394483  1
  H+  H9  1  0.28504187  0.38609501  0.16027298  1
  H+  H10  1  0.72265157  0.36621548  0.85331054  1
  H+  H11  1  0.14597782  0.27291331  0.17740387  1
  H+  H12  1  0.63394871  0.03648877  0.17787069  1
  H+  H13  1  0.87405565  -0.01875030  1.00497492  1
  H+  H14  1  0.36658834  0.98465141  0.17005535  1
  H+  H15  1  0.38472506  0.37106198  0.51241300  1
  H+  H16  1  0.02418450  0.38190262  0.48742411  1
  H+  H17  1  0.74458900  0.85936212  0.16327942  1
  H+  H18  1  0.13216826  0.62665599  0.99381279  1
  H+  H19  1  0.38985817  0.61034352  0.50751639  1
  H+  H20  1  0.38443899  0.11895812  0.50997281  1
  H+  H21  1  0.52072112  0.13821817  0.16353446  1
  H+  H22  1  0.61454191  0.63885364  0.67262572  1
  H+  H23  1  0.10553220  0.71894901  0.82489046  1
  H+  H24  1  0.88242130  0.51965803  0.84815624  1
  H+  H25  1  0.62016681  0.59351520  0.17023704  1
  H+  H26  1  0.89292752  1.02852397  0.49791951  1
  H+  H27  1  0.52563336  0.87682800  0.68448328  1
  H+  H28  1  0.61587784  0.72107495  0.82889359  1
  H+  H29  1  0.62882020  0.88741688  0.48281552  1
  H+  H30  1  0.07066255  0.01125617  0.29747319  1
  H+  H31  1  0.63237669  0.36306123  0.84903850  1
  H+  H32  1  0.02880208  0.39955156  0.33474933  1
  H+  H33  1  0.02762876  0.13514465  0.16660425  1
  H+  H34  1  0.11223793  0.53259854  0.98134912  1
  H+  H35  1  0.87499192  0.52554607  0.32732886  1
  H+  H36  1  0.08527029  0.91212004  0.10970274  1
  H+  H37  1  0.14741400  0.61361493  0.16553926  1
  H+  H38  1  0.78051915  0.14276130  0.33431058  1
  H+  H39  1  0.22936583  0.36782670  0.32852414  1
  H+  H40  1  0.00264850  0.39198428  0.83857380  1
  H+  H41  1  0.87311578  0.97471410  0.16489875  1
  H+  H42  1  0.79388925  0.26688658  0.76626794  1
  H+  H43  1  0.36782262  0.97041705  0.82039669  1
  H+  H44  1  0.60430759  0.62555839  0.33920134  1
  H+  H45  1  0.60747293  0.49913178  0.17347050  1
  H+  H46  1  0.61237120  0.90635048  0.18577630  1
  H+  H47  1  0.13368348  0.85724616  0.83048490  1
  H+  H48  1  0.14075574  0.02642233  0.50981048  1
  H+  H49  1  0.10970268  0.63253049  0.82721123  1
  H+  H50  1  0.64524544  0.39599931  0.65257731  1
  H+  H51  1  0.14505251  0.52296440  0.17276333  1
  H+  H52  1  0.98819153  0.91093541  0.36418871  1
  H+  H53  1  0.51780924  0.13586640  1.01619501  1
  H+  H54  1  0.97842037  0.86422540  0.50759045  1
  H+  H55  1  0.60725989  0.22385879  0.49393309  1
  H+  H56  1  0.47739231  0.61444175  0.98695923  1
  H+  H57  1  0.14214066  0.37267260  0.32504904  1
  H+  H58  1  0.87317716  0.58464008  0.66735557  1
  H+  H59  1  0.47264409  0.11689308  0.50432491  1
  H+  H60  1  0.14539431  0.11811877  0.17326388  1
  H+  H61  1  0.17788706  0.33479513  0.23640781  1
  H+  H62  1  0.11614714  0.47669920  0.66549988  1
  H+  H63  1  0.65458689  0.84198891  0.13984422  1
  H+  H64  1  0.86411280  0.72572202  0.82973188  1
  H+  H65  1  -0.04934392  0.11605277  0.85241275  1
  H+  H66  1  0.78351310  0.88805009  0.83561875  1
  H+  H67  1  0.16310205  0.10333345  0.83633392  1
  H+  H68  1  0.06703765  0.14104450  0.82560392  1
  H+  H69  1  0.39106882  0.61519125  0.16996084  1
  H+  H70  1  0.72649952  0.61064354  0.84320020  1
  H+  H71  1  0.63886978  0.77615853  0.64500985  1
  H+  H72  1  0.14367614  1.00769242  0.83525810  1
  H+  H73  1  0.73482967  0.12105045  0.64745950  1
  H+  H74  1  0.61749965  0.47536876  0.82966225  1
  H+  H75  1  0.11179163  0.73470039  0.00060213  1
  H+  H76  1  0.13141499  0.36023092  0.49916614  1
  H+  H77  1  0.43358580  0.85979524  0.98268212  1
  H+  H78  1  0.38843518  0.61423401  0.98597615  1
  H+  H79  1  0.76445487  0.38493840  0.33590124  1
  H+  H80  1  0.12247476  1.02214445  0.66253539  1
  H+  H81  1  0.23615278  0.62350357  0.32548470  1
  H+  H82  1  0.91738743  0.56507731  0.16511461  1
  H+  H83  1  0.97080328  0.10777757  0.65365787  1
  H+  H84  1  0.11311849  0.83342461  0.66706763  1
  H+  H85  1  0.81317719  0.44230000  0.15980853  1
  H+  H86  1  0.36412738  0.47406581  0.33669376  1
  H+  H87  1  0.35791636  0.87619980  0.82014285  1
  H+  H88  1  0.38598430  0.61029304  0.66327302  1
  H+  H89  1  0.11093646  0.12563775  0.01090021  1
  H+  H90  1  0.37638807  0.11589729  1.01314983  1
  H+  H91  1  0.35453875  0.98087084  0.02752336  1
  H+  H92  1  0.63284894  0.88384075  0.33087822  1
  H+  H93  1  0.55409447  0.00625441  0.53694943  1
  H+  H94  1  0.62356196  0.23117035  0.82837285  1
  H+  H95  1  0.09710153  0.70035734  0.67521003  1
  H+  H96  1  0.72982368  0.61205193  0.50634750  1
  H+  H97  1  0.27286013  0.13411401  0.66229515  1
  H+  H98  1  0.14833224  0.34639301  0.99387172  1
  H+  H99  1  0.49135861  0.87973387  0.50827267  1
  H+  H100  1  0.61493608  0.35780423  1.00254462  1
  H+  H101  1  0.86283311  0.72980899  0.49159622  1
  H+  H102  1  0.87298421  0.48254406  0.01315132  1
  H+  H103  1  0.13282826  0.75317726  0.32850363  1
  H+  H104  1  0.38814094  0.11724107  0.17583221  1
  H+  H105  1  0.37535829  0.21801198  0.83212350  1
  H+  H106  1  0.13228886  0.60222387  0.66063795  1
  H+  H107  1  0.92718110  0.65876010  0.49846970  1
  H+  H108  1  0.90691183  0.83929320  0.60391438  1
  H+  H109  1  0.11808359  0.89044802  0.17088167  1
  H+  H110  1  0.36369125  0.22926351  0.00772383  1
  H+  H111  1  0.74836386  0.86060382  0.99814938  1
  H+  H112  1  0.26749948  0.63475719  0.00688443  1
  H+  H113  1  0.87242458  0.88428234  0.16139940  1
  H+  H114  1  0.50129548  0.86391648  0.32515169  1
  H+  H115  1  0.36667959  0.48057407  0.49310869  1
  H+  H116  1  0.39495864  0.35699482  0.83051814  1
  H+  H117  1  0.37732976  1.02262178  0.33032446  1
  H+  H118  1  0.88742603  0.10417606  0.18218162  1
  H+  H119  1  0.28553112  0.97104173  0.69757688  1
  H+  H120  1  0.89894668  0.86470974  -0.00667681  1
  H+  H121  1  0.75031637  0.62156477  0.15941225  1
  H+  H122  1  0.82856194  0.75753948  0.32508597  1
  H+  H123  1  0.89016416  0.27837657  0.32289895  1
  H+  H124  1  -0.02841345  0.11125653  -0.00622397  1
  H+  H125  1  0.65142496  0.03846594  1.00350139  1
  H+  H126  1  0.11609582  0.24397901  0.82542416  1
  H+  H127  1  0.16086744  0.53774307  0.83177168  1
  H+  H128  1  0.28030033  0.63866021  0.15780397  1
  H+  H129  1  0.36828030  0.72878775  0.15889029  1
  H+  H130  1  0.24529119  0.36204518  0.83389936  1
  H+  H131  1  0.88171267  0.26365719  0.16802979  1
  H+  H132  1  0.37764114  0.47902064  0.80681417  1
  H+  H133  1  0.39034841  0.52553760  0.16990908  1
  H+  H134  1  0.86933518  0.14239682  0.33540202  1
  H+  H135  1  0.08885409  0.73275561  0.50009914  1
  H+  H136  1  0.36606805  0.63181221  0.33740619  1
  H+  H137  1  0.47962733  0.37140411  0.31851742  1
  H+  H138  1  0.38887706  0.36636138  0.31452281  1
  H+  H139  1  0.38995786  0.86702080  0.17949204  1
  H+  H140  1  0.61675744  0.63888088  0.49240164  1
  H+  H141  1  0.12079066  0.21770190  0.00733491  1
  H+  H142  1  0.97318462  0.60727923  0.84675178  1
  H+  H143  1  0.82688476  0.41943130  0.42822045  1
  H+  H144  1  0.27658612  0.39203516  0.49084343  1
  H+  H145  1  0.63846705  0.75945367  0.31961131  1
  H+  H146  1  0.11906506  0.88713838  0.50871351  1
  H+  H147  1  0.37136615  0.39147106  0.70728784  1
  H+  H148  1  0.86110152  -0.02676267  0.68175251  1
  H+  H149  1  0.41547498  0.86757570  0.33351849  1
  H+  H150  1  0.64925655  0.77851540  0.49635652  1
  H+  H151  1  0.62665784  0.52127226  0.66011634  1
  H+  H152  1  0.84269612  0.70996087  0.16354873  1
  H+  H153  1  0.37871878  0.27584426  0.66614353  1
  H+  H154  1  0.17070602  0.07155359  0.93904563  1
  H+  H155  1  0.97878709  0.11418574  0.33052967  1
  H+  H156  1  0.15752869  0.82591802  0.92880566  1
  H+  H157  1  -0.02937201  0.88550005  0.39293630  1
  H+  H158  1  0.84441846  0.63528069  0.33763595  1
  H+  H159  1  0.60483160  -0.03760736  0.83946450  1
  H+  H160  1  0.88957044  0.36262236  0.50018071  1
  H+  H161  1  0.27347127  0.14338122  0.49733576  1
  H+  H162  1  0.47581060  0.60830646  0.32643822  1
  H+  H163  1  0.83425561  0.37078639  0.82622062  1
  H+  H164  1  0.86747750  0.13572053  0.01151423  1
  H+  H165  1  0.51467178  0.38544649  0.67948670  1
  H+  H166  1  0.11170800  0.13969933  0.33259762  1
  H+  H167  1  0.41511187  0.08431948  0.23595136  1
  H+  H168  1  0.82869004  0.22271042  0.81005919  1
  H+  H169  1  0.36899108  0.47937068  1.00172181  1
  H+  H170  1  0.64127353  0.12171609  0.00136471  1
  H+  H171  1  0.35856151  -0.02029297  0.50078318  1
  H+  H172  1  0.28032694  0.62902140  0.49611641  1
  H+  H173  1  0.13631840  0.37370344  0.64762384  1
  H+  H174  1  0.86009611  0.46294130  0.68106679  1
  H+  H175  1  0.99341718  0.67729350  0.33945182  1
  H+  H176  1  0.89247374  0.86721164  0.49772054  1
  H+  H177  1  0.63194817  0.26929105  0.33052282  1
  H+  H178  1  0.02179973  0.64191526  0.00869812  1
  H+  H179  1  0.84366071  0.58845204  0.16962287  1
  H+  H180  1  0.84511470  0.88593413  0.37921870  1
  H+  H181  1  0.14887514  0.97331739  0.34622499  1
  H+  H182  1  0.02226436  0.88359102  0.81874154  1
  H+  H183  1  0.52579331  0.12774551  0.34077508  1
  H+  H184  1  0.63553452  0.86150047  0.64938423  1
  H+  H185  1  0.89704147  0.27359957  1.03273858  1
  H+  H186  1  0.85624132  0.38934199  0.33615397  1
  H+  H187  1  0.40072896  0.11196329  0.83064789  1
  H+  H188  1  0.14708209  0.12245334  0.66484452  1
  H+  H189  1  0.66421521  0.86665719  0.00339798  1
  H+  H190  1  0.75150320  0.09667861  0.82259278  1
  H+  H191  1  0.20631809  0.84453131  0.66984104  1
  H+  H192  1  0.36604768  0.63347696  0.82030947  1
  H+  H193  1  0.38006081  0.76341409  0.83413927  1
  H+  H194  1  0.61954023  0.72147149  0.00576679  1
  H+  H195  1  0.58633683  0.89852357  0.74117429  1
  H+  H196  1  0.40484702  0.03920184  0.65903610  1
  H+  H197  1  0.65580363  0.13895669  0.64969382  1
  H+  H198  1  0.77236601  0.13230430  0.16878891  1
  H+  H199  1  0.52184404  0.63135604  0.15803215  1
  H+  H200  1  0.86954913  0.22042799  0.67827796  1
  H+  H201  1  0.54594446  0.15857676  0.66801253  1
  H+  H202  1  0.61435775  0.27783501  0.18140817  1
  H+  H203  1  0.63156991  0.60215262  -0.00635589  1
  H+  H204  1  0.84378888  0.10179971  0.83404374  1
  H+  H205  1  0.13136090  0.26440987  0.50695667  1
  H+  H206  1  1.02125438  0.38402037  0.86680956  1
  H+  H207  1  0.12463083  0.38174200  0.17267378  1
  H+  H208  1  0.83661627  0.36692159  0.15453965  1
  H+  H209  1  0.37479251  0.72413579  0.34073524  1
  H+  H210  1  0.02786176  0.14291064  0.50059355  1
  H+  H211  1  0.88393924  0.11075437  0.65733482  1
  H+  H212  1  0.76600795  0.61824752  0.67656189  1
  H+  H213  1  0.73436842  0.45414771  0.62136264  1
  H+  H214  1  0.16057030  0.41424226  0.81705330  1
  H+  H215  1  0.40224168  0.12166341  0.33082349  1
  H+  H216  1  0.51573470  0.39147136  0.49895318  1
  H+  H217  1  0.64678416  1.02310598  0.32522343  1
  H+  H218  1  0.11130665  0.87262794  0.35714460  1
  H+  H219  1  0.63815792  0.85297134  0.84919076  1
  H+  H220  1  0.33877478  0.88096583  0.02076851  1
  H+  H221  1  0.60564266  0.37889717  0.34495183  1
  H+  H222  1  0.05261628  0.66267279  0.15779251  1
  H+  H223  1  0.61794637  0.26418151  0.00019924  1
  H+  H224  1  0.47226911  0.35760019  0.99183562  1
  H+  H225  1  0.52638532  0.63942927  0.67564643  1
  H+  H226  1  0.77598908  0.88802488  0.47807014  1
  H+  H227  1  0.36156584  0.72235513  0.66828323  1
  H+  H228  1  0.09163120  0.91292135  0.62751254  1
  H+  H229  1  0.62156558  0.50899033  0.32672268  1
  H+  H230  1  0.15667845  0.78364366  0.17148407  1
  H+  H231  1  0.59183861  0.35333817  0.18406766  1
  H+  H232  1  0.14850314  1.03069863  0.17094521  1
  H+  H233  1  -0.03059201  0.84997733  0.18599816  1
  H+  H234  1  0.75084681  0.62343933  0.34147743  1
  H+  H235  1  0.66363327  0.34628850  0.55894862  1
  H+  H236  1  0.35614030  0.76570852  0.99649584  1
  H+  H237  1  0.88498249  0.35591015  0.66378389  1
  H+  H238  1  0.45206738  0.35736254  0.21532040  1
  H+  H239  1  0.88950091  0.02895658  0.34652162  1
  H+  H240  1  0.25138996  0.93474941  0.37079696  1
  H+  H241  1  0.92240290  0.33679858  0.12027284  1
  H+  H242  1  0.91372915  0.57618286  0.94034738  1
  H+  H243  1  0.36722925  0.14620819  0.66459561  1
  H+  H244  1  0.33255859  0.66804370  0.06378467  1
  H+  H245  1  0.29072810  0.12413761  0.83558599  1
  H+  H246  1  0.38496619  0.28277250  0.51819165  1
  H+  H247  1  0.53988981  0.14284447  0.81143586  1
  H+  H248  1  0.60391322  0.46698198  0.01461285  1
  H+  H249  1  0.60792053  0.18668244  0.72453095  1
  H+  H250  1  0.51802764  0.87264646  0.83805848  1
  H+  H251  1  0.82960034  0.14639726  0.73106364  1
  H+  H252  1  0.22504950  0.60852007  0.65823168  1
  H+  H253  1  0.63783483  0.52521141  0.50440369  1
  H+  H254  1  0.99023662  0.36058192  1.03077120  1
  H+  H255  1  0.86721102  0.98264855  0.84261970  1
  H+  H256  1  0.82346255  0.65938110  0.06438005  1
  H+  H257  1  0.27039872  0.86703415  0.34405316  1
  H+  H258  1  0.11854018  0.14389897  0.50227926  1
  H+  H259  1  0.76840732  0.62892461  1.00383608  1
  H+  H260  1  0.87069102  0.14416184  0.48773502  1
  H+  H261  1  0.14444312  0.52290350  0.50311475  1
  H+  H262  1  0.52013521  0.89130192  0.16835795  1
  H+  H263  1  0.38954474  0.52557350  0.67707784  1
  H+  H264  1  0.27662395  0.89069165  0.17370830  1
  H+  H265  1  0.58813103  0.66682759  0.76629880  1
  H+  H266  1  0.14843641  0.46056729  0.02522160  1
  H+  H267  1  0.85553967  0.47670323  0.48788989  1
  H+  H268  1  0.88253533  0.39401909  1.02541722  1
  H+  H269  1  0.63965045  0.10929556  0.33130670  1
  H+  H270  1  0.92908180  0.83657890  0.89651704  1
  H+  H271  1  0.89500143  0.86938333  0.84136156  1
  H+  H272  1  0.15967465  0.29671174  0.65143464  1
  H+  H273  1  0.52861453  0.38497027  0.82907306  1
  H+  H274  1  0.03390078  0.38105896  0.16815144  1
  H+  H275  1  0.02681075  0.38629514  0.67127823  1
  H+  H276  1  0.61801010  0.71296795  0.15574826  1
  H+  H277  1  0.96186254  0.58476085  0.66276623  1
  H+  H278  1  0.61409728  0.14738443  0.16508734  1
  H+  H279  1  0.22834118  0.10943347  -0.00150194  1
  H+  H280  1  0.59560274  0.12734555  0.49667436  1
  H+  H281  1  0.86256817  0.63629609  0.83600276  1
  H+  H282  1  0.13497355  0.85792414  0.99106083  1
  H+  H283  1  0.38781501  0.86192836  0.66439114  1
  H+  H284  1  0.39601788  0.24971414  0.33793845  1
  H+  H285  1  0.88074784  0.60595447  0.99879751  1
  H+  H286  1  0.71630718  0.36329756  0.49829087  1
  H+  H287  1  0.48086230  0.61081946  0.83063324  1
  H+  H288  1  0.37987936  0.39746977  0.15290494  1
  H+  H289  1  0.33680978  0.17679936  0.07183502  1
  H+  H290  1  0.58079580  0.17130893  0.07373807  1
  H+  H291  1  0.41638131  0.57535253  0.88706704  1
  H+  H292  1  0.89060871  0.57618420  0.26580003  1
  H+  H293  1  0.24069687  0.35625091  0.99199022  1
  H+  H294  1  0.16761716  0.08664583  0.56788560  1
  H+  H295  1  0.02825351  0.88121250  0.01227198  1
  H+  H296  1  0.60235423  0.91348356  0.39093844  1
  H+  H297  1  0.08707617  0.41474181  0.42883087  1
  H+  H298  1  0.17287568  0.59170100  0.89426845  1
  H+  H299  1  0.85190639  0.92232721  0.06505543  1
  H+  H300  1  0.83025146  0.66771042  0.43335315  1
  H+  H301  1  0.60596938  0.92914866  0.08017617  1
  H+  H302  1  0.34201914  0.42195226  0.06295331  1
  H+  H303  1  0.67692160  0.83949783  0.55517853  1
  H+  H304  1  0.08440863  0.16413962  0.10541191  1
  H+  H305  1  0.78156014  0.80744293  0.30074592  1
  H+  H306  1  0.82400320  0.64545283  0.73613772  1
  H+  H307  1  0.58092820  0.66282567  0.39840601  1
  H+  H308  1  0.42379415  0.83451772  0.23570801  1
  H+  H309  1  0.34268538  0.18215927  0.44229677  1
  H+  H310  1  0.91585507  0.33114869  0.60236067  1
  H+  H311  1  0.27865797  0.63822469  0.82329589  1
  H+  H312  1  0.16472109  0.33933578  0.57037421  1
  H+  H313  1  -0.00186829  0.87721301  0.66132678  1
  H+  H314  1  0.86205822  0.30219579  0.90759225  1
  H+  H315  1  0.65096382  0.32997825  0.93587068  1
  H+  H316  1  0.88869378  0.32502979  0.93499501  1
  H+  H317  1  0.17884138  0.59603930  0.26529660  1
  H+  H318  1  0.55866146  0.40215164  0.07354155  1
  H+  H319  1  0.45189504  0.08170212  0.87636411  1
  H+  H320  1  0.64924788  0.56568700  0.26554632  1
  H+  H321  1  0.91698857  0.07348979  0.24090889  1
  H+  H322  1  0.81818502  0.41765804  0.77455968  1
  H+  H323  1  0.43027739  0.84942364  0.60572596  1
  H+  H324  1  0.89135492  0.27440966  0.49912233  1
  H+  H325  1  0.10649938  0.92320671  0.44711373  1
  H+  H326  1  0.32447745  0.91704244  0.44369164  1
  H+  H327  1  0.67413849  0.82405934  0.90510858  1
  H+  H328  1  0.07931037  0.91142309  0.75768886  1
  H+  H329  1  0.91333647  0.07949741  0.56097527  1
  H+  H330  1  0.18234148  0.81538570  0.23894026  1
  H+  H331  1  0.83203385  0.15406493  0.10943413  1
  H+  H332  1  0.11663388  0.48988106  0.33691115  1
  H+  H333  1  0.89141415  0.77228931  0.99261591  1
  H+  H334  1  0.84638721  0.92316900  0.74488006  1
  H+  H335  1  0.15624573  0.06626607  0.26206365  1
  H+  H336  1  0.33182808  0.92009444  0.09476435  1
  H+  H337  1  0.57174241  0.41155039  0.40228260  1
  H+  H338  1  0.11323943  0.22937478  0.33185684  1
  H+  H339  1  0.90545221  0.07935958  0.93338478  1
  H+  H340  1  0.64646025  0.33000589  0.27210068  1
  H+  H341  1  0.38146763  0.24022731  0.15857597  1
  H+  H342  1  0.60178824  0.38493309  0.49284623  1
  H+  H343  1  0.12785248  0.43949572  0.75689941  1
  H+  H344  1  0.91757600  0.34077288  0.26579279  1
  H+  H345  1  0.45634967  0.23898013  0.38279186  1
  H+  H346  1  0.10323194  0.40412170  0.08265515  1
  H+  H347  1  0.66837832  0.09350626  0.23770839  1
  H+  H348  1  0.66163804  0.08164239  0.90361702  1
  H+  H349  1  0.19050728  0.33622338  0.89691097  1
  H+  H350  1  0.40907169  0.34730122  0.61460340  1
  H+  H351  1  0.66274956  0.58116547  0.60052192  1
  H+  H352  1  0.41679107  0.33095287  0.89546599  1
  H+  H353  1  0.58204166  0.41559517  0.73507069  1
  H+  H354  1  0.52773417  0.63845598  0.49430916  1
  H+  H355  1  0.21707951  0.24341994  0.70962547  1
  H+  H356  1  0.82444873  0.41096923  0.07839443  1
  H+  H357  1  0.77043056  0.37794904  0.67819969  1
  H+  H358  1  0.89244847  0.82058285  0.23605618  1
  H+  H359  1  0.41057002  0.89523660  0.51413245  1
  H+  H360  1  0.16255713  0.82095351  0.57552948  1
  H+  H361  1  0.66856152  0.81456347  0.25805285  1
  H+  H362  1  0.88550137  0.87181901  0.66832646  1
  H+  H363  1  0.41973731  0.57798154  0.56663417  1
  H+  H364  1  0.17040419  0.58079596  0.56156170  1
  H+  H365  1  0.38627813  0.36186952  0.98993314  1
  H+  H366  1  0.84269666  0.17510568  0.42891153  1
  H+  H367  1  0.66034038  0.56989308  0.93557702  1
  H+  H368  1  0.42736732  0.09415671  0.59876229  1
  H+  H369  1  0.34013562  0.65796088  0.43783181  1
  H+  H370  1  0.64470440  0.07411691  0.56481428  1
  H+  H371  1  0.58251789  0.16126923  0.40132773  1
  H+  H372  1  0.31776118  0.91990568  0.73688797  1
  H+  H373  1  0.06996020  0.64371507  0.73490191  1
  H+  H374  1  0.12317710  0.20375129  0.73558855  1
  H+  H375  1  0.03880420  0.70939172  0.40314744  1
  H+  H376  1  0.09700234  0.68065957  0.09247087  1
  H+  H377  1  0.39033185  0.06936438  0.95740280  1
  H+  H378  1  0.22678656  0.85833793  0.51760095  1
  H+  H379  1  0.33731269  0.41520486  0.39617432  1
  H+  H380  1  0.38656999  0.81686319  0.89410004  1
  H+  H381  1  0.61745304  0.97089186  0.48268891  1
  H+  H382  1  0.57957317  0.65701700  0.06184253  1
  H+  H383  1  0.33314445  0.66468131  0.72809181  1
  O2-  O384  1  0.08781055  0.16661501  0.15093072  1
  O2-  O385  1  0.09083673  0.17831216  0.49186925  1
  O2-  O386  1  0.07523149  0.19036569  0.80198737  1
  O2-  O387  1  0.09496980  0.41273631  0.15561457  1
  O2-  O388  1  0.08576643  0.40783261  0.47389946  1
  O2-  O389  1  0.15942796  0.46181767  0.79575066  1
  O2-  O390  1  0.10814153  0.68334116  0.13833322  1
  O2-  O391  1  0.04370062  0.68230712  0.47697144  1
  O2-  O392  1  0.07300820  0.65689601  0.81362674  1
  O2-  O393  1  0.08579035  0.91755073  0.15517368  1
  O2-  O394  1  0.09182620  0.91940119  0.49100691  1
  O2-  O395  1  0.08321014  0.91227878  0.80232613  1
  O2-  O396  1  0.34630214  0.17824219  0.14732635  1
  O2-  O397  1  0.33629979  0.17695289  0.48697806  1
  O2-  O398  1  0.35152120  0.15606424  0.82291386  1
  O2-  O399  1  0.34286965  0.42196280  0.14134643  1
  O2-  O400  1  0.33665004  0.41990089  0.47637618  1
  O2-  O401  1  0.35019063  0.41722528  0.79225815  1
  O2-  O402  1  0.34033397  0.67011617  0.14108120  1
  O2-  O403  1  0.34199651  0.65644112  0.48264316  1
  O2-  O404  1  0.33878481  0.66743669  0.80699509  1
  O2-  O405  1  0.33756950  0.92216525  0.15568267  1
  O2-  O406  1  0.33097347  0.91767586  0.48865301  1
  O2-  O407  1  0.32908666  0.90949894  0.80765850  1
  O2-  O408  1  0.58016524  0.17219688  0.14695598  1
  O2-  O409  1  0.57380648  0.16429483  0.47750180  1
  O2-  O410  1  0.60343241  0.17567357  0.80708800  1
  O2-  O411  1  0.54035664  0.39719675  0.14869590  1
  O2-  O412  1  0.57374372  0.41819364  0.47906586  1
  O2-  O413  1  0.58968956  0.41411137  0.81513409  1
  O2-  O414  1  0.58087480  0.65377772  0.14026129  1
  O2-  O415  1  0.58669186  0.66863212  0.47601213  1
  O2-  O416  1  0.58451252  0.66125848  0.81209852  1
  O2-  O417  1  0.58355493  0.92484803  0.15689825  1
  O2-  O418  1  0.59556450  0.91297048  0.46416402  1
  O2-  O419  1  0.57984559  0.90087941  0.82772772  1
  O2-  O420  1  0.83324748  0.15662424  0.15501521  1
  O2-  O421  1  0.84388323  0.17775258  0.47391054  1
  O2-  O422  1  0.81092276  0.12365147  0.80662695  1
  O2-  O423  1  0.80198151  0.39040028  0.13603457  1
  O2-  O424  1  0.82734406  0.41720734  0.47395546  1
  O2-  O425  1  0.81879129  0.41669839  0.82039236  1
  O2-  O426  1  0.81170699  0.65158220  0.14508700  1
  O2-  O427  1  0.83846362  0.66878551  0.47840000  1
  O2-  O428  1  0.83032822  0.66342018  0.81947816  1
  O2-  O429  1  0.84421468  0.91629301  0.14536922  1
  O2-  O430  1  0.83935230  0.92092279  0.46328608  1
  O2-  O431  1  0.84506193  0.92208058  0.82426155  1
  O2-  O432  1  0.17934258  0.09066669  0.18708327  1
  O2-  O433  1  0.17067717  0.08818873  0.52248894  1
  O2-  O434  1  0.17917681  0.06504121  0.85614460  1
  O2-  O435  1  0.17911173  0.33439301  0.19040419  1
  O2-  O436  1  0.16390511  0.33237024  0.51839158  1
  O2-  O437  1  0.18701547  0.33723244  0.85149829  1
  O2-  O438  1  0.17768873  0.58528533  0.18315428  1
  O2-  O439  1  0.17712427  0.58304112  0.51673137  1
  O2-  O440  1  0.17635340  0.59624058  0.84958498  1
  O2-  O441  1  0.18184675  0.83687106  0.19672257  1
  O2-  O442  1  0.16525587  0.82981315  0.53060792  1
  O2-  O443  1  0.16177154  0.82656156  0.84840504  1
  O2-  O444  1  0.41460078  0.08278096  0.19018514  1
  O2-  O445  1  0.41324906  0.08603195  0.52247027  1
  O2-  O446  1  0.43367986  0.07753252  0.83430056  1
  O2-  O447  1  0.44797111  0.35393236  0.16995369  1
  O2-  O448  1  0.41515133  0.34352993  0.53241307  1
  O2-  O449  1  0.42254328  0.32761694  0.85040630  1
  O2-  O450  1  0.42139270  0.58561904  0.18601911  1
  O2-  O451  1  0.42186623  0.57921665  0.52160094  1
  O2-  O452  1  0.41787700  0.57645893  0.84191265  1
  O2-  O453  1  0.42111813  0.83593151  0.19008225  1
  O2-  O454  1  0.45772245  0.89379284  0.53685136  1
  O2-  O455  1  0.40355622  0.82365270  0.85101093  1
  O2-  O456  1  0.66773801  0.09683077  0.19174894  1
  O2-  O457  1  0.61165024  0.05252852  0.52448706  1
  O2-  O458  1  0.65252116  0.06887866  0.85950597  1
  O2-  O459  1  0.62945971  0.33226128  0.20206163  1
  O2-  O460  1  0.65646665  0.33310760  0.51429672  1
  O2-  O461  1  0.66150791  0.33346537  0.86912798  1
  O2-  O462  1  0.64747406  0.56077686  0.18635450  1
  O2-  O463  1  0.66910881  0.58503716  0.52060327  1
  O2-  O464  1  0.66497915  0.57721603  0.85698480  1
  O2-  O465  1  0.68020132  0.82531903  0.17226921  1
  O2-  O466  1  0.68349924  0.84011863  0.50850105  1
  O2-  O467  1  0.67087930  0.82334201  0.86004591  1
  O2-  O468  1  0.91993638  0.07536393  0.19536440  1
  O2-  O469  1  0.92171413  0.08670090  0.51600612  1
  O2-  O470  1  0.89586769  0.07310003  0.86941813  1
  O2-  O471  1  0.91193315  0.32838647  0.16523737  1
  O2-  O472  1  0.92233002  0.33580090  0.51547599  1
  O2-  O473  1  0.82772819  0.27757148  0.80306954  1
  O2-  O474  1  0.86358202  0.54816374  0.18595204  1
  O2-  O475  1  0.97038130  0.64712796  0.51883084  1
  O2-  O476  1  0.91421911  0.57923264  0.86518842  1
  O2-  O477  1  0.90630800  0.81900790  0.19212602  1
  O2-  O478  1  0.91640729  0.83499262  0.51848580  1
  O2-  O479  1  0.92599619  0.83667371  0.85130877  1
  O2-  O480  1  0.13233887  0.04671548  0.30421700  1
  O2-  O481  1  0.16002678  0.08031600  0.64526411  1
  O2-  O482  1  0.16798385  0.07428292  0.98395038  1
  O2-  O483  1  0.16981810  0.33941328  0.31120144  1
  O2-  O484  1  0.17051229  0.34844945  0.62803938  1
  O2-  O485  1  0.18095913  0.32154413  0.97494154  1
  O2-  O486  1  0.17700445  0.60462904  0.30966984  1
  O2-  O487  1  0.16486814  0.57562562  0.64282717  1
  O2-  O488  1  0.15941287  0.59171101  0.97926428  1
  O2-  O489  1  0.18946386  0.77158403  0.30703696  1
  O2-  O490  1  0.14756419  0.80726516  0.65322766  1
  O2-  O491  1  0.15948661  0.82348525  0.97394194  1
  O2-  O492  1  0.41743950  0.08008970  0.31259904  1
  O2-  O493  1  0.43178808  0.09863589  0.64433430  1
  O2-  O494  1  0.40224309  0.07777569  1.00085023  1
  O2-  O495  1  0.42257013  0.34071328  0.29732349  1
  O2-  O496  1  0.40825192  0.34031014  0.65964338  1
  O2-  O497  1  0.41279582  0.32776864  0.97466517  1
  O2-  O498  1  0.41503678  0.57750451  0.31102460  1
  O2-  O499  1  0.41705723  0.57870890  0.65265478  1
  O2-  O500  1  0.41696930  0.58273878  0.97131593  1
  O2-  O501  1  0.43842865  0.83580563  0.31235028  1
  O2-  O502  1  0.41555671  0.83094056  0.64935204  1
  O2-  O503  1  0.37129741  0.82500096  0.98031557  1
  O2-  O504  1  0.67271830  0.08422483  0.31195323  1
  O2-  O505  1  0.67863477  0.10474576  0.62938047  1
  O2-  O506  1  0.67545546  0.09641514  0.98544756  1
  O2-  O507  1  0.65777782  0.33044635  0.31776223  1
  O2-  O508  1  0.69189904  0.39399289  0.62859831  1
  O2-  O509  1  0.64442190  0.32583834  0.98383945  1
  O2-  O510  1  0.65054003  0.56938469  0.31100016  1
  O2-  O511  1  0.66082920  0.58185946  0.64584134  1
  O2-  O512  1  0.66008602  0.56889914  0.98126241  1
  O2-  O513  1  0.67795178  0.81795762  0.30224969  1
  O2-  O514  1  0.65864096  0.83146139  0.62416214  1
  O2-  O515  1  0.68533585  0.82968884  0.98702241  1
  O2-  O516  1  0.91530257  0.07974516  0.31955091  1
  O2-  O517  1  0.91170597  0.07794845  0.63941442  1
  O2-  O518  1  0.91006143  0.08120734  0.98278646  1
  O2-  O519  1  0.91832351  0.34085395  0.31022204  1
  O2-  O520  1  0.91847816  0.32952859  0.64746448  1
  O2-  O521  1  0.92920751  0.33742677  1.04209117  1
  O2-  O522  1  0.89861702  0.58474565  0.31024018  1
  O2-  O523  1  0.90019893  0.55091785  0.65191796  1
  O2-  O524  1  0.91356372  0.57641015  0.98658213  1
  O2-  O525  1  0.83854661  0.81279866  0.30664169  1
  O2-  O526  1  0.91578015  0.84228970  0.64833522  1
  O2-  O527  1  0.92777939  0.83256366  0.97878241  1
  O2-  O528  1  0.08493201  0.15982861  0.02576690  1
  O2-  O529  1  0.07909239  0.16800437  0.34370294  1
  O2-  O530  1  0.15714674  0.21522051  0.69669355  1
  O2-  O531  1  0.10408645  0.40272252  0.03640700  1
  O2-  O532  1  0.08939650  0.42844304  0.34916834  1
  O2-  O533  1  0.08937127  0.41554356  0.68119627  1
  O2-  O534  1  0.08360195  0.67401658  0.02084014  1
  O2-  O535  1  0.04154706  0.72760279  0.35988349  1
  O2-  O536  1  0.07055055  0.64002626  0.68959123  1
  O2-  O537  1  0.08766668  0.90972447  0.02989224  1
  O2-  O538  1  0.15232970  0.92991911  0.37277659  1
  O2-  O539  1  0.06990727  0.90649484  0.66905760  1
  O2-  O540  1  0.33416929  0.17001112  0.02625201  1
  O2-  O541  1  0.39826536  0.20662453  0.36629460  1
  O2-  O542  1  0.33230047  0.17260657  0.67615425  1
  O2-  O543  1  0.34115410  0.41905370  0.01745076  1
  O2-  O544  1  0.33434416  0.41276528  0.35074986  1
  O2-  O545  1  0.34461058  0.42420674  0.72557236  1
  O2-  O546  1  0.32910593  0.66932196  0.01812104  1
  O2-  O547  1  0.33771251  0.66372312  0.35322400  1
  O2-  O548  1  0.33124848  0.66166408  0.68274074  1
  O2-  O549  1  0.32483958  0.92044709  0.04493142  1
  O2-  O550  1  0.30032901  0.92385707  0.36507079  1
  O2-  O551  1  0.30707239  0.93114921  0.69321912  1
  O2-  O552  1  0.57937215  0.17048873  0.02725469  1
  O2-  O553  1  0.58600873  0.16040289  0.35561378  1
  O2-  O554  1  0.60714448  0.19051236  0.67977265  1
  O2-  O555  1  0.57133757  0.40522446  0.02779006  1
  O2-  O556  1  0.57254236  0.40832266  0.35667367  1
  O2-  O557  1  0.57727173  0.41733333  0.68997287  1
  O2-  O558  1  0.58127149  0.65963233  0.01635566  1
  O2-  O559  1  0.57813741  0.66060815  0.35269479  1
  O2-  O560  1  0.58713552  0.67086837  0.68982147  1
  O2-  O561  1  0.61782321  0.93245454  0.03549272  1
  O2-  O562  1  0.60185660  0.91383431  0.34456643  1
  O2-  O563  1  0.58608108  0.90092344  0.69643067  1
  O2-  O564  1  0.84027020  0.16753299  0.03145315  1
  O2-  O565  1  0.84194713  0.17708242  0.34673960  1
  O2-  O566  1  0.83845031  0.15754253  0.68611446  1
  O2-  O567  1  0.84439939  0.42038450  0.02926087  1
  O2-  O568  1  0.82534152  0.41883606  0.35085241  1
  O2-  O569  1  0.82693577  0.40056604  0.69802254  1
  O2-  O570  1  0.82890834  0.65975416  0.01929482  1
  O2-  O571  1  0.81157697  0.66147217  0.35523902  1
  O2-  O572  1  0.82371708  0.63430753  0.69220572  1
  O2-  O573  1  0.85019507  0.91988512  0.01981337  1
  O2-  O574  1  0.83373910  0.92993008  0.39707454  1
  O2-  O575  1  0.84264709  0.91661445  0.69986859  1
