# generated using pymatgen
data_H2O
_symmetry_space_group_name_H-M   'P 1'
_cell_length_a   17.99132578
_cell_length_b   17.99667107
_cell_length_c   21.98319249
_cell_angle_alpha   89.98371711
_cell_angle_beta   90.01557714
_cell_angle_gamma   119.96573071
_symmetry_Int_Tables_number   1
_chemical_formula_structural   H2O
_chemical_formula_sum   'H384 O192'
_cell_volume   6166.32748503
_cell_formula_units_Z   192
loop_
 _symmetry_equiv_pos_site_id
 _symmetry_equiv_pos_as_xyz
  1  'x, y, z'
loop_
 _atom_type_symbol
 _atom_type_oxidation_number
  H+  1.0
  O2-  -2.0
loop_
 _atom_site_type_symbol
 _atom_site_label
 _atom_site_symmetry_multiplicity
 _atom_site_fract_x
 _atom_site_fract_y
 _atom_site_fract_z
 _atom_site_occupancy
  H+  H0  1  0.62292311  0.82490352  0.98657764  1
  H+  H1  1  0.87631421  0.48387230  0.81920021  1
  H+  H2  1  0.84605939  0.33741782  0.65774744  1
  H+  H3  1  0.56410860  0.66936664  0.74493036  1
  H+  H4  1  0.13279374  0.37463880  0.17210934  1
  H+  H5  1  0.88791047  0.08838459  0.99578540  1
  H+  H6  1  0.34798790  0.62975049  0.65756728  1
  H+  H7  1  0.59680984  0.25222763  0.50992303  1
  H+  H8  1  0.66852784  1.06203075  0.32761801  1
  H+  H9  1  0.38436095  0.37224847  0.17433667  1
  H+  H10  1  0.73830910  0.61111940  0.83045191  1
  H+  H11  1  0.99402272  0.39753111  0.20784071  1
  H+  H12  1  0.03890353  0.64800796  0.81097820  1
  H+  H13  1  0.11113883  0.83469380  0.33595011  1
  H+  H14  1  0.57591724  0.93244350  0.33220768  1
  H+  H15  1  0.65353891  1.03304741  0.00916815  1
  H+  H16  1  0.22152276  0.64204489  0.64351886  1
  H+  H17  1  0.39271511  0.53739225  0.31772945  1
  H+  H18  1  0.90025115  0.01340582  0.84769035  1
  H+  H19  1  0.86987885  0.47112351  0.47602000  1
  H+  H20  1  0.86394384  0.88081595  0.49327757  1
  H+  H21  1  0.13627932  0.69767658  0.65472807  1
  H+  H22  1  0.82999737  0.70040838  0.99161204  1
  H+  H23  1  0.44245656  0.39298431  0.43747601  1
  H+  H24  1  0.11107622  -0.04599903  0.49361066  1
  H+  H25  1  0.26504358  0.39219615  0.31183037  1
  H+  H26  1  0.43570702  0.30520891  0.48779403  1
  H+  H27  1  0.87219844  0.28655563  0.01212221  1
  H+  H28  1  0.09877174  0.71627507  0.16043859  1
  H+  H29  1  0.13949081  0.28754319  0.17020520  1
  H+  H30  1  0.35338247  0.21140539  0.68955353  1
  H+  H31  1  0.43890464  0.85039589  0.32858010  1
  H+  H32  1  0.50633602  0.12124015  0.33609443  1
  H+  H33  1  0.74988987  0.62526719  0.50235761  1
  H+  H34  1  0.88037571  0.85802784  0.17936538  1
  H+  H35  1  0.87485527  0.03615561  0.32808067  1
  H+  H36  1  0.27146959  0.39660788  0.16325583  1
  H+  H37  1  0.92343630  0.07639564  0.60099387  1
  H+  H38  1  0.37746498  0.35175537  0.31474612  1
  H+  H39  1  0.36011896  0.63527882  0.34870191  1
  H+  H40  1  0.52236978  0.62630142  0.83748393  1
  H+  H41  1  0.61768004  0.64239326  0.16007947  1
  H+  H42  1  0.62211820  0.38967491  0.83332819  1
  H+  H43  1  0.16031603  0.81636665  0.57642983  1
  H+  H44  1  0.74623042  0.12079167  -0.01014510  1
  H+  H45  1  0.37153149  0.24788398  0.15764573  1
  H+  H46  1  0.60458902  0.16794546  0.06382845  1
  H+  H47  1  0.42536679  0.31362206  0.55691809  1
  H+  H48  1  0.57576395  0.16448496  0.74717039  1
  H+  H49  1  0.23486342  0.85689875  -0.00024951  1
  H+  H50  1  0.53507083  0.90585549  0.16991181  1
  H+  H51  1  0.09833573  0.22658931  0.32909973  1
  H+  H52  1  0.61480261  0.13574686  0.15385515  1
  H+  H53  1  0.55438230  0.42299837  0.47748567  1
  H+  H54  1  0.88282188  0.10370689  0.50674419  1
  H+  H55  1  0.11873442  0.08256590  0.49251071  1
  H+  H56  1  0.61447465  0.62910859  0.83141802  1
  H+  H57  1  0.87040299  -0.03140161  0.67165363  1
  H+  H58  1  0.36901108  0.72349406  0.80830416  1
  H+  H59  1  0.11710202  0.96182470  0.66334658  1
  H+  H60  1  0.83650023  0.19829537  0.82279953  1
  H+  H61  1  0.11215140  0.48081311  0.00182825  1
  H+  H62  1  0.12365941  0.71400482  1.00851178  1
  H+  H63  1  0.34836597  0.71801912  0.34569391  1
  H+  H64  1  0.64671939  0.75045034  0.99063053  1
  H+  H65  1  0.12200528  0.44578309  0.67201736  1
  H+  H66  1  0.91783101  0.84546338  0.26586004  1
  H+  H67  1  0.39380096  0.55454971  0.49539337  1
  H+  H68  1  0.76752522  0.87241663  1.00860801  1
  H+  H69  1  0.15982122  0.33133571  0.90275432  1
  H+  H70  1  0.63708204  0.77256033  0.66004711  1
  H+  H71  1  0.23901952  0.10828604  0.19239184  1
  H+  H72  1  0.06949777  0.41228739  0.39892879  1
  H+  H73  1  0.53289028  0.64139396  0.34386129  1
  H+  H74  1  0.86962277  0.40806561  1.07241340  1
  H+  H75  1  0.65141294  0.27760730  0.83849639  1
  H+  H76  1  0.46652571  0.89335869  0.96241965  1
  H+  H77  1  0.38806412  0.77011774  1.01606092  1
  H+  H78  1  0.78019166  0.64237372  0.16582797  1
  H+  H79  1  0.37801274  0.51771395  0.65570462  1
  H+  H80  1  0.52426822  0.72126028  0.71761667  1
  H+  H81  1  0.11943345  0.35778346  -0.00241338  1
  H+  H82  1  0.17052728  0.00404403  0.81654400  1
  H+  H83  1  0.13855716  0.81502619  0.23136475  1
  H+  H84  1  0.27091239  0.38388016  0.83364955  1
  H+  H85  1  0.34773200  0.95882919  0.50027780  1
  H+  H86  1  0.62388394  0.27358417  0.31838297  1
  H+  H87  1  0.10988677  0.47595574  0.34252523  1
  H+  H88  1  0.64218584  0.04824757  0.18488095  1
  H+  H89  1  0.11038345  0.84529796  0.16800475  1
  H+  H90  1  0.97112628  0.60112611  0.47986175  1
  H+  H91  1  0.12335838  0.27019085  -0.00162791  1
  H+  H92  1  0.60990639  0.87758999  0.82630366  1
  H+  H93  1  0.40755543  0.12933375  0.85494504  1
  H+  H94  1  0.64219420  0.64555101  0.48988451  1
  H+  H95  1  0.39618852  0.25804293  0.84630794  1
  H+  H96  1  0.84605814  0.83729972  0.84076244  1
  H+  H97  1  0.37392695  0.74929400  0.17590838  1
  H+  H98  1  0.64949714  0.52698581  0.84231091  1
  H+  H99  1  0.15672930  0.62921935  0.54757065  1
  H+  H100  1  0.63522691  0.76559478  0.83751833  1
  H+  H101  1  0.38808855  0.38160297  0.99735959  1
  H+  H102  1  0.83528741  0.16450444  0.43492515  1
  H+  H103  1  0.14837669  1.00748020  0.33524736  1
  H+  H104  1  0.41418847  0.30783736  -0.00227210  1
  H+  H105  1  0.84033127  0.13476592  0.16164385  1
  H+  H106  1  0.44937121  0.74931501  0.20775980  1
  H+  H107  1  0.22467370  0.64538887  0.49681358  1
  H+  H108  1  0.97315127  0.60082657  0.16993259  1
  H+  H109  1  0.63505133  0.52662977  0.31624951  1
  H+  H110  1  0.50894838  0.11714968  0.49279722  1
  H+  H111  1  0.88310329  0.51777339  0.15906647  1
  H+  H112  1  0.63038187  0.36205911  0.30977357  1
  H+  H113  1  0.62123161  0.00812858  0.84342237  1
  H+  H114  1  0.13891852  0.36706225  0.84255878  1
  H+  H115  1  0.24831163  0.42243462  0.49564869  1
  H+  H116  1  0.27177450  0.16768707  -0.00774458  1
  H+  H117  1  -0.00679335  0.36851513  0.31104229  1
  H+  H118  1  0.47374705  0.85525432  0.82560499  1
  H+  H119  1  0.33403724  0.96067510  0.34306444  1
  H+  H120  1  0.52871536  0.13857829  0.83375101  1
  H+  H121  1  0.60469868  0.66147172  0.06207547  1
  H+  H122  1  0.13312310  0.61847330  0.18309777  1
  H+  H123  1  0.50874300  0.66095967  0.18279885  1
  H+  H124  1  0.91858471  0.20466781  0.02646857  1
  H+  H125  1  0.86788159  0.21710002  0.49655301  1
  H+  H126  1  0.73235268  0.09303225  0.66320615  1
  H+  H127  1  0.88062523  0.69377996  0.31877795  1
  H+  H128  1  0.47051366  0.35636311  0.69769195  1
  H+  H129  1  0.86977895  0.72089693  0.66424551  1
  H+  H130  1  0.76662524  0.15705281  0.15631015  1
  H+  H131  1  0.87126887  0.45455604  0.32600044  1
  H+  H132  1  0.51107994  0.12964684  0.68094692  1
  H+  H133  1  0.72986552  0.85594593  0.50206772  1
  H+  H134  1  0.77060923  0.88737373  0.82300239  1
  H+  H135  1  0.46153239  0.61112585  0.66012787  1
  H+  H136  1  0.51408311  0.40089860  0.14665393  1
  H+  H137  1  0.60763796  0.13914327  0.49221366  1
  H+  H138  1  0.53160788  0.88024332  0.49068232  1
  H+  H139  1  0.15703711  0.33801399  0.26369270  1
  H+  H140  1  0.58531954  0.91011534  0.76544936  1
  H+  H141  1  0.01767513  0.87515757  0.34301212  1
  H+  H142  1  0.38482162  0.10190801  0.66055129  1
  H+  H143  1  0.60740667  0.47147058  0.67667899  1
  H+  H144  1  0.10583088  0.00294872  0.99419895  1
  H+  H145  1  0.34865367  0.18337203  0.50139865  1
  H+  H146  1  0.15852487  0.11748033  0.18267670  1
  H+  H147  1  0.11268472  0.42819898  0.49138921  1
  H+  H148  1  0.97995409  0.61134657  0.98835022  1
  H+  H149  1  0.39815099  0.35264060  0.43742729  1
  H+  H150  1  0.01123905  0.38576711  0.49260201  1
  H+  H151  1  0.87479505  0.91215780  0.34027614  1
  H+  H152  1  0.40062140  0.33003633  0.74855113  1
  H+  H153  1  0.87168966  0.79864646  0.32859387  1
  H+  H154  1  0.10987641  0.72928577  0.34422259  1
  H+  H155  1  0.51562121  0.43350769  0.04403881  1
  H+  H156  1  0.24140112  0.87338960  0.16337633  1
  H+  H157  1  0.88249101  0.35148587  0.50377729  1
  H+  H158  1  0.04484894  0.42362501  0.84253578  1
  H+  H159  1  -0.00797805  0.09906056  0.85102816  1
  H+  H160  1  0.82773875  0.13987739  0.73665618  1
  H+  H161  1  0.87201851  0.63321763  0.48263065  1
  H+  H162  1  0.84988014  0.96768007  0.16348581  1
  H+  H163  1  0.52153299  0.90855077  0.02308841  1
  H+  H164  1  0.64309527  0.60989459  0.65339066  1
  H+  H165  1  0.06023677  0.14020325  0.16667987  1
  H+  H166  1  0.11727244  0.62296133  0.00958865  1
  H+  H167  1  0.36020136  -0.00424183  0.82465009  1
  H+  H168  1  0.33590210  0.47543109  0.00534968  1
  H+  H169  1  0.40057659  0.03111036  1.00236053  1
  H+  H170  1  0.41928736  0.33602072  0.22879512  1
  H+  H171  1  0.23876599  0.56229563  0.96258809  1
  H+  H172  1  0.27912054  0.87846205  0.67199993  1
  H+  H173  1  0.02219244  0.12035432  0.67206682  1
  H+  H174  1  0.93778204  0.11079005  0.17488639  1
  H+  H175  1  0.32134106  0.66300314  0.09162656  1
  H+  H176  1  0.38294908  0.26525275  0.32378126  1
  H+  H177  1  0.87130504  0.84174090  1.00030607  1
  H+  H178  1  0.12634595  0.56856640  0.65012536  1
  H+  H179  1  0.39798215  0.38083019  0.84926593  1
  H+  H180  1  0.22282618  0.84932467  0.51288200  1
  H+  H181  1  0.25936486  0.38191942  0.01100444  1
  H+  H182  1  0.11512853  0.32698878  0.64545860  1
  H+  H183  1  0.72919138  0.60894480  0.31732427  1
  H+  H184  1  0.64009814  0.87751898  0.17852323  1
  H+  H185  1  0.76303311  0.38725819  0.66951286  1
  H+  H186  1  0.62162238  0.63921900  0.33583418  1
  H+  H187  1  0.90181035  0.61422944  0.82879372  1
  H+  H188  1  0.07702835  0.81129133  0.01290698  1
  H+  H189  1  0.64793568  0.90862624  0.33914061  1
  H+  H190  1  0.08485417  0.95486725  -0.00351937  1
  H+  H191  1  0.87958045  0.01247768  0.50919878  1
  H+  H192  1  0.11474050  0.62962365  0.35238503  1
  H+  H193  1  1.00463855  0.10888045  0.48503697  1
  H+  H194  1  0.63559419  0.85071033  0.50026286  1
  H+  H195  1  0.64633472  0.77975530  0.32751670  1
  H+  H196  1  -0.01540124  0.80505038  0.00985368  1
  H+  H197  1  0.37386228  0.09960943  0.33202622  1
  H+  H198  1  0.11347883  0.65327982  0.45024223  1
  H+  H199  1  0.78620455  0.17216812  0.34768137  1
  H+  H200  1  0.33783791  0.43141014  0.26262496  1
  H+  H201  1  0.78124746  0.38296538  0.47100718  1
  H+  H202  1  0.49549968  0.11336591  0.99714239  1
  H+  H203  1  0.16171394  0.12536346  0.83849811  1
  H+  H204  1  0.85656777  0.71217486  0.81791055  1
  H+  H205  1  0.88398957  0.51569251  0.63565443  1
  H+  H206  1  0.86048511  -0.04128463  1.01083348  1
  H+  H207  1  0.78083397  0.63193518  0.66495768  1
  H+  H208  1  0.71285942  0.59499614  0.93225572  1
  H+  H209  1  0.38721468  0.61112862  0.83131198  1
  H+  H210  1  0.78626195  0.24330841  0.63576229  1
  H+  H211  1  0.56481768  0.15871757  0.39530135  1
  H+  H212  1  1.01245349  0.85161953  0.85597646  1
  H+  H213  1  0.38279225  0.52100416  0.84120363  1
  H+  H214  1  0.63777755  0.53250753  0.16157999  1
  H+  H215  1  0.37774622  0.64746845  0.50285266  1
  H+  H216  1  0.78089734  0.88019768  0.67040630  1
  H+  H217  1  0.89040405  0.60610700  0.63558685  1
  H+  H218  1  0.61852328  0.88344057  0.66927907  1
  H+  H219  1  0.20447254  0.84046355  0.33482994  1
  H+  H220  1  0.03120770  0.12570308  0.01288345  1
  H+  H221  1  0.15989361  0.33896678  0.50372687  1
  H+  H222  1  0.60036742  0.22913568  0.68220845  1
  H+  H223  1  0.65329842  0.63879088  0.01046342  1
  H+  H224  1  0.67352878  0.08228148  0.60609296  1
  H+  H225  1  1.01518153  0.40685552  1.01151856  1
  H+  H226  1  0.36299076  0.72544494  0.66138264  1
  H+  H227  1  0.12025657  0.22700307  0.82885054  1
  H+  H228  1  0.27782494  0.90000985  0.82655913  1
  H+  H229  1  0.34795509  0.38094852  0.68248494  1
  H+  H230  1  0.11597585  0.20340167  0.67100123  1
  H+  H231  1  0.73664331  0.37318770  0.99803264  1
  H+  H232  1  0.38359184  0.90749062  0.02247200  1
  H+  H233  1  0.09613209  0.19008549  0.47615086  1
  H+  H234  1  0.64433103  0.93087426  0.03892951  1
  H+  H235  1  0.54188604  0.29083975  0.53574215  1
  H+  H236  1  0.87055806  0.39212741  0.81650096  1
  H+  H237  1  0.02108426  0.86632675  0.49809823  1
  H+  H238  1  0.77967127  0.89716801  0.34103659  1
  H+  H239  1  0.60442888  0.67112008  0.42741042  1
  H+  H240  1  0.65292768  0.23738831  0.99955300  1
  H+  H241  1  0.64013393  0.13336330  0.32836208  1
  H+  H242  1  0.63638847  0.74114077  0.49154329  1
  H+  H243  1  0.35218652  1.01171000  0.17550484  1
  H+  H244  1  0.84591152  0.50319578  1.02322058  1
  H+  H245  1  0.74078877  0.13559658  0.50782008  1
  H+  H246  1  0.85845883  0.60114145  0.33192526  1
  H+  H247  1  0.89508375  0.31544645  0.56709302  1
  H+  H248  1  0.12734208  0.09122961  0.65339855  1
  H+  H249  1  0.13301970  0.36666822  0.32672010  1
  H+  H250  1  0.71660074  0.19460772  0.54440672  1
  H+  H251  1  0.78402475  0.75055461  0.87398087  1
  H+  H252  1  0.15578677  0.86350759  0.84694752  1
  H+  H253  1  0.61647614  0.97108776  0.67142896  1
  H+  H254  1  0.64803236  0.13966197  1.00085181  1
  H+  H255  1  0.03043546  0.88896787  0.87752693  1
  H+  H256  1  0.95485545  0.31039581  0.82134084  1
  H+  H257  1  0.38802437  0.86447901  0.50668096  1
  H+  H258  1  0.48431054  0.14110280  0.16685917  1
  H+  H259  1  0.86429940  0.15617207  0.34364297  1
  H+  H260  1  0.26505798  0.39310623  0.67521387  1
  H+  H261  1  0.73848154  0.36871100  0.83397358  1
  H+  H262  1  0.37051447  0.08374684  0.50731816  1
  H+  H263  1  0.21854316  0.09787424  0.64744145  1
  H+  H264  1  0.13447661  0.49841168  0.82542184  1
  H+  H265  1  0.62029106  0.39129830  0.48679452  1
  H+  H266  1  0.37632754  0.74744899  0.49752751  1
  H+  H267  1  0.51821102  0.38980860  0.32919791  1
  H+  H268  1  0.96956663  0.58460123  0.32055548  1
  H+  H269  1  0.85871699  0.20163336  0.67784642  1
  H+  H270  1  0.15430098  0.62993862  0.82435128  1
  H+  H271  1  0.89132141  0.76989612  0.50362809  1
  H+  H272  1  0.53646139  0.39809134  0.83732805  1
  H+  H273  1  0.22192779  0.61514624  0.34096051  1
  H+  H274  1  0.33124012  0.87708848  0.16746119  1
  H+  H275  1  0.98174052  0.85464400  0.66107990  1
  H+  H276  1  0.22449516  0.96280328  0.79025728  1
  H+  H277  1  0.36651933  0.61962992  -0.01246289  1
  H+  H278  1  0.10350928  0.69924980  0.75551101  1
  H+  H279  1  0.89422133  0.85825466  0.66095111  1
  H+  H280  1  0.74988646  0.11065906  0.82292018  1
  H+  H281  1  0.88658166  0.36831312  0.32176355  1
  H+  H282  1  0.89496900  0.10205618  0.66370907  1
  H+  H283  1  0.48377828  0.86081164  0.65801589  1
  H+  H284  1  0.35505479  0.10241480  0.17691712  1
  H+  H285  1  0.14975843  0.77287433  0.84053957  1
  H+  H286  1  0.86690522  0.63847346  0.17060114  1
  H+  H287  1  0.62483524  0.73531565  0.15595541  1
  H+  H288  1  0.40800054  0.62803115  0.18066866  1
  H+  H289  1  0.96305652  0.12404530  0.31750677  1
  H+  H290  1  0.82496173  0.90526851  0.10510567  1
  H+  H291  1  0.41098246  0.59322197  0.56455895  1
  H+  H292  1  0.32879078  0.47108550  0.40551589  1
  H+  H293  1  0.09143928  0.16252555  0.77169286  1
  H+  H294  1  0.92768219  0.06309982  0.93938880  1
  H+  H295  1  0.39597760  0.82333444  0.87231267  1
  H+  H296  1  0.43127626  0.40905547  0.58957285  1
  H+  H297  1  0.13342011  0.15640290  0.00873162  1
  H+  H298  1  0.13644989  0.85202445  0.66318959  1
  H+  H299  1  0.39115701  0.06273614  0.27167774  1
  H+  H300  1  0.37120232  0.57392510  0.92643869  1
  H+  H301  1  0.34088493  0.67859982  0.43726705  1
  H+  H302  1  0.37977595  0.19799350  0.06323740  1
  H+  H303  1  0.83958067  0.34470294  0.98239663  1
  H+  H304  1  0.59941025  0.91778452  0.43577204  1
  H+  H305  1  0.08333418  0.46112049  0.73064444  1
  H+  H306  1  0.32912342  0.92394154  0.07222038  1
  H+  H307  1  0.33316948  0.65967405  0.75100160  1
  H+  H308  1  0.17174709  0.07080192  0.27907010  1
  H+  H309  1  0.70221005  0.33385711  0.92980532  1
  H+  H310  1  0.38921902  0.01463421  0.66209489  1
  H+  H311  1  0.67269742  0.57990924  0.59508756  1
  H+  H312  1  0.43166507  0.08478266  0.90810361  1
  H+  H313  1  0.29471709  0.68985162  -0.00008374  1
  H+  H314  1  0.07449998  0.89029786  0.40392298  1
  H+  H315  1  0.65986013  0.07177616  0.90189430  1
  H+  H316  1  0.42487565  0.83964198  0.56577195  1
  H+  H317  1  0.25689779  0.13889819  0.84110521  1
  H+  H318  1  0.84396832  0.66599474  0.42493636  1
  H+  H319  1  0.91308229  0.55441841  0.25846853  1
  H+  H320  1  0.88470703  0.77008265  0.18529588  1
  H+  H321  1  0.11454775  0.48985839  0.16854686  1
  H+  H322  1  0.88662041  0.80922435  0.93628980  1
  H+  H323  1  0.22068088  0.61577496  0.17902123  1
  H+  H324  1  0.91999906  0.31361459  0.88666680  1
  H+  H325  1  0.25455444  0.10340539  0.48886348  1
  H+  H326  1  0.84131765  0.17557914  0.07464385  1
  H+  H327  1  0.33106474  0.87040742  0.34164782  1
  H+  H328  1  0.93488641  0.58623378  0.88752569  1
  H+  H329  1  0.67526925  0.12027713  0.23729631  1
  H+  H330  1  0.38401067  0.37664391  0.58551729  1
  H+  H331  1  0.17708294  0.82181782  0.93988244  1
  H+  H332  1  0.66765603  0.82438808  0.89598687  1
  H+  H333  1  0.01454387  0.87084765  0.16019041  1
  H+  H334  1  0.89332634  0.61397604  0.97541479  1
  H+  H335  1  0.40390669  0.16460079  1.00398675  1
  H+  H336  1  0.24239441  0.62553843  0.82405571  1
  H+  H337  1  0.91769230  0.57255994  0.54454408  1
  H+  H338  1  0.11156868  0.92062200  0.72797844  1
  H+  H339  1  0.18080667  0.38927507  0.59698918  1
  H+  H340  1  0.67039072  0.82359682  0.59705404  1
  H+  H341  1  0.84325913  0.65927671  0.75525833  1
  H+  H342  1  0.72335235  0.86647144  0.17457613  1
  H+  H343  1  0.66651024  0.58460692  0.22498208  1
  H+  H344  1  0.83531257  0.91271410  0.76622858  1
  H+  H345  1  0.18297637  0.58534169  0.91961215  1
  H+  H346  1  0.83547742  0.91669080  0.43524985  1
  H+  H347  1  0.07855353  0.43219461  0.10805092  1
  H+  H348  1  0.06554173  0.15159496  0.37810999  1
  H+  H349  1  0.60052014  0.95260207  0.11438250  1
  H+  H350  1  0.43524331  0.36377002  0.91164725  1
  H+  H351  1  0.67200365  0.83761237  0.26654961  1
  H+  H352  1  0.43788313  0.62132219  0.27644796  1
  H+  H353  1  0.30110359  0.12440778  0.72590728  1
  H+  H354  1  0.41027672  0.06571812  0.56782672  1
  H+  H355  1  0.16613962  0.59464494  0.27883696  1
  H+  H356  1  0.62183231  0.35648043  0.66824217  1
  H+  H357  1  0.31114543  0.90050952  0.43976881  1
  H+  H358  1  0.28880932  0.18199216  0.12029205  1
  H+  H359  1  0.15196452  0.06242281  0.55540973  1
  H+  H360  1  0.91955766  0.82743552  0.56499548  1
  H+  H361  1  0.88773948  0.07812921  0.23782678  1
  H+  H362  1  0.39522000  0.86253004  0.65977164  1
  H+  H363  1  0.10217379  0.17360550  0.10143877  1
  H+  H364  1  0.59022925  0.42189934  0.74132830  1
  H+  H365  1  0.32641815  0.41654427  0.77249010  1
  H+  H366  1  0.33524041  0.42693125  0.10771340  1
  H+  H367  1  0.29138533  0.57311548  0.12160982  1
  H+  H368  1  0.85067645  0.39581397  0.38859598  1
  H+  H369  1  0.39432159  0.80514227  0.26716149  1
  H+  H370  1  0.61279424  0.12987956  0.82841020  1
  H+  H371  1  0.12707987  0.84771161  0.51251450  1
  H+  H372  1  0.04704927  0.85187158  0.09730292  1
  H+  H373  1  0.27369529  0.12766224  0.34149687  1
  H+  H374  1  0.58995306  0.42297428  0.38233932  1
  H+  H375  1  0.36778902  0.43106888  0.44829675  1
  H+  H376  1  0.63569698  0.31600594  0.60720467  1
  H+  H377  1  0.33461219  0.15890941  0.39934590  1
  H+  H378  1  0.66221708  0.53702123  0.49906084  1
  H+  H379  1  0.07871016  0.65447728  0.10217746  1
  H+  H380  1  0.40402771  0.21190706  0.78788938  1
  H+  H381  1  0.20845545  0.13094812  0.93557268  1
  H+  H382  1  0.33525012  0.92142864  0.73059314  1
  H+  H383  1  0.83151281  0.42153665  0.72365019  1
  O2-  O384  1  0.11308608  0.18239304  0.14702712  1
  O2-  O385  1  0.06252240  0.13001200  0.46451134  1
  O2-  O386  1  0.09791193  0.16612203  0.81648093  1
  O2-  O387  1  0.08323899  0.42967774  0.15292599  1
  O2-  O388  1  0.06388086  0.42537004  0.46949192  1
  O2-  O389  1  0.09468410  0.43474095  0.81799319  1
  O2-  O390  1  0.07531791  0.65481254  0.14757929  1
  O2-  O391  1  0.06831284  0.66406263  0.42960914  1
  O2-  O392  1  0.10073386  0.68234041  0.79871962  1
  O2-  O393  1  0.06705759  0.88299958  0.13759283  1
  O2-  O394  1  0.08231682  0.89088606  0.48334418  1
  O2-  O395  1  0.16509808  0.95288772  0.79438302  1
  O2-  O396  1  0.33972531  0.18686582  0.13985912  1
  O2-  O397  1  0.31722957  0.12929729  0.47842747  1
  O2-  O398  1  0.37408006  0.19922243  0.82675670  1
  O2-  O399  1  0.33372923  0.42553439  0.15297347  1
  O2-  O400  1  0.33885815  0.46527366  0.44857738  1
  O2-  O401  1  0.33122605  0.41466819  0.81751193  1
  O2-  O402  1  0.30854816  0.63226900  0.13212539  1
  O2-  O403  1  0.34402422  0.68327843  0.48368260  1
  O2-  O404  1  0.33904852  0.66083540  0.79641189  1
  O2-  O405  1  0.30422242  0.90738056  0.14965641  1
  O2-  O406  1  0.31471451  0.89743491  0.48509436  1
  O2-  O407  1  0.31576273  0.94861128  0.79913650  1
  O2-  O408  1  0.57489102  0.14030072  0.12161631  1
  O2-  O409  1  0.56761883  0.15853362  0.47731756  1
  O2-  O410  1  0.58706910  0.16539806  0.81359804  1
  O2-  O411  1  0.56821206  0.43493134  0.12262773  1
  O2-  O412  1  0.61252887  0.43696702  0.46634771  1
  O2-  O413  1  0.59409851  0.42185568  0.81753704  1
  O2-  O414  1  0.58832790  0.67408260  0.14445644  1
  O2-  O415  1  0.60985703  0.67480516  0.47406785  1
  O2-  O416  1  0.58076142  0.65694709  0.81842183  1
  O2-  O417  1  0.59606940  0.94356722  0.16090030  1
  O2-  O418  1  0.59184696  0.90052504  0.47908097  1
  O2-  O419  1  0.57964257  0.90786397  0.81089520  1
  O2-  O420  1  0.82505681  0.17401863  0.14057255  1
  O2-  O421  1  0.83408937  0.15672959  0.48154522  1
  O2-  O422  1  0.80962084  0.13971297  0.80686849  1
  O2-  O423  1  0.84363579  0.43696711  0.09504010  1
  O2-  O424  1  0.84233266  0.40856111  0.46232560  1
  O2-  O425  1  0.84103232  0.42313749  0.80348905  1
  O2-  O426  1  0.84368438  0.67697225  0.16230637  1
  O2-  O427  1  0.84535845  0.66877551  0.47008241  1
  O2-  O428  1  0.84060283  0.65478615  0.80085256  1
  O2-  O429  1  0.82379643  0.90656378  0.15074112  1
  O2-  O430  1  0.83091346  0.90942760  0.48073394  1
  O2-  O431  1  0.83227440  0.91240785  0.81169444  1
  O2-  O432  1  0.17799081  0.08111166  0.20241773  1
  O2-  O433  1  0.15232928  0.05696351  0.51011288  1
  O2-  O434  1  0.19673284  0.09932494  0.85258204  1
  O2-  O435  1  0.16505044  0.34618353  0.18769555  1
  O2-  O436  1  0.19434642  0.39691474  0.51981754  1
  O2-  O437  1  0.16546692  0.33339848  0.85725796  1
  O2-  O438  1  0.16614729  0.59250183  0.20202681  1
  O2-  O439  1  0.16710692  0.63695721  0.50305276  1
  O2-  O440  1  0.18278108  0.59931489  0.84198028  1
  O2-  O441  1  0.14532649  0.81682468  0.18694262  1
  O2-  O442  1  0.16073205  0.81875495  0.52959417  1
  O2-  O443  1  0.18065113  0.82909625  0.86273482  1
  O2-  O444  1  0.38217942  0.07062802  0.19342079  1
  O2-  O445  1  0.40569586  0.05834400  0.52278264  1
  O2-  O446  1  0.43068860  0.09014441  0.86239922  1
  O2-  O447  1  0.41693935  0.34131883  0.18361367  1
  O2-  O448  1  0.43933775  0.28139172  0.52734052  1
  O2-  O449  1  0.43381688  0.35696885  0.86526157  1
  O2-  O450  1  0.45867973  0.65928806  0.20663511  1
  O2-  O451  1  0.41554777  0.60791352  0.51977894  1
  O2-  O452  1  0.41299850  0.58201201  0.85524063  1
  O2-  O453  1  0.42318148  0.78681280  0.20151817  1
  O2-  O454  1  0.42284645  0.83802448  0.51970204  1
  O2-  O455  1  0.40946413  0.82268047  0.82958403  1
  O2-  O456  1  0.66930021  0.11149919  0.19173653  1
  O2-  O457  1  0.69089091  0.13566081  0.52990848  1
  O2-  O458  1  0.65038011  0.06943029  0.85707045  1
  O2-  O459  1  0.53971696  0.18918498  0.15042327  1
  O2-  O460  1  0.60246985  0.30472920  0.53151547  1
  O2-  O461  1  0.68014942  0.33782023  0.85326280  1
  O2-  O462  1  0.66951253  0.59099457  0.17992329  1
  O2-  O463  1  0.68847797  0.59549381  0.51761500  1
  O2-  O464  1  0.68275197  0.58927713  0.85299677  1
  O2-  O465  1  0.66310978  0.83943877  0.19097535  1
  O2-  O466  1  0.66786205  0.81992056  0.51557096  1
  O2-  O467  1  0.66503904  0.82701906  0.85057922  1
  O2-  O468  1  0.88150000  0.07059459  0.19110050  1
  O2-  O469  1  0.91417381  0.07390821  0.52211492  1
  O2-  O470  1  0.93446511  0.06822503  0.86987285  1
  O2-  O471  1  0.96281008  0.41190085  0.23867897  1
  O2-  O472  1  0.91004552  0.32130268  0.52306622  1
  O2-  O473  1  0.91122851  0.31738194  0.84306658  1
  O2-  O474  1  0.91260237  0.56850782  0.18578631  1
  O2-  O475  1  0.91304259  0.57013404  0.49770999  1
  O2-  O476  1  0.93581171  0.58660131  0.84201493  1
  O2-  O477  1  0.91341280  0.83331799  0.19859319  1
  O2-  O478  1  0.92057882  0.83005656  0.51930981  1
  O2-  O479  1  0.84402857  0.78642595  0.86234809  1
  O2-  O480  1  0.17798253  0.06856408  0.32407740  1
  O2-  O481  1  0.15820843  0.06427093  0.63343689  1
  O2-  O482  1  0.21602517  0.15722057  0.97614089  1
  O2-  O483  1  0.16380573  0.33789964  0.30916495  1
  O2-  O484  1  0.17076142  0.37907075  0.64172738  1
  O2-  O485  1  0.15083069  0.32971975  0.98137897  1
  O2-  O486  1  0.16221107  0.59084056  0.32473498  1
  O2-  O487  1  0.16230034  0.62610188  0.63060810  1
  O2-  O488  1  0.19094081  0.57541113  0.96343114  1
  O2-  O489  1  0.14243695  0.80254703  0.32140325  1
  O2-  O490  1  0.16793701  0.82056547  0.64793523  1
  O2-  O491  1  0.17595415  0.81644200  0.98514776  1
  O2-  O492  1  0.39465832  0.06020792  0.31690488  1
  O2-  O493  1  0.42083805  0.07676210  0.64813502  1
  O2-  O494  1  0.43576326  0.08952890  0.98328093  1
  O2-  O495  1  0.41290067  0.32508051  0.30641445  1
  O2-  O496  1  0.40664715  0.32058587  0.70543390  1
  O2-  O497  1  0.43275876  0.36741418  0.98398153  1
  O2-  O498  1  0.42568211  0.60126370  0.32021013  1
  O2-  O499  1  0.40613667  0.57691797  0.63814157  1
  O2-  O500  1  0.33964621  0.56425430  0.96604615  1
  O2-  O501  1  0.38227587  0.81355625  0.31119896  1
  O2-  O502  1  0.42365617  0.83249633  0.64115715  1
  O2-  O503  1  0.45787037  0.87683655  1.00516318  1
  O2-  O504  1  0.68437414  0.11946369  0.31210711  1
  O2-  O505  1  0.67188189  0.07133643  0.65019840  1
  O2-  O506  1  0.68430105  0.09138516  0.98085034  1
  O2-  O507  1  0.66343066  0.33261200  0.30518088  1
  O2-  O508  1  0.64654209  0.32094241  0.65214374  1
  O2-  O509  1  0.71808613  0.32211106  0.97094018  1
  O2-  O510  1  0.66942263  0.58920833  0.30442171  1
  O2-  O511  1  0.66674744  0.57400644  0.64055367  1
  O2-  O512  1  0.71570689  0.59562787  0.97766606  1
  O2-  O513  1  0.67723539  0.83984909  0.31243317  1
  O2-  O514  1  0.67451413  0.82989145  0.64213315  1
  O2-  O515  1  0.66706812  0.81217187  0.97341547  1
  O2-  O516  1  0.89895458  0.09273245  0.30720818  1
  O2-  O517  1  0.92739066  0.07427638  0.64638905  1
  O2-  O518  1  0.92265058  0.06180160  0.98640898  1
  O2-  O519  1  0.93874933  0.34559596  0.28552149  1
  O2-  O520  1  0.84698592  0.28608213  0.63963482  1
  O2-  O521  1  0.89101990  0.34660604  0.99999252  1
  O2-  O522  1  0.91042719  0.55051697  0.30496574  1
  O2-  O523  1  0.91325448  0.57237355  0.61552589  1
  O2-  O524  1  0.92286403  0.58081437  0.96815949  1
  O2-  O525  1  0.92007751  0.85162031  0.31343320  1
  O2-  O526  1  0.92304715  0.82767324  0.64330884  1
  O2-  O527  1  0.89223500  0.80530536  0.98100107  1
  O2-  O528  1  0.08945500  0.16847553  0.02802437  1
  O2-  O529  1  0.05979887  0.16420401  0.33540464  1
  O2-  O530  1  0.08360933  0.14607668  0.68844978  1
  O2-  O531  1  0.07475335  0.42605468  0.02383205  1
  O2-  O532  1  0.07949687  0.41412219  0.35298589  1
  O2-  O533  1  0.08661972  0.46981086  0.68634648  1
  O2-  O534  1  0.08740027  0.65298442  0.02294417  1
  O2-  O535  1  0.07581964  0.65774529  0.36302945  1
  O2-  O536  1  0.11468277  0.73429034  0.67495595  1
  O2-  O537  1  0.02390279  0.79526498  0.03564186  1
  O2-  O538  1  0.07597656  0.89061436  0.35853495  1
  O2-  O539  1  0.09248216  0.90518037  0.68439303  1
  O2-  O540  1  0.38174053  0.20240186  0.01828804  1
  O2-  O541  1  0.33693614  0.16464837  0.35439841  1
  O2-  O542  1  0.32260776  0.14733502  0.68537138  1
  O2-  O543  1  0.32026271  0.41884332  0.02358101  1
  O2-  O544  1  0.33079487  0.42597831  0.30694692  1
  O2-  O545  1  0.32454193  0.41907600  0.69158003  1
  O2-  O546  1  0.34697178  0.70781946  0.02400072  1
  O2-  O547  1  0.32600460  0.66087429  0.36614429  1
  O2-  O548  1  0.32339056  0.66449498  0.67373410  1
  O2-  O549  1  0.34229664  0.92884076  0.02787407  1
  O2-  O550  1  0.30205387  0.89970477  0.35965452  1
  O2-  O551  1  0.33960511  0.91351112  0.68567608  1
  O2-  O552  1  0.61595001  0.17451004  0.01482669  1
  O2-  O553  1  0.56664973  0.15688754  0.35029832  1
  O2-  O554  1  0.57102689  0.16768779  0.69937715  1
  O2-  O555  1  0.54154559  0.47675195  0.07698251  1
  O2-  O556  1  0.58031927  0.42775738  0.33877146  1
  O2-  O557  1  0.57836124  0.41366092  0.69612911  1
  O2-  O558  1  0.61628703  0.66419963  0.01784752  1
  O2-  O559  1  0.59451121  0.67023747  0.35637048  1
  O2-  O560  1  0.54890141  0.68610148  0.70482886  1
  O2-  O561  1  0.61040563  0.95899247  0.04368601  1
  O2-  O562  1  0.62742527  0.94765405  0.35563038  1
  O2-  O563  1  0.58523051  0.90923013  0.68614989  1
  O2-  O564  1  0.85653984  0.18073082  0.02790097  1
  O2-  O565  1  0.84234139  0.18872173  0.36683531  1
  O2-  O566  1  0.83796255  0.14186699  0.69081029  1
  O2-  O567  1  0.79827831  0.45653657  0.04736849  1
  O2-  O568  1  0.85055873  0.39411187  0.34268858  1
  O2-  O569  1  0.82506453  0.41325510  0.67857972  1
  O2-  O570  1  0.80725372  0.63642816  -0.00764299  1
  O2-  O571  1  0.84057490  0.64432638  0.34295063  1
  O2-  O572  1  0.84161064  0.65955677  0.67769389  1
  O2-  O573  1  0.82546618  0.89925505  0.02777919  1
  O2-  O574  1  0.83830910  0.93347555  0.35883203  1
  O2-  O575  1  0.84013324  0.90843381  0.68752690  1
