# generated using pymatgen
data_H2O
_symmetry_space_group_name_H-M   'P 1'
_cell_length_a   17.99500770
_cell_length_b   17.98824456
_cell_length_c   21.99396844
_cell_angle_alpha   89.98437032
_cell_angle_beta   90.01789806
_cell_angle_gamma   120.00526483
_symmetry_Int_Tables_number   1
_chemical_formula_structural   H2O
_chemical_formula_sum   'H384 O192'
_cell_volume   6165.26831055
_cell_formula_units_Z   192
loop_
 _symmetry_equiv_pos_site_id
 _symmetry_equiv_pos_as_xyz
  1  'x, y, z'
loop_
 _atom_type_symbol
 _atom_type_oxidation_number
  H+  1.0
  O2-  -2.0
loop_
 _atom_site_type_symbol
 _atom_site_label
 _atom_site_symmetry_multiplicity
 _atom_site_fract_x
 _atom_site_fract_y
 _atom_site_fract_z
 _atom_site_occupancy
  H+  H0  1  0.85050241  0.67568223  0.40697095  1
  H+  H1  1  0.64469566  0.25576830  0.17243733  1
  H+  H2  1  0.36472907  0.88846107  0.01635372  1
  H+  H3  1  0.02285107  0.39171902  0.16167528  1
  H+  H4  1  0.63759077  1.01070440  0.49880821  1
  H+  H5  1  0.87146753  0.36461247  0.33191009  1
  H+  H6  1  0.62910600  0.35130332  0.83988757  1
  H+  H7  1  0.08412221  0.15745013  0.41503377  1
  H+  H8  1  0.21733577  0.36195203  0.17636110  1
  H+  H9  1  0.62007470  0.22237997  0.82385592  1
  H+  H10  1  0.96591934  0.61379021  0.66105492  1
  H+  H11  1  0.66847289  -0.01395784  0.32798855  1
  H+  H12  1  0.63334961  0.10406835  0.50637158  1
  H+  H13  1  0.77465600  0.38492930  0.66710918  1
  H+  H14  1  0.12971908  0.60484999  0.50900731  1
  H+  H15  1  0.13220440  0.51959257  0.17963952  1
  H+  H16  1  0.88174735  0.97752470  0.32095571  1
  H+  H17  1  0.47214385  0.39941418  -0.01605837  1
  H+  H18  1  0.26178680  0.37247468  0.49291176  1
  H+  H19  1  0.35490774  0.72247447  0.16153908  1
  H+  H20  1  0.88038050  0.88753594  0.81684527  1
  H+  H21  1  0.61210128  0.12639930  0.15785359  1
  H+  H22  1  0.14413964  1.02813923  0.15503680  1
  H+  H23  1  0.15927657  0.02441840  -0.01054235  1
  H+  H24  1  0.79103040  0.49008019  0.79244711  1
  H+  H25  1  0.63551429  0.61097289  0.32676331  1
  H+  H26  1  0.72929748  0.35284322  0.32404999  1
  H+  H27  1  0.88152802  0.35927691  0.49815897  1
  H+  H28  1  0.47474690  0.11526102  0.66332119  1
  H+  H29  1  0.84440670  0.21088801  0.66225938  1
  H+  H30  1  -0.08223023  0.58550985  0.56628276  1
  H+  H31  1  0.28551005  0.14208010  0.00679906  1
  H+  H32  1  0.64796665  0.11284312  0.83527008  1
  H+  H33  1  0.96591808  0.35000199  0.49959635  1
  H+  H34  1  0.09896597  0.60959868  0.81389191  1
  H+  H35  1  0.92536300  0.59460674  0.09780094  1
  H+  H36  1  0.61897310  0.01500945  0.66249256  1
  H+  H37  1  0.89121526  0.78318474  0.50861829  1
  H+  H38  1  0.21819106  0.37005083  0.32952073  1
  H+  H39  1  0.13164848  0.86618949  0.50794649  1
  H+  H40  1  0.45751484  0.36673672  0.21064435  1
  H+  H41  1  0.87028097  0.65263174  0.00725397  1
  H+  H42  1  0.42548395  0.44639683  0.95431723  1
  H+  H43  1  0.49620826  0.86387056  0.86039086  1
  H+  H44  1  0.80181800  0.16768919  0.82938184  1
  H+  H45  1  0.34707317  0.99504198  0.35610941  1
  H+  H46  1  0.24905774  0.59458897  0.82196667  1
  H+  H47  1  0.96145669  0.11561314  1.02288375  1
  H+  H48  1  0.37045339  0.14594363  0.82277840  1
  H+  H49  1  0.10963443  0.38833270  0.15988266  1
  H+  H50  1  0.37744422  0.24243676  0.49814951  1
  H+  H51  1  0.85874350  0.47170395  1.00541063  1
  H+  H52  1  0.13822841  0.64025122  1.01483563  1
  H+  H53  1  0.12350600  0.36589006  -0.01678731  1
  H+  H54  1  0.60475934  0.12733954  0.66973435  1
  H+  H55  1  0.03766813  0.05708440  0.03520441  1
  H+  H56  1  0.63263250  0.77003013  0.51604588  1
  H+  H57  1  0.40324566  0.61187403  -0.00904612  1
  H+  H58  1  0.02895445  0.89778268  0.00121092  1
  H+  H59  1  0.48200200  0.12300105  0.83633166  1
  H+  H60  1  0.11044142  0.22126465  0.81715225  1
  H+  H61  1  0.74961272  0.61436920  0.66964203  1
  H+  H62  1  0.15483420  0.33167607  0.23327069  1
  H+  H63  1  0.03266233  0.64087625  0.15766740  1
  H+  H64  1  0.64460071  0.77339661  0.97341770  1
  H+  H65  1  0.64722573  0.12378031  0.35886882  1
  H+  H66  1  0.24689791  0.63342122  0.67239254  1
  H+  H67  1  0.47190848  0.60638634  0.82998845  1
  H+  H68  1  0.77909642  0.64074687  0.49842623  1
  H+  H69  1  0.09278758  0.11421238  0.66338849  1
  H+  H70  1  0.39335707  0.12528783  0.51071100  1
  H+  H71  1  0.61467484  0.99433104  0.18071156  1
  H+  H72  1  0.48285515  0.35371999  0.65963357  1
  H+  H73  1  0.64136557  0.61694192  0.98733252  1
  H+  H74  1  0.12761585  0.34843835  0.49372277  1
  H+  H75  1  0.64426533  0.37652152  0.50333733  1
  H+  H76  1  1.02281841  0.91394192  0.81701347  1
  H+  H77  1  0.11988901  0.48552582  0.00580967  1
  H+  H78  1  0.02260004  0.09836028  0.46768337  1
  H+  H79  1  0.77200424  0.88897625  0.50649267  1
  H+  H80  1  0.64061283  0.66855435  0.15705030  1
  H+  H81  1  0.64707537  0.88377001  0.18638154  1
  H+  H82  1  0.34919328  0.71627820  0.68269138  1
  H+  H83  1  0.59971867  0.17426418  0.55979456  1
  H+  H84  1  0.09957013  0.46211509  0.49493701  1
  H+  H85  1  0.89276420  0.03822028  0.17179073  1
  H+  H86  1  0.36550566  0.97600749  0.65183789  1
  H+  H87  1  0.74532125  0.13403829  0.18451882  1
  H+  H88  1  0.39186642  0.59719580  0.52695214  1
  H+  H89  1  0.05928123  0.38424399  0.72605669  1
  H+  H90  1  0.13185670  0.63026789  0.65867009  1
  H+  H91  1  0.85142187  0.61612545  0.82671613  1
  H+  H92  1  0.88960429  0.36947262  0.17444466  1
  H+  H93  1  0.86592847  0.89216930  1.00617757  1
  H+  H94  1  0.44489739  0.40651585  0.53057991  1
  H+  H95  1  0.66008136  0.80334199  0.17390059  1
  H+  H96  1  0.21292888  0.59460967  0.51581335  1
  H+  H97  1  0.34891897  0.37887655  0.17428840  1
  H+  H98  1  0.35507744  0.63299964  0.16828198  1
  H+  H99  1  0.28108920  0.53106331  0.38570063  1
  H+  H100  1  0.63935854  0.26520149  -0.01302695  1
  H+  H101  1  0.27258173  0.89217866  0.16448407  1
  H+  H102  1  0.59505128  0.24408693  0.35668101  1
  H+  H103  1  0.62808301  0.72768843  0.34673858  1
  H+  H104  1  1.00838636  0.38408518  0.33864736  1
  H+  H105  1  0.21577990  0.86185048  0.65518583  1
  H+  H106  1  0.87509873  0.02725468  1.02713154  1
  H+  H107  1  0.14073957  1.02838657  0.83177285  1
  H+  H108  1  0.89492535  0.52925690  0.50538585  1
  H+  H109  1  0.99409571  0.69414040  0.96867856  1
  H+  H110  1  0.85365253  0.14378457  0.02527331  1
  H+  H111  1  0.88266453  0.35471807  0.65498293  1
  H+  H112  1  0.47700757  0.10683911  0.99055763  1
  H+  H113  1  0.77649578  0.88919862  0.00003648  1
  H+  H114  1  0.39507346  0.87431673  0.34855433  1
  H+  H115  1  0.97331398  0.36975768  0.99587353  1
  H+  H116  1  0.90229463  0.88249971  0.16636799  1
  H+  H117  1  0.02615582  0.89484688  0.66770504  1
  H+  H118  1  0.35055633  0.36970236  0.49122988  1
  H+  H119  1  0.15927844  0.33064563  0.89225003  1
  H+  H120  1  0.52274275  0.12603303  0.16168908  1
  H+  H121  1  0.88083331  0.51890517  0.65828576  1
  H+  H122  1  0.86227935  0.64661875  0.15126797  1
  H+  H123  1  0.78974084  0.11873499  0.33887838  1
  H+  H124  1  0.37928663  0.87124557  0.15913757  1
  H+  H125  1  0.75212088  0.59856308  0.82320317  1
  H+  H126  1  0.61307954  0.87874469  0.50715357  1
  H+  H127  1  0.14877856  0.02987187  0.50003195  1
  H+  H128  1  0.37430444  0.22990289  -0.00035880  1
  H+  H129  1  0.11662683  0.23091960  0.33274536  1
  H+  H130  1  0.75505240  0.86276715  0.69038300  1
  H+  H131  1  0.97138818  0.10183681  0.80210639  1
  H+  H132  1  0.60523631  0.46613367  0.82711017  1
  H+  H133  1  0.75743711  0.39833367  0.82164500  1
  H+  H134  1  0.63745838  0.33728538  0.16632963  1
  H+  H135  1  0.01633581  0.36636302  0.66266347  1
  H+  H136  1  0.11783916  0.14203009  0.15511455  1
  H+  H137  1  0.28301369  0.85946502  0.83419139  1
  H+  H138  1  0.14623278  0.75534206  0.83362525  1
  H+  H139  1  0.73764604  0.11453061  0.49492012  1
  H+  H140  1  0.08156743  0.14542562  0.06854889  1
  H+  H141  1  0.64078229  0.36063693  0.65948056  1
  H+  H142  1  0.45242552  0.58779627  0.17676648  1
  H+  H143  1  0.77789760  0.65394873  0.16222497  1
  H+  H144  1  0.39051118  0.27534489  0.18602128  1
  H+  H145  1  0.87673015  0.15197421  0.80962854  1
  H+  H146  1  0.33128400  0.91179897  0.59749263  1
  H+  H147  1  0.35493162  0.38159584  0.82477032  1
  H+  H148  1  0.03558955  0.63753453  0.34664415  1
  H+  H149  1  0.72692224  0.11842149  0.99685561  1
  H+  H150  1  0.46600633  0.12451325  0.33618570  1
  H+  H151  1  0.84829229  0.61651496  0.66827601  1
  H+  H152  1  0.11727271  -0.01595120  0.66319057  1
  H+  H153  1  0.62885767  0.60394414  0.83286735  1
  H+  H154  1  0.21832789  0.87220860  0.33639584  1
  H+  H155  1  0.60932731  0.38307012  0.33784442  1
  H+  H156  1  0.43016724  0.83487830  0.94774730  1
  H+  H157  1  0.36659835  0.48150168  0.34864565  1
  H+  H158  1  0.15436815  0.36331588  0.66905880  1
  H+  H159  1  0.36343024  0.97574681  0.01059586  1
  H+  H160  1  0.39111640  0.51000830  0.51934020  1
  H+  H161  1  1.02738342  0.14042179  0.32976239  1
  H+  H162  1  0.40559272  0.15873367  0.15879722  1
  H+  H163  1  0.52607821  0.38605330  0.50010069  1
  H+  H164  1  0.83952009  0.12024167  0.66846356  1
  H+  H165  1  0.40238414  0.85038216  0.85732972  1
  H+  H166  1  0.14769319  0.11713503  0.49333724  1
  H+  H167  1  0.13959437  0.77567991  0.33110649  1
  H+  H168  1  0.86831593  0.23708185  0.16973294  1
  H+  H169  1  0.63061056  0.51963143  0.31913894  1
  H+  H170  1  0.90046454  0.12074880  0.32887429  1
  H+  H171  1  0.62828675  0.88824460  0.82158345  1
  H+  H172  1  0.37537750  0.36510916  0.34780649  1
  H+  H173  1  0.85772213  0.97862490  0.50611358  1
  H+  H174  1  0.22161267  0.10487585  0.33706413  1
  H+  H175  1  0.93926218  0.28993167  0.83385752  1
  H+  H176  1  0.25169585  0.59214373  0.35653014  1
  H+  H177  1  0.14266162  0.61572348  0.33612493  1
  H+  H178  1  0.52014131  0.13142092  0.51653524  1
  H+  H179  1  0.72916511  0.85180023  0.80007909  1
  H+  H180  1  0.87863148  0.01869886  0.78682528  1
  H+  H181  1  0.70609549  0.10233934  0.65347963  1
  H+  H182  1  0.37696788  0.11617350  0.32654841  1
  H+  H183  1  0.38076112  0.26879335  0.83403506  1
  H+  H184  1  0.52843472  0.63035565  0.50096291  1
  H+  H185  1  0.35742823  0.85152236  0.32728520  1
  H+  H186  1  0.61139020  0.12946914  0.00179987  1
  H+  H187  1  0.63151547  0.98002428  0.82829084  1
  H+  H188  1  0.15436228  0.10898906  -0.00734900  1
  H+  H189  1  0.36269149  0.50745197  0.18113797  1
  H+  H190  1  0.40853468  0.33648678  0.89127404  1
  H+  H191  1  0.83278018  0.41187203  0.09807089  1
  H+  H192  1  -0.00818246  0.86461300  0.33607484  1
  H+  H193  1  0.89784201  0.86268596  0.32118486  1
  H+  H194  1  0.64463837  0.55309441  0.16967936  1
  H+  H195  1  0.78622382  0.39936383  0.49137914  1
  H+  H196  1  0.61413697  0.46972985  0.67438848  1
  H+  H197  1  0.25422636  0.62167994  0.99690161  1
  H+  H198  1  0.64781031  0.28888616  0.50358456  1
  H+  H199  1  0.22179516  0.60807971  0.17984466  1
  H+  H200  1  0.42911230  0.58763440  -0.07213851  1
  H+  H201  1  0.11381777  0.97754520  0.34446100  1
  H+  H202  1  0.11650084  0.72919531  0.49915506  1
  H+  H203  1  0.89849526  0.76513706  0.33908652  1
  H+  H204  1  0.42937197  0.33128981  0.59730507  1
  H+  H205  1  0.58552637  0.40927576  0.73396527  1
  H+  H206  1  0.38243921  0.85405769  0.65286473  1
  H+  H207  1  0.11288338  0.88607990  0.34338652  1
  H+  H208  1  0.51777837  0.87331683  0.68386930  1
  H+  H209  1  0.85410106  0.13423350  0.50400377  1
  H+  H210  1  0.89796688  0.07587509  0.58240024  1
  H+  H211  1  0.86287802  0.00072315  0.66578234  1
  H+  H212  1  0.13495523  0.10641030  0.32806755  1
  H+  H213  1  0.36467728  0.22552944  0.66810213  1
  H+  H214  1  0.59550719  0.93362145  0.08626608  1
  H+  H215  1  0.78519378  0.90800925  0.16655656  1
  H+  H216  1  0.58187264  0.89967657  0.40905214  1
  H+  H217  1  0.11830911  0.63680072  0.17298381  1
  H+  H218  1  0.33610928  0.36300744  0.01364832  1
  H+  H219  1  0.41975733  0.83393452  0.11386923  1
  H+  H220  1  1.02556410  0.89552259  0.49653264  1
  H+  H221  1  0.03122964  0.89559026  0.15175326  1
  H+  H222  1  0.39149745  0.60470541  0.33739547  1
  H+  H223  1  0.88345216  0.28105331  0.99992569  1
  H+  H224  1  0.96729013  0.13332917  0.53262390  1
  H+  H225  1  0.24966906  0.38336083  0.67293868  1
  H+  H226  1  0.53591513  0.64192392  0.34679895  1
  H+  H227  1  0.89016576  0.85942845  0.66708648  1
  H+  H228  1  0.95619948  0.08636870  0.66453482  1
  H+  H229  1  0.57452725  0.64628464  0.75382112  1
  H+  H230  1  0.09990364  0.47184992  0.34001051  1
  H+  H231  1  0.11814943  0.13659508  0.82064439  1
  H+  H232  1  0.61304147  0.22232388  0.66993915  1
  H+  H233  1  0.81040506  0.63073579  0.73417774  1
  H+  H234  1  0.88696488  0.78240617  -0.01496942  1
  H+  H235  1  0.86948943  0.64373058  0.49927507  1
  H+  H236  1  0.35802492  0.98298353  0.51421772  1
  H+  H237  1  0.22742924  0.11782304  0.65344335  1
  H+  H238  1  0.39150164  0.11146750  0.99280588  1
  H+  H239  1  0.11518617  0.75729099  0.99116480  1
  H+  H240  1  0.72827456  0.61373348  0.98906344  1
  H+  H241  1  0.88780332  0.52707102  0.84835471  1
  H+  H242  1  0.62578222  0.12146349  0.32893760  1
  H+  H243  1  0.35235178  0.70419985  0.50496493  1
  H+  H244  1  0.48335517  0.86599058  1.01035004  1
  H+  H245  1  0.53386500  0.86055873  0.34363302  1
  H+  H246  1  0.86764102  0.14662248  0.16616913  1
  H+  H247  1  0.56300437  0.68579108  0.14727646  1
  H+  H248  1  0.21888095  0.36140806  0.83141878  1
  H+  H249  1  0.09974686  0.83764321  0.98362628  1
  H+  H250  1  0.12905042  0.26044393  0.48929146  1
  H+  H251  1  0.86708018  0.38581440  0.00696315  1
  H+  H252  1  0.85279370  0.22417759  0.49465067  1
  H+  H253  1  0.61061502  0.71353329  0.80852083  1
  H+  H254  1  0.83738690  0.16557812  0.40041621  1
  H+  H255  1  0.55662812  0.39398700  0.13658153  1
  H+  H256  1  0.12551504  0.36295401  0.32692886  1
  H+  H257  1  0.38717866  0.02551180  0.17737473  1
  H+  H258  1  0.10584003  0.48040695  0.82676918  1
  H+  H259  1  0.78765799  0.44781882  0.36366708  1
  H+  H260  1  0.41690722  0.49462727  0.68323348  1
  H+  H261  1  0.38398552  0.51700847  0.83689717  1
  H+  H262  1  0.51618883  0.37760836  0.82419110  1
  H+  H263  1  0.79296747  0.88677402  0.32585599  1
  H+  H264  1  0.11353949  0.23009751  0.15702781  1
  H+  H265  1  0.88804096  0.87119931  0.50945410  1
  H+  H266  1  0.11929173  0.89226144  0.15621838  1
  H+  H267  1  0.62634953  0.60355441  0.65899924  1
  H+  H268  1  0.50341297  0.29360018  0.12591256  1
  H+  H269  1  0.62556896  0.84716516  0.67086046  1
  H+  H270  1  0.20287440  0.35205034  -0.01061400  1
  H+  H271  1  0.88657688  0.64658988  0.34993567  1
  H+  H272  1  0.40028050  0.75109113  0.31145049  1
  H+  H273  1  0.72767405  0.35369179  0.98819593  1
  H+  H274  1  0.35459535  0.22594249  0.35077090  1
  H+  H275  1  0.13018859  0.87055185  0.66121343  1
  H+  H276  1  0.65286386  0.85731547  0.33977912  1
  H+  H277  1  0.52553508  0.88491211  0.50122610  1
  H+  H278  1  0.40421090  0.82164487  0.45458731  1
  H+  H279  1  0.89452597  0.51922610  0.33855749  1
  H+  H280  1  0.66450796  0.59507064  0.23771862  1
  H+  H281  1  0.02127220  0.62677091  0.82454632  1
  H+  H282  1  0.09807918  0.72970713  0.67270139  1
  H+  H283  1  0.64216232  0.61212381  0.51080042  1
  H+  H284  1  0.37974849  0.72960185  0.01275354  1
  H+  H285  1  0.60615061  0.47610559  -0.00234292  1
  H+  H286  1  0.98175347  0.12568966  0.17142973  1
  H+  H287  1  -0.00106567  0.62477134  0.00317587  1
  H+  H288  1  0.58972794  0.66670316  0.44195923  1
  H+  H289  1  0.67782009  0.83575033  0.27557849  1
  H+  H290  1  0.87293729  0.27498576  0.33137910  1
  H+  H291  1  0.48712543  0.60175255  0.61441979  1
  H+  H292  1  0.58681451  0.16239132  0.76506077  1
  H+  H293  1  0.14289332  0.77905769  0.17849094  1
  H+  H294  1  0.33810312  0.42040488  0.76589568  1
  H+  H295  1  0.62206213  0.75460508  0.66427123  1
  H+  H296  1  0.88618820  0.52386782  0.14811529  1
  H+  H297  1  0.65950720  0.57872417  0.89571142  1
  H+  H298  1  0.08436646  0.91853978  0.43642828  1
  H+  H299  1  0.69078646  0.82309128  0.86799467  1
  H+  H300  1  0.64246597  0.02608101  0.99651107  1
  H+  H301  1  0.52527252  0.90553580  0.16987705  1
  H+  H302  1  0.56886277  0.18342486  0.41433124  1
  H+  H303  1  0.65827866  0.82610035  0.57754897  1
  H+  H304  1  0.41986278  0.58233197  0.27459857  1
  H+  H305  1  0.41994300  0.09223676  0.89377932  1
  H+  H306  1  0.41998984  0.08629020  0.23737975  1
  H+  H307  1  0.34606361  0.61165898  0.82117224  1
  H+  H308  1  0.08960210  0.91858477  0.06016889  1
  H+  H309  1  0.89548797  0.08470705  0.89813612  1
  H+  H310  1  0.44019311  0.81335742  0.25708462  1
  H+  H311  1  0.66517738  0.57606009  0.60069320  1
  H+  H312  1  0.82964671  0.42200464  0.72733788  1
  H+  H313  1  0.91408126  0.84869189  0.92839108  1
  H+  H314  1  0.16932982  0.84003762  0.23667226  1
  H+  H315  1  0.88741086  0.09806313  0.92882108  1
  H+  H316  1  0.90399642  0.32230670  0.59340726  1
  H+  H317  1  0.15348664  0.83294445  0.56999678  1
  H+  H318  1  0.32526855  0.42112784  0.40914316  1
  H+  H319  1  0.02769196  0.64050866  0.49744564  1
  H+  H320  1  0.27712755  0.13987009  0.82148797  1
  H+  H321  1  0.94097558  0.95479613  0.86338903  1
  H+  H322  1  0.41459257  0.09122034  0.57310837  1
  H+  H323  1  0.09576479  0.35470216  0.82706613  1
  H+  H324  1  0.15927949  0.58832416  0.60300842  1
  H+  H325  1  0.52117896  0.38410672  0.34558217  1
  H+  H326  1  0.34317247  0.66324906  0.06888035  1
  H+  H327  1  0.60196932  0.68643483  0.05098489  1
  H+  H328  1  0.26430414  0.89092295  0.51363056  1
  H+  H329  1  0.68363853  0.13956055  0.23630383  1
  H+  H330  1  0.83119033  0.67909042  0.06281583  1
  H+  H331  1  0.23163069  0.11670883  0.15144762  1
  H+  H332  1  0.93198669  0.58563730  0.27962375  1
  H+  H333  1  0.53302712  0.64396633  -0.00506877  1
  H+  H334  1  0.16836834  0.58140036  0.27592583  1
  H+  H335  1  0.81986414  0.18045954  0.07459682  1
  H+  H336  1  0.39330215  0.32586396  0.28944606  1
  H+  H337  1  0.89898697  0.79263548  0.16369642  1
  H+  H338  1  0.33532198  0.16507371  0.40668018  1
  H+  H339  1  0.58921922  0.41965722  0.43821018  1
  H+  H340  1  0.69891578  0.04263876  0.26781177  1
  H+  H341  1  0.91401419  0.34063926  0.23702967  1
  H+  H342  1  0.32198707  0.93563612  0.41568854  1
  H+  H343  1  0.31615894  0.39672014  0.11076097  1
  H+  H344  1  0.17843559  0.08631147  0.89278192  1
  H+  H345  1  0.06788848  0.14579361  0.72334711  1
  H+  H346  1  0.58086802  0.15738391  0.06165162  1
  H+  H347  1  0.57121119  0.39050825  0.03883143  1
  H+  H348  1  0.34641442  0.89046905  0.77829173  1
  H+  H349  1  0.38931497  0.39560725  0.67474234  1
  H+  H350  1  0.09552809  0.67169054  0.40562687  1
  H+  H351  1  0.41779370  0.80891466  0.60956886  1
  H+  H352  1  0.08437652  0.93302069  0.76015879  1
  H+  H353  1  0.77643666  0.38279803  0.15954053  1
  H+  H354  1  0.66861082  0.32137183  0.26561189  1
  H+  H355  1  0.64458414  0.85612185  0.94505807  1
  H+  H356  1  0.92146055  0.84349369  0.60290962  1
  H+  H357  1  0.66839002  0.32591705  0.89722141  1
  H+  H358  1  0.15642054  0.81068662  0.89136233  1
  H+  H359  1  0.92493340  0.09478992  0.26540371  1
  H+  H360  1  0.38331122  0.11419253  0.66355929  1
  H+  H361  1  0.17344994  0.09072909  0.59134084  1
  H+  H362  1  0.25327774  0.28958933  0.04724745  1
  H+  H363  1  0.07093714  0.66282314  0.72900050  1
  H+  H364  1  0.33197158  0.92435504  0.10282915  1
  H+  H365  1  0.37799707  0.86210120  0.50656697  1
  H+  H366  1  0.20068475  0.60437945  0.93617816  1
  H+  H367  1  0.67763838  0.08647499  0.89556557  1
  H+  H368  1  0.62488754  0.89383849  0.03431747  1
  H+  H369  1  0.58322289  0.91160341  0.73989038  1
  H+  H370  1  0.08430704  0.42545863  0.06451946  1
  H+  H371  1  0.83471348  0.92723719  0.10288224  1
  H+  H372  1  0.67259421  0.33870025  0.59737252  1
  H+  H373  1  0.10373010  0.52630585  0.88529019  1
  H+  H374  1  0.07086226  0.40871296  0.43237105  1
  H+  H375  1  0.30790967  0.64321958  0.74053668  1
  H+  H376  1  0.93027807  0.59236502  0.90591309  1
  H+  H377  1  0.33179482  0.16808318  0.72854666  1
  H+  H378  1  0.10792052  0.66757152  0.07675106  1
  H+  H379  1  0.28740042  0.15218963  0.49740184  1
  H+  H380  1  0.32053674  0.63147306  0.45391248  1
  H+  H381  1  0.37628219  0.19161671  0.09857858  1
  H+  H382  1  0.64201673  0.52232628  0.50828797  1
  H+  H383  1  0.84581816  0.42997488  0.43119427  1
  O2-  O384  1  0.08404570  0.16986265  0.14138833  1
  O2-  O385  1  0.07948536  0.14815848  0.46177803  1
  O2-  O386  1  0.08461706  0.16132724  0.80215933  1
  O2-  O387  1  0.08288715  0.42256651  0.14556374  1
  O2-  O388  1  0.06993957  0.40285359  0.47755115  1
  O2-  O389  1  0.05765227  0.37940378  0.81045263  1
  O2-  O390  1  0.09612514  0.67254538  0.15369181  1
  O2-  O391  1  0.08914512  0.66891477  0.48366688  1
  O2-  O392  1  0.07733629  0.64894250  0.80292643  1
  O2-  O393  1  0.09284240  0.92294196  0.13598087  1
  O2-  O394  1  0.08676599  0.92265418  0.48210919  1
  O2-  O395  1  0.08319369  0.93634538  0.80534867  1
  O2-  O396  1  0.40292643  0.20869388  0.13985258  1
  O2-  O397  1  0.34910377  0.18148384  0.48438240  1
  O2-  O398  1  0.33757714  0.17419227  0.80601506  1
  O2-  O399  1  0.32303642  0.41105557  0.15537747  1
  O2-  O400  1  0.32608976  0.40708601  0.48245671  1
  O2-  O401  1  0.32686195  0.41466606  0.81104298  1
  O2-  O402  1  0.32491248  0.66098366  0.14956736  1
  O2-  O403  1  0.32416156  0.64162889  0.49873822  1
  O2-  O404  1  0.30662672  0.63109344  0.80473490  1
  O2-  O405  1  0.33381708  0.92363273  0.14961462  1
  O2-  O406  1  0.32937880  0.91846651  0.51257475  1
  O2-  O407  1  0.34533336  0.88675591  0.82230997  1
  O2-  O408  1  0.58138246  0.15524136  0.14235353  1
  O2-  O409  1  0.58568915  0.16037908  0.51680527  1
  O2-  O410  1  0.58996821  0.16111493  0.81027991  1
  O2-  O411  1  0.56159298  0.34618979  0.12065674  1
  O2-  O412  1  0.59169798  0.41968814  0.48320568  1
  O2-  O413  1  0.57796189  0.40604017  0.81145056  1
  O2-  O414  1  0.62181365  0.70590394  0.13467195  1
  O2-  O415  1  0.58930590  0.66655822  0.48752123  1
  O2-  O416  1  0.57645499  0.65047854  0.79982902  1
  O2-  O417  1  0.58868978  0.93559034  0.16364717  1
  O2-  O418  1  0.58622445  0.91225973  0.48810494  1
  O2-  O419  1  0.59519983  0.91848053  0.81545477  1
  O2-  O420  1  0.83339313  0.17564073  0.15597162  1
  O2-  O421  1  0.82337113  0.16060072  0.48206010  1
  O2-  O422  1  0.86218529  0.19805312  0.81614033  1
  O2-  O423  1  0.83647275  0.41736092  0.14389766  1
  O2-  O424  1  0.84722806  0.42665475  0.47800325  1
  O2-  O425  1  0.80938381  0.44783051  0.80118730  1
  O2-  O426  1  0.83418305  0.68033374  0.14074893  1
  O2-  O427  1  0.83990982  0.67471509  0.48427643  1
  O2-  O428  1  0.80267537  0.60424834  0.79940230  1
  O2-  O429  1  0.84323346  0.93534434  0.14763916  1
  O2-  O430  1  0.83167099  0.91924553  0.49104178  1
  O2-  O431  1  0.81772313  0.90571668  0.76907840  1
  O2-  O432  1  0.17241240  0.09105981  0.16471366  1
  O2-  O433  1  0.18044747  0.09190327  0.51236590  1
  O2-  O434  1  0.17581840  0.09000768  0.84806860  1
  O2-  O435  1  0.15537290  0.33140243  0.18768572  1
  O2-  O436  1  0.16262069  0.32093080  0.50162181  1
  O2-  O437  1  0.15823887  0.32776148  0.84627963  1
  O2-  O438  1  0.16307169  0.57901689  0.19791366  1
  O2-  O439  1  0.15076639  0.56679965  0.52562716  1
  O2-  O440  1  0.13233699  0.54000105  0.84584731  1
  O2-  O441  1  0.17153857  0.84049854  0.19103125  1
  O2-  O442  1  0.16146438  0.83554533  0.52447215  1
  O2-  O443  1  0.18127539  0.81345026  0.85091429  1
  O2-  O444  1  0.42388570  0.08645297  0.19156477  1
  O2-  O445  1  0.41773688  0.08935528  0.52705467  1
  O2-  O446  1  0.42256700  0.10439926  0.84975241  1
  O2-  O447  1  0.39600519  0.32609862  0.20945781  1
  O2-  O448  1  0.44159857  0.35120653  0.52446979  1
  O2-  O449  1  0.41162321  0.33185485  0.84675120  1
  O2-  O450  1  0.39692292  0.56938331  0.19550809  1
  O2-  O451  1  0.42722674  0.57003359  0.53417992  1
  O2-  O452  1  0.41438467  0.57888701  0.85014842  1
  O2-  O453  1  0.41369813  0.83879995  0.15772578  1
  O2-  O454  1  0.40756917  0.82759807  0.49879500  1
  O2-  O455  1  0.43911257  0.83207843  0.87997425  1
  O2-  O456  1  0.68339992  0.10403673  0.20262089  1
  O2-  O457  1  0.66969862  0.07578609  0.50538220  1
  O2-  O458  1  0.68189607  0.08640508  0.85061615  1
  O2-  O459  1  0.67302819  0.31678386  0.18700908  1
  O2-  O460  1  0.67899725  0.34852908  0.51790277  1
  O2-  O461  1  0.66645410  0.32699749  0.85085042  1
  O2-  O462  1  0.67350085  0.60871376  0.18987578  1
  O2-  O463  1  0.67328459  0.58239114  0.52534495  1
  O2-  O464  1  0.65759095  0.57302990  0.85047293  1
  O2-  O465  1  0.68191569  0.85709778  0.19782394  1
  O2-  O466  1  0.65848006  0.83019092  0.53184276  1
  O2-  O467  1  0.67313946  0.82052053  0.82537976  1
  O2-  O468  1  0.92209531  0.09843173  0.18827918  1
  O2-  O469  1  0.90638219  0.09099515  0.53610105  1
  O2-  O470  1  0.90844661  0.07524749  0.80747981  1
  O2-  O471  1  0.91963914  0.33997785  0.19175106  1
  O2-  O472  1  0.90404709  0.32096497  0.51260424  1
  O2-  O473  1  0.98369867  0.34922286  0.85091659  1
  O2-  O474  1  0.91966606  0.58831094  0.14195204  1
  O2-  O475  1  0.92335023  0.58989817  0.52104868  1
  O2-  O476  1  0.92512632  0.58823278  0.86091658  1
  O2-  O477  1  0.93563941  0.85348377  0.17505413  1
  O2-  O478  1  0.92272516  0.84406637  0.52263543  1
  O2-  O479  1  0.92043084  0.89521858  0.85177165  1
  O2-  O480  1  0.16208529  0.07084259  0.32133274  1
  O2-  O481  1  0.16802341  0.08580278  0.63645343  1
  O2-  O482  1  0.19134002  0.08640478  0.97689455  1
  O2-  O483  1  0.16003037  0.33733892  0.31094095  1
  O2-  O484  1  0.19110340  0.33714619  0.66493085  1
  O2-  O485  1  0.15019937  0.33377575  0.96584971  1
  O2-  O486  1  0.16697319  0.57878415  0.32144034  1
  O2-  O487  1  0.17079877  0.60828327  0.64605822  1
  O2-  O488  1  0.19357010  0.59524955  0.98001413  1
  O2-  O489  1  0.16295621  0.83484225  0.31436290  1
  O2-  O490  1  0.15369410  0.83238718  0.64597378  1
  O2-  O491  1  0.09363568  0.78535906  0.96306060  1
  O2-  O492  1  0.41101271  0.08830730  0.31369729  1
  O2-  O493  1  0.41422100  0.08441632  0.64699957  1
  O2-  O494  1  0.41570194  0.07689856  0.97665698  1
  O2-  O495  1  0.40506408  0.33392082  0.33362935  1
  O2-  O496  1  0.42317515  0.32706122  0.64358000  1
  O2-  O497  1  0.41436958  0.38920620  0.96607276  1
  O2-  O498  1  0.42954014  0.58539867  0.31920505  1
  O2-  O499  1  0.48702576  0.60301457  0.65930407  1
  O2-  O500  1  0.43645937  0.58679639  0.97303479  1
  O2-  O501  1  0.45452775  0.78726010  0.29068347  1
  O2-  O502  1  0.40914617  0.81619402  0.65243797  1
  O2-  O503  1  0.42385641  0.83258928  0.99520096  1
  O2-  O504  1  0.71957617  0.03003911  0.30545444  1
  O2-  O505  1  0.64251621  0.07249613  0.64380458  1
  O2-  O506  1  0.66815817  0.08368491  0.97800544  1
  O2-  O507  1  0.66864186  0.32678084  0.31083958  1
  O2-  O508  1  0.67083667  0.33083583  0.64241412  1
  O2-  O509  1  0.66979118  0.32409652  0.96979658  1
  O2-  O510  1  0.65607462  0.57842049  0.30176096  1
  O2-  O511  1  0.66262848  0.57490185  0.64662078  1
  O2-  O512  1  0.66775719  0.58208927  0.97427210  1
  O2-  O513  1  0.68117662  0.82797106  0.32019425  1
  O2-  O514  1  0.65683092  0.81817219  0.65461111  1
  O2-  O515  1  0.68171677  0.83344479  0.95650675  1
  O2-  O516  1  0.92884812  0.09044352  0.31075026  1
  O2-  O517  1  0.89348120  0.06001157  0.64966765  1
  O2-  O518  1  0.90171465  0.08940839  1.03649860  1
  O2-  O519  1  0.90140249  0.33513409  0.31539331  1
  O2-  O520  1  0.90593887  0.31922619  0.63841820  1
  O2-  O521  1  0.91158226  0.34128190  0.98494606  1
  O2-  O522  1  0.93448633  0.58541076  0.32381785  1
  O2-  O523  1  0.90522952  0.58067200  0.64484742  1
  O2-  O524  1  0.95419025  0.63282167  0.98176317  1
  O2-  O525  1  0.93026211  0.82779307  0.31926589  1
  O2-  O526  1  0.92767956  0.84110087  0.64768841  1
  O2-  O527  1  0.91853077  0.84420100  0.97305397  1
  O2-  O528  1  0.07275306  0.11840279  0.02693412  1
  O2-  O529  1  0.08873806  0.16935247  0.34528252  1
  O2-  O530  1  0.04993923  0.12743155  0.68076184  1
  O2-  O531  1  0.08230364  0.42549761  0.01920608  1
  O2-  O532  1  0.06916111  0.41040286  0.35314261  1
  O2-  O533  1  0.07312728  0.39660666  0.68280837  1
  O2-  O534  1  0.10242846  0.66326820  0.03151404  1
  O2-  O535  1  0.09747330  0.67076816  0.36005775  1
  O2-  O536  1  0.06744975  0.66720728  0.68354501  1
  O2-  O537  1  0.08948045  0.92081137  0.01423699  1
  O2-  O538  1  0.08236237  0.91520100  0.36054345  1
  O2-  O539  1  0.08852183  0.92502692  0.68146549  1
  O2-  O540  1  0.34640875  0.17711612  0.02341078  1
  O2-  O541  1  0.32837011  0.16405580  0.36151476  1
  O2-  O542  1  0.33124355  0.16438499  0.68295565  1
  O2-  O543  1  0.28709775  0.35167663  0.04201913  1
  O2-  O544  1  0.32210975  0.42348919  0.36315048  1
  O2-  O545  1  0.37243566  0.43528474  0.69388329  1
  O2-  O546  1  0.35011949  0.66648780  0.02398473  1
  O2-  O547  1  0.30103176  0.59205609  0.37933091  1
  O2-  O548  1  0.31032990  0.65413707  0.69265124  1
  O2-  O549  1  0.33571449  0.91909485  0.03184423  1
  O2-  O550  1  0.30016259  0.94428003  0.37734778  1
  O2-  O551  1  0.33477582  0.91263079  0.64249196  1
  O2-  O552  1  0.57982162  0.15892755  0.01655237  1
  O2-  O553  1  0.54559080  0.20087449  0.38092901  1
  O2-  O554  1  0.57721974  0.16229686  0.68465583  1
  O2-  O555  1  0.55900498  0.41576900  0.00342793  1
  O2-  O556  1  0.58383524  0.41674973  0.35393978  1
  O2-  O557  1  0.58838547  0.40900741  0.68838021  1
  O2-  O558  1  0.59677765  0.67944803  0.00635130  1
  O2-  O559  1  0.59499032  0.66758609  0.36347285  1
  O2-  O560  1  0.57892620  0.64901779  0.67738172  1
  O2-  O561  1  0.59391092  0.92468713  0.04116501  1
  O2-  O562  1  0.58913192  0.89858294  0.36425680  1
  O2-  O563  1  0.57945106  0.90540685  0.69420232  1
  O2-  O564  1  0.82204135  0.17683854  0.02962920  1
  O2-  O565  1  0.84287157  0.17037662  0.35552037  1
  O2-  O566  1  0.80582762  0.14956380  0.67249740  1
  O2-  O567  1  0.83254835  0.41464150  0.02334749  1
  O2-  O568  1  0.83469221  0.43579286  0.36020502  1
  O2-  O569  1  0.83531308  0.41792788  0.68248286  1
  O2-  O570  1  0.83279840  0.67675746  0.01720082  1
  O2-  O571  1  0.85831841  0.67982193  0.36181433  1
  O2-  O572  1  0.81267314  0.64102136  0.68767327  1
  O2-  O573  1  0.83100819  0.91646761  0.02331964  1
  O2-  O574  1  0.85621801  0.91430769  0.32211082  1
  O2-  O575  1  0.81752858  0.89340295  0.70216780  1
