# generated using pymatgen
data_H2O
_symmetry_space_group_name_H-M   'P 1'
_cell_length_a   17.98802308
_cell_length_b   17.98411190
_cell_length_c   22.01203753
_cell_angle_alpha   89.97311386
_cell_angle_beta   89.99142059
_cell_angle_gamma   120.00707532
_symmetry_Int_Tables_number   1
_chemical_formula_structural   H2O
_chemical_formula_sum   'H384 O192'
_cell_volume   6166.40791328
_cell_formula_units_Z   192
loop_
 _symmetry_equiv_pos_site_id
 _symmetry_equiv_pos_as_xyz
  1  'x, y, z'
loop_
 _atom_type_symbol
 _atom_type_oxidation_number
  H+  1.0
  O2-  -2.0
loop_
 _atom_site_type_symbol
 _atom_site_label
 _atom_site_symmetry_multiplicity
 _atom_site_fract_x
 _atom_site_fract_y
 _atom_site_fract_z
 _atom_site_occupancy
  H+  H0  1  0.35769473  0.22580320  0.67280714  1
  H+  H1  1  0.97076396  0.87137000  0.52493076  1
  H+  H2  1  0.22439579  0.12965783  0.18368140  1
  H+  H3  1  0.89538724  0.27466848  0.50368152  1
  H+  H4  1  0.98689485  0.38011339  0.97654288  1
  H+  H5  1  0.62025895  0.12964515  0.67075841  1
  H+  H6  1  0.72312691  0.62049844  0.50826755  1
  H+  H7  1  0.94814916  0.28573050  0.65158410  1
  H+  H8  1  0.12902493  0.84295918  0.32604917  1
  H+  H9  1  0.62436021  0.24594245  0.54695726  1
  H+  H10  1  0.40522622  0.32817682  0.59761300  1
  H+  H11  1  0.34164822  0.91398155  0.08835224  1
  H+  H12  1  0.50978337  0.14543785  0.33437762  1
  H+  H13  1  0.49985963  0.62944187  1.00698343  1
  H+  H14  1  0.41403763  0.14127490  0.83113706  1
  H+  H15  1  0.40154549  1.02168820  -0.01978281  1
  H+  H16  1  0.47004419  0.36023242  0.50533857  1
  H+  H17  1  0.22109899  0.11235442  0.83581555  1
  H+  H18  1  0.66277408  0.07800514  0.22587398  1
  H+  H19  1  0.61720007  0.37266898  0.03353429  1
  H+  H20  1  0.52489878  0.89173901  0.66891582  1
  H+  H21  1  0.10776062  0.88044602  0.83474597  1
  H+  H22  1  0.80914641  0.02810704  0.88859312  1
  H+  H23  1  0.05871888  0.88703620  0.00290498  1
  H+  H24  1  0.39535972  0.35075077  0.99838148  1
  H+  H25  1  0.82527185  0.36741508  0.63637525  1
  H+  H26  1  0.46218251  0.83730722  0.83290411  1
  H+  H27  1  1.02369271  0.61808483  0.33034562  1
  H+  H28  1  0.84750213  0.22099583  0.15900996  1
  H+  H29  1  0.60742923  0.47404634  0.34260255  1
  H+  H30  1  0.70223083  0.34287354  1.09030831  1
  H+  H31  1  0.12021148  0.48045296  0.83204843  1
  H+  H32  1  0.51549983  0.38308842  0.66215875  1
  H+  H33  1  0.79276454  0.15713541  0.83038690  1
  H+  H34  1  0.00468862  0.12959918  0.85209114  1
  H+  H35  1  0.61780774  -0.01710269  0.49728384  1
  H+  H36  1  0.78248485  -0.01601732  1.04301035  1
  H+  H37  1  0.11288388  0.12937566  0.49839888  1
  H+  H38  1  0.46753238  0.37331681  0.33429365  1
  H+  H39  1  0.36538247  0.25697509  0.18061474  1
  H+  H40  1  0.66170474  0.58524804  0.26703691  1
  H+  H41  1  0.63535751  0.88150006  0.65755259  1
  H+  H42  1  0.61596562  0.98721501  0.67215028  1
  H+  H43  1  0.67589351  0.18187492  0.84915889  1
  H+  H44  1  0.89632008  0.75275781  0.32357974  1
  H+  H45  1  0.14904939  0.88647262  0.17381134  1
  H+  H46  1  0.03686756  0.38975433  0.81990101  1
  H+  H47  1  0.87388820  0.39873260  -0.02123297  1
  H+  H48  1  0.89074928  0.52265137  0.50002869  1
  H+  H49  1  0.58322159  0.91331946  0.05426078  1
  H+  H50  1  0.88515366  0.86302875  0.83833775  1
  H+  H51  1  0.52656638  0.87659752  0.14844205  1
  H+  H52  1  0.87193637  0.89502205  0.50691248  1
  H+  H53  1  0.47176514  0.37645688  0.18467053  1
  H+  H54  1  0.97023166  0.59387456  0.65802062  1
  H+  H55  1  0.12599996  0.04347923  0.33698246  1
  H+  H56  1  0.38162109  0.36297601  0.50424795  1
  H+  H57  1  0.88708952  0.03695219  0.65642925  1
  H+  H58  1  1.01999143  0.13787677  0.16173757  1
  H+  H59  1  0.84866238  0.72662160  1.00819824  1
  H+  H60  1  0.15955852  0.85682632  0.99921709  1
  H+  H61  1  0.94226901  0.36980644  0.64430812  1
  H+  H62  1  0.09570555  0.98779406  0.00506170  1
  H+  H63  1  0.63688489  0.61429463  0.32918642  1
  H+  H64  1  0.87566944  0.11873390  0.64765906  1
  H+  H65  1  0.35479559  0.12870202  0.34842338  1
  H+  H66  1  0.22368094  0.10331144  0.66383102  1
  H+  H67  1  0.03554855  0.64119200  -0.00417326  1
  H+  H68  1  0.09495407  0.62271552  0.17182307  1
  H+  H69  1  0.88111274  0.77089598  0.84123840  1
  H+  H70  1  0.88791447  0.61153856  0.50276745  1
  H+  H71  1  0.62299544  0.27693531  0.31765533  1
  H+  H72  1  0.14561299  0.36656699  0.83898838  1
  H+  H73  1  0.29926916  0.89877588  0.49560810  1
  H+  H74  1  0.27336275  0.37698677  0.82716638  1
  H+  H75  1  0.10542072  0.48470167  0.16489194  1
  H+  H76  1  0.65404070  0.39427616  0.78470618  1
  H+  H77  1  0.88013981  0.58648749  0.31655911  1
  H+  H78  1  0.82428823  0.62186365  0.39122625  1
  H+  H79  1  0.16688220  0.09517535  0.27451707  1
  H+  H80  1  0.22151294  0.11082860  0.98442843  1
  H+  H81  1  0.35136180  0.57356865  0.99743161  1
  H+  H82  1  0.61920339  0.09441467  0.16956821  1
  H+  H83  1  0.61244727  0.96781418  0.15139231  1
  H+  H84  1  0.51035059  0.83937080  0.34131090  1
  H+  H85  1  0.62498718  0.82725107  0.82408738  1
  H+  H86  1  0.63853196  0.86407498  0.16784570  1
  H+  H87  1  0.10921852  0.20572999  0.67022715  1
  H+  H88  1  0.47334204  0.85846093  0.98692452  1
  H+  H89  1  0.00686732  0.27372658  0.10181221  1
  H+  H90  1  0.37839915  0.51216039  0.16648724  1
  H+  H91  1  0.60075773  0.15049357  0.32627907  1
  H+  H92  1  0.52855380  0.13788051  0.00621053  1
  H+  H93  1  0.15322010  0.85059279  0.65281792  1
  H+  H94  1  0.86457767  0.22117245  0.35983759  1
  H+  H95  1  0.35275700  0.87254190  0.82676412  1
  H+  H96  1  0.14177134  0.34535769  0.22967547  1
  H+  H97  1  0.60253165  0.47197523  0.49703588  1
  H+  H98  1  0.89515644  0.53877180  0.98975256  1
  H+  H99  1  0.61459947  0.58603839  0.86446396  1
  H+  H100  1  0.37019307  0.21998961  -0.00835182  1
  H+  H101  1  0.37967076  0.52766888  0.50851589  1
  H+  H102  1  0.12201359  0.76863558  0.83795146  1
  H+  H103  1  0.36058330  0.62041780  0.34169648  1
  H+  H104  1  0.62190078  -0.01709651  0.85708931  1
  H+  H105  1  0.64721315  0.11777543  0.52336761  1
  H+  H106  1  0.86586268  0.64734152  1.01204108  1
  H+  H107  1  0.47696685  0.12575279  0.50911590  1
  H+  H108  1  0.35752183  0.22881134  0.49503370  1
  H+  H109  1  0.06864926  0.85116920  0.47894030  1
  H+  H110  1  0.26850480  0.13584778  0.49928859  1
  H+  H111  1  0.39934268  0.78552000  0.49229996  1
  H+  H112  1  1.01768838  0.62747127  0.82882378  1
  H+  H113  1  0.35819216  0.45264477  1.00873307  1
  H+  H114  1  0.07098968  0.65629111  0.73114205  1
  H+  H115  1  0.34426508  0.03355316  0.17952951  1
  H+  H116  1  0.90859757  0.02014633  0.33529064  1
  H+  H117  1  0.28768960  0.88717152  -0.00243719  1
  H+  H118  1  0.11225140  -0.01991030  0.83487645  1
  H+  H119  1  0.60775315  0.47448396  0.16873382  1
  H+  H120  1  0.12804236  0.17164830  0.34237691  1
  H+  H121  1  0.72221283  0.59811826  1.00367629  1
  H+  H122  1  0.90408858  0.26894499  0.82819333  1
  H+  H123  1  0.02880539  0.86427292  0.67354115  1
  H+  H124  1  0.55105464  0.16968349  0.82178494  1
  H+  H125  1  0.39237509  0.84764468  0.16275358  1
  H+  H126  1  0.50049821  0.12089110  0.16453973  1
  H+  H127  1  0.63223934  1.01497363  0.83190897  1
  H+  H128  1  1.07536277  0.41657088  0.66671136  1
  H+  H129  1  0.24126017  0.64326365  0.65314929  1
  H+  H130  1  0.88874993  0.77570928  0.17383863  1
  H+  H131  1  0.12313539  0.39045255  -0.00593810  1
  H+  H132  1  0.13211335  0.12137328  0.17988129  1
  H+  H133  1  0.62764519  0.51474630  0.65456333  1
  H+  H134  1  0.15518555  0.55350042  0.65527062  1
  H+  H135  1  0.12107626  0.62907260  0.14379705  1
  H+  H136  1  0.36852616  0.63237038  0.14673017  1
  H+  H137  1  0.77650117  0.89044018  0.16859515  1
  H+  H138  1  0.88987291  0.50419207  0.30917453  1
  H+  H139  1  0.09281968  0.75790065  0.14436485  1
  H+  H140  1  1.02082259  0.12929172  0.64942102  1
  H+  H141  1  0.24946388  0.86939096  0.65643894  1
  H+  H142  1  0.56781527  0.88040157  0.74889569  1
  H+  H143  1  0.39692769  0.10693962  0.97127144  1
  H+  H144  1  0.78375821  0.39100504  0.00467547  1
  H+  H145  1  0.37298689  0.13193659  0.17937837  1
  H+  H146  1  0.85166456  0.10745876  1.01426552  1
  H+  H147  1  0.40268566  0.88352556  0.49282721  1
  H+  H148  1  0.86899875  0.44002986  0.07980073  1
  H+  H149  1  0.86484844  0.88833571  0.16573564  1
  H+  H150  1  0.90814587  0.88244248  0.67578051  1
  H+  H151  1  0.63739892  0.50453068  1.00641484  1
  H+  H152  1  0.13041666  0.09516472  0.65892206  1
  H+  H153  1  0.39782514  0.76186396  0.15858052  1
  H+  H154  1  0.85523129  0.63832527  0.16057842  1
  H+  H155  1  0.00334463  0.90119277  0.34913627  1
  H+  H156  1  0.74597925  0.61761235  0.84315756  1
  H+  H157  1  0.64070215  0.61333069  0.17092995  1
  H+  H158  1  0.95489357  0.33939854  0.15576957  1
  H+  H159  1  0.89263875  0.47167395  0.64790130  1
  H+  H160  1  0.60792800  0.63455455  0.49738419  1
  H+  H161  1  0.48515149  0.34985340  1.00114074  1
  H+  H162  1  0.34461965  0.47220847  0.34081599  1
  H+  H163  1  0.85562703  0.13351190  0.49301334  1
  H+  H164  1  0.08599547  0.47955783  0.19580791  1
  H+  H165  1  0.72757039  0.88543776  0.65298392  1
  H+  H166  1  0.65221625  0.27088834  0.04048461  1
  H+  H167  1  0.71775077  0.35640265  0.32033004  1
  H+  H168  1  0.24221482  0.62143589  -0.00553701  1
  H+  H169  1  0.10923107  0.64605371  0.66904732  1
  H+  H170  1  0.88193016  0.36546718  0.15700522  1
  H+  H171  1  0.62350042  0.74790147  0.65994201  1
  H+  H172  1  0.62042239  0.24996856  0.64417860  1
  H+  H173  1  0.88686809  0.39686607  0.49353580  1
  H+  H174  1  0.60603383  0.38553398  0.33863677  1
  H+  H175  1  0.76073046  0.64118720  0.68003818  1
  H+  H176  1  0.26964233  0.61422976  0.34671526  1
  H+  H177  1  0.14405166  0.35676801  0.50475975  1
  H+  H178  1  0.13374161  0.57718587  0.33021546  1
  H+  H179  1  0.62919848  0.60608766  0.65568817  1
  H+  H180  1  0.38355480  0.75174926  0.31819056  1
  H+  H181  1  0.62562842  0.85778720  -0.02229001  1
  H+  H182  1  0.13819590  1.01624500  0.51350224  1
  H+  H183  1  0.35217092  0.38568607  0.16857747  1
  H+  H184  1  0.09019350  0.12827694  0.83867659  1
  H+  H185  1  0.37597896  0.37054350  0.33417872  1
  H+  H186  1  0.27420762  0.38911344  0.50113620  1
  H+  H187  1  0.36581743  0.64831452  0.49630100  1
  H+  H188  1  0.01340026  0.88338866  0.83566579  1
  H+  H189  1  0.38119341  0.10864398  0.51449394  1
  H+  H190  1  0.61537313  0.89052633  0.49475532  1
  H+  H191  1  0.26261520  0.13466378  0.34948629  1
  H+  H192  1  0.26206993  0.38494229  0.16301698  1
  H+  H193  1  0.00053539  0.37591435  0.30293935  1
  H+  H194  1  0.96623452  0.63472606  0.15664027  1
  H+  H195  1  0.22218333  0.34576662  0.66635216  1
  H+  H196  1  0.24021701  0.64091603  0.50455919  1
  H+  H197  1  0.71704640  0.09466500  0.00166431  1
  H+  H198  1  0.19039741  0.90103421  0.51246764  1
  H+  H199  1  0.62443555  0.77327759  0.50686541  1
  H+  H200  1  -0.00663829  0.09681091  0.36318636  1
  H+  H201  1  0.36667969  0.50815829  0.84348296  1
  H+  H202  1  0.23190854  0.87394107  0.16918567  1
  H+  H203  1  0.89517460  0.35217336  0.81548609  1
  H+  H204  1  0.85027539  0.83718252  0.35537848  1
  H+  H205  1  0.38699273  0.98975124  0.49581654  1
  H+  H206  1  0.58674836  0.72249190  -0.00187940  1
  H+  H207  1  0.85894177  0.12070386  0.83139136  1
  H+  H208  1  0.02410925  0.62854610  0.48869034  1
  H+  H209  1  0.26721373  0.87744023  0.82396132  1
  H+  H210  1  0.37564860  -0.01172118  0.68010207  1
  H+  H211  1  0.61052703  0.25792977  0.17297278  1
  H+  H212  1  0.36680561  0.64350575  0.67276079  1
  H+  H213  1  0.96783991  1.02069933  0.71266480  1
  H+  H214  1  0.48523169  0.12143259  0.66548670  1
  H+  H215  1  0.39387706  0.96362188  0.14683393  1
  H+  H216  1  0.71512021  0.09937851  0.66496929  1
  H+  H217  1  0.87394248  0.77913962  0.67376103  1
  H+  H218  1  0.66189575  0.81730738  0.88854009  1
  H+  H219  1  0.64757488  0.77970998  0.16706980  1
  H+  H220  1  0.59688057  0.37687571  0.64691881  1
  H+  H221  1  0.51034851  0.78359983  0.76687701  1
  H+  H222  1  0.10849847  0.63258952  0.83380055  1
  H+  H223  1  0.73030703  0.15113363  0.32648576  1
  H+  H224  1  0.14649194  0.27033679  0.51359540  1
  H+  H225  1  0.15239714  0.52995742  0.99525510  1
  H+  H226  1  0.35029423  0.71377566  0.82834131  1
  H+  H227  1  0.16754940  0.07424127  0.57332659  1
  H+  H228  1  0.81790967  0.21914794  0.68809825  1
  H+  H229  1  0.89244056  0.02891766  0.17480525  1
  H+  H230  1  0.48060898  0.62337878  0.65769999  1
  H+  H231  1  0.76644095  0.61658375  0.33537512  1
  H+  H232  1  0.97889301  0.86584180  0.17631530  1
  H+  H233  1  0.85715511  0.40711043  0.73357120  1
  H+  H234  1  0.88910047  0.11547943  0.17493898  1
  H+  H235  1  0.47029960  0.61486547  0.50794701  1
  H+  H236  1  0.69126468  0.34115008  0.61638738  1
  H+  H237  1  0.34421829  0.62145623  0.82920862  1
  H+  H238  1  0.60043170  0.70275432  0.83700923  1
  H+  H239  1  0.93350102  0.86842026  0.99845869  1
  H+  H240  1  0.39538169  0.78520430  0.66653398  1
  H+  H241  1  0.27338802  0.65992741  0.18636489  1
  H+  H242  1  -0.02180496  0.11382752  0.49886358  1
  H+  H243  1  0.36563777  0.48009207  0.67357539  1
  H+  H244  1  0.86104045  0.74504835  0.50845526  1
  H+  H245  1  0.87173753  0.37637203  0.33444087  1
  H+  H246  1  0.11301675  0.70516955  0.33254361  1
  H+  H247  1  0.61638154  0.73320967  0.33617063  1
  H+  H248  1  0.77795787  0.87812177  0.81840299  1
  H+  H249  1  0.37945489  0.77066858  0.99294510  1
  H+  H250  1  0.89294583  0.02503037  0.99826479  1
  H+  H251  1  0.77128790  0.46453751  0.85706975  1
  H+  H252  1  0.11692783  0.22854464  0.00431997  1
  H+  H253  1  0.85345524  0.97458943  0.83966635  1
  H+  H254  1  0.63434485  0.26296108  0.81225353  1
  H+  H255  1  0.03960788  0.37170993  0.47113855  1
  H+  H256  1  0.27433225  0.89320259  0.34450514  1
  H+  H257  1  0.64505737  0.85179480  0.32709131  1
  H+  H258  1  0.83093957  0.61465695  0.83806866  1
  H+  H259  1  0.87579266  0.48832377  0.14142608  1
  H+  H260  1  0.39710978  0.68226151  0.00734987  1
  H+  H261  1  0.61417433  0.13362343  1.01497734  1
  H+  H262  1  0.76430527  0.84216822  0.35434708  1
  H+  H263  1  0.13665204  0.12032521  0.99053523  1
  H+  H264  1  0.21918459  0.61276024  0.84068001  1
  H+  H265  1  0.14833533  0.76446639  0.98833559  1
  H+  H266  1  0.23013589  0.35347709  0.99231117  1
  H+  H267  1  0.57299655  0.40678146  0.07887353  1
  H+  H268  1  0.13123892  0.27096313  0.84512005  1
  H+  H269  1  0.02869040  0.13757774  0.00506234  1
  H+  H270  1  0.13844773  0.44526173  0.30403019  1
  H+  H271  1  0.36672255  0.23811791  0.82672119  1
  H+  H272  1  0.44125115  0.34553798  0.90554805  1
  H+  H273  1  0.38109489  0.36212194  0.65807874  1
  H+  H274  1  0.37587563  0.88733438  0.99865946  1
  H+  H275  1  0.47115726  0.59624862  0.16458053  1
  H+  H276  1  0.76267600  0.12740600  0.16140267  1
  H+  H277  1  0.47214550  0.60845440  0.32187661  1
  H+  H278  1  0.87588991  0.98948991  0.48609728  1
  H+  H279  1  0.60641290  0.97409138  -0.00429661  1
  H+  H280  1  0.08085261  0.64891473  0.42760236  1
  H+  H281  1  0.42446886  0.81185052  0.25965704  1
  H+  H282  1  0.32338983  0.16081384  0.41591618  1
  H+  H283  1  0.73672591  0.38279095  0.78735372  1
  H+  H284  1  0.11422728  0.99020036  0.16568168  1
  H+  H285  1  0.36578777  0.14138737  0.67808543  1
  H+  H286  1  0.54265143  0.72821339  0.37106359  1
  H+  H287  1  0.12982449  0.27131603  0.18102377  1
  H+  H288  1  0.93402371  0.36291498  0.25088236  1
  H+  H289  1  0.82603729  0.71819238  0.44357245  1
  H+  H290  1  0.93001273  0.34684418  0.91671342  1
  H+  H291  1  0.24845934  0.39350781  0.35278141  1
  H+  H292  1  0.39894132  0.87589637  0.66748003  1
  H+  H293  1  0.91912367  0.81965461  0.26803558  1
  H+  H294  1  0.16892799  0.83271133  0.26501588  1
  H+  H295  1  0.18140079  0.61355034  0.57031845  1
  H+  H296  1  0.10645011  0.24965395  0.35301605  1
  H+  H297  1  0.38685750  0.55558933  0.93633305  1
  H+  H298  1  0.91823312  0.58246955  0.21823966  1
  H+  H299  1  0.16272191  0.08208888  0.89589777  1
  H+  H300  1  0.13842477  0.63113228  0.50110745  1
  H+  H301  1  0.20249070  0.84870005  0.56674146  1
  H+  H302  1  0.34099932  0.93067692  0.40038088  1
  H+  H303  1  0.34119924  0.92296860  0.73737825  1
  H+  H304  1  0.75797368  0.23128392  0.89150245  1
  H+  H305  1  0.71522799  0.19578986  0.27180098  1
  H+  H306  1  0.17373180  0.33195883  0.93078892  1
  H+  H307  1  0.06768412  0.69874303  0.08582522  1
  H+  H308  1  0.32691252  0.42217263  0.43906293  1
  H+  H309  1  0.89611305  0.82758787  0.93437067  1
  H+  H310  1  0.71107293  0.85794724  0.98839959  1
  H+  H311  1  0.09151560  0.17090903  0.44017667  1
  H+  H312  1  0.55896667  0.44645962  0.85252111  1
  H+  H313  1  0.41418041  0.57387840  0.26160481  1
  H+  H314  1  0.76685058  0.13244618  0.50996880  1
  H+  H315  1  0.37144004  0.02502342  0.33356551  1
  H+  H316  1  0.00269057  0.98174924  0.37630285  1
  H+  H317  1  0.86582965  0.45406769  0.79882000  1
  H+  H318  1  0.65989944  0.83904468  0.56225920  1
  H+  H319  1  0.39444203  0.08851218  0.27458030  1
  H+  H320  1  0.34160150  0.67020051  0.08550736  1
  H+  H321  1  0.49965135  0.87981329  0.49356196  1
  H+  H322  1  0.66328146  0.07536295  0.58298545  1
  H+  H323  1  0.91016430  0.84305250  0.58586542  1
  H+  H324  1  0.41283410  0.35150568  0.24751205  1
  H+  H325  1  0.88147861  0.95521461  0.74814538  1
  H+  H326  1  0.55675203  0.61753252  0.79441266  1
  H+  H327  1  0.56209172  0.14660925  0.10559722  1
  H+  H328  1  0.34026735  0.14256349  0.03911371  1
  H+  H329  1  0.61267912  0.70006146  0.72043967  1
  H+  H330  1  0.08351246  0.33916486  0.14313908  1
  H+  H331  1  0.57780965  0.66675287  0.43873737  1
  H+  H332  1  0.07555412  0.39918241  0.05060205  1
  H+  H333  1  0.33862294  0.42012516  0.73249679  1
  H+  H334  1  0.12412435  0.63714245  0.00307637  1
  H+  H335  1  0.68132085  0.83765715  0.26371534  1
  H+  H336  1  0.59730874  0.67764107  0.08650337  1
  H+  H337  1  0.32986466  0.66514307  0.73240806  1
  H+  H338  1  0.69219771  0.71550961  0.10926105  1
  H+  H339  1  0.33065859  0.20734011  0.11845250  1
  H+  H340  1  0.65282579  0.55565699  0.91814654  1
  H+  H341  1  0.05660825  0.91967857  0.43988493  1
  H+  H342  1  0.95535156  0.33979918  0.55385382  1
  H+  H343  1  0.36962728  0.39090126  0.82895035  1
  H+  H344  1  0.08525749  0.17023243  0.10374542  1
  H+  H345  1  0.91128931  0.07423699  0.93502775  1
  H+  H346  1  0.82583071  0.67117223  0.10330428  1
  H+  H347  1  0.83336191  0.89679748  0.43696913  1
  H+  H348  1  0.11635695  0.45305454  0.73129749  1
  H+  H349  1  0.08030286  0.93243761  0.10539771  1
  H+  H350  1  0.81222459  0.92513383  0.07590284  1
  H+  H351  1  0.32784627  0.39556187  0.06852629  1
  H+  H352  1  0.16572206  0.31837364  0.60749221  1
  H+  H353  1  0.11553089  0.95131221  0.67343691  1
  H+  H354  1  0.59660553  0.37905506  0.16722347  1
  H+  H355  1  0.79913744  0.30603738  0.37208426  1
  H+  H356  1  0.90873806  0.08054058  0.55315058  1
  H+  H357  1  0.16043915  0.82921168  0.89660349  1
  H+  H358  1  0.81416346  0.12484088  0.07649155  1
  H+  H359  1  0.16801351  0.58758802  0.90407666  1
  H+  H360  1  0.33430359  0.17740423  0.76837124  1
  H+  H361  1  0.91582346  0.56861466  0.59535524  1
  H+  H362  1  0.26407529  0.72200513  0.23297347  1
  H+  H363  1  0.66332760  0.58306684  0.56692182  1
  H+  H364  1  0.45304057  0.59736674  0.85367277  1
  H+  H365  1  0.57428835  0.41135344  0.43969915  1
  H+  H366  1  0.42298619  0.09096044  0.60787792  1
  H+  H367  1  0.84214217  0.41174625  0.43709690  1
  H+  H368  1  0.67821345  0.10907767  0.94030824  1
  H+  H369  1  0.80963134  0.66857038  0.74362408  1
  H+  H370  1  0.19451748  0.59121797  0.27524961  1
  H+  H371  1  0.10598082  0.37836393  0.41852887  1
  H+  H372  1  0.65568365  0.32843876  0.22464220  1
  H+  H373  1  0.41692050  0.58962158  0.60086238  1
  H+  H374  1  0.57208163  0.88184504  0.40046282  1
  H+  H375  1  0.33785272  0.67039449  0.43292014  1
  H+  H376  1  0.44475155  0.10068193  0.88239230  1
  H+  H377  1  0.60315521  0.17870205  0.72809508  1
  H+  H378  1  0.81117109  0.18379144  0.42088867  1
  H+  H379  1  0.91391529  0.59999706  0.93544275  1
  H+  H380  1  0.83184292  0.47170310  0.90993790  1
  H+  H381  1  0.41165595  0.82217436  0.89685774  1
  H+  H382  1  0.72640036  0.61164830  0.17759021  1
  H+  H383  1  0.84619960  0.17476510  0.73832959  1
  O2-  O384  1  0.08336674  0.17062855  0.14902122  1
  O2-  O385  1  0.08399231  0.16162366  0.48511842  1
  O2-  O386  1  0.06308388  0.16412214  0.83662917  1
  O2-  O387  1  0.03587177  0.33323935  0.11546102  1
  O2-  O388  1  0.10086182  0.39498529  0.46100863  1
  O2-  O389  1  0.09989343  0.42381309  0.81186757  1
  O2-  O390  1  0.04377669  0.71683852  0.11934742  1
  O2-  O391  1  0.08394753  0.65487718  0.47264416  1
  O2-  O392  1  0.07778821  0.66305682  0.81762445  1
  O2-  O393  1  0.08711010  0.92990668  0.15006522  1
  O2-  O394  1  0.06531227  0.90356952  0.48230325  1
  O2-  O395  1  0.07747256  0.91518573  0.82383983  1
  O2-  O396  1  0.33282236  0.19549785  0.16139026  1
  O2-  O397  1  0.32743679  0.16649318  0.48079893  1
  O2-  O398  1  0.33287845  0.17741320  0.81414070  1
  O2-  O399  1  0.32167197  0.41176553  0.14642333  1
  O2-  O400  1  0.33433898  0.42417129  0.48417798  1
  O2-  O401  1  0.33410767  0.41435777  0.81264704  1
  O2-  O402  1  0.34380838  0.66812571  0.13373785  1
  O2-  O403  1  0.34007037  0.68173325  0.47810179  1
  O2-  O404  1  0.31779468  0.65384572  0.81124696  1
  O2-  O405  1  0.34063742  0.91272882  0.13471489  1
  O2-  O406  1  0.36025702  0.93043008  0.47733236  1
  O2-  O407  1  0.32802079  0.90770063  0.81229181  1
  O2-  O408  1  0.56063079  0.14433006  0.15132438  1
  O2-  O409  1  0.55973884  0.18600859  0.47579724  1
  O2-  O410  1  0.61416770  0.20078426  0.80827732  1
  O2-  O411  1  0.56931359  0.41424546  0.15488095  1
  O2-  O412  1  0.56954924  0.41110791  0.48456894  1
  O2-  O413  1  0.52349852  0.38662191  0.83592540  1
  O2-  O414  1  0.63389202  0.68987517  0.12532973  1
  O2-  O415  1  0.57559737  0.66392398  0.48367236  1
  O2-  O416  1  0.55989842  0.63789609  0.83585937  1
  O2-  O417  1  0.58741267  0.90926192  0.13297631  1
  O2-  O418  1  0.58766431  0.92430290  0.47799612  1
  O2-  O419  1  0.54751064  0.83922272  0.78571317  1
  O2-  O420  1  0.82401010  0.15900167  0.14827942  1
  O2-  O421  1  0.82457109  0.16602360  0.48866438  1
  O2-  O422  1  0.84571954  0.16436960  0.81055578  1
  O2-  O423  1  0.85402542  0.43028601  0.12299928  1
  O2-  O424  1  0.85406096  0.42540277  0.48069097  1
  O2-  O425  1  0.84093594  0.39834195  0.77801543  1
  O2-  O426  1  0.82518343  0.67093000  0.14916283  1
  O2-  O427  1  0.83286459  0.69329779  0.48113289  1
  O2-  O428  1  0.80702577  0.65159485  0.82821394  1
  O2-  O429  1  0.83597447  0.92008010  0.15127435  1
  O2-  O430  1  0.84555271  0.92310200  0.48048411  1
  O2-  O431  1  0.84068062  0.91735501  0.81526654  1
  O2-  O432  1  0.16377397  0.09276445  0.19685980  1
  O2-  O433  1  0.16701222  0.07646996  0.52692426  1
  O2-  O434  1  0.16048631  0.07634304  0.85049772  1
  O2-  O435  1  0.15509412  0.33464108  0.18772646  1
  O2-  O436  1  0.17530542  0.33092313  0.52747306  1
  O2-  O437  1  0.17221738  0.33280639  0.85491267  1
  O2-  O438  1  0.23796677  0.66227182  0.22071960  1
  O2-  O439  1  0.18027088  0.61162652  0.52218471  1
  O2-  O440  1  0.15979893  0.58487205  0.85880552  1
  O2-  O441  1  0.17483925  0.85137132  0.18824781  1
  O2-  O442  1  0.20697527  0.85801418  0.51963205  1
  O2-  O443  1  0.15098019  0.82990211  0.85197866  1
  O2-  O444  1  0.39092185  0.08954513  0.19235576  1
  O2-  O445  1  0.41734214  0.08480207  0.52819353  1
  O2-  O446  1  0.45477341  0.12097748  0.83992080  1
  O2-  O447  1  0.41100273  0.34864052  0.20016828  1
  O2-  O448  1  0.40722130  0.32779402  0.51851408  1
  O2-  O449  1  0.43641589  0.35335530  0.86047870  1
  O2-  O450  1  0.41362949  0.57378960  0.18114354  1
  O2-  O451  1  0.40990575  0.58902506  0.52320304  1
  O2-  O452  1  0.39039340  0.56680996  0.86287354  1
  O2-  O453  1  0.42729272  0.82257554  0.17647254  1
  O2-  O454  1  0.43286009  0.84789695  0.50512383  1
  O2-  O455  1  0.40477962  0.81508733  0.85150428  1
  O2-  O456  1  0.65457681  0.06791314  0.18130784  1
  O2-  O457  1  0.66893056  0.07903579  0.53501120  1
  O2-  O458  1  0.71951536  0.17458092  0.87470609  1
  O2-  O459  1  0.64269283  0.32073444  0.18006156  1
  O2-  O460  1  0.63015059  0.21176205  0.51276428  1
  O2-  O461  1  0.68753660  0.37852691  0.81120679  1
  O2-  O462  1  0.66490101  0.58139722  0.19245888  1
  O2-  O463  1  0.66241453  0.58648525  0.52122190  1
  O2-  O464  1  0.64355226  0.55234414  0.87183086  1
  O2-  O465  1  0.67010259  0.83679012  0.18672869  1
  O2-  O466  1  0.65431280  0.83516757  0.51745625  1
  O2-  O467  1  0.66116393  0.80607304  0.84368531  1
  O2-  O468  1  0.92515248  0.09043599  0.18685069  1
  O2-  O469  1  0.91454346  0.08112487  0.50773663  1
  O2-  O470  1  0.86570346  0.05067496  0.86994767  1
  O2-  O471  1  0.90125307  0.32746227  0.17708098  1
  O2-  O472  1  0.93753088  0.33655744  0.51059321  1
  O2-  O473  1  0.92909779  0.33145819  0.83834111  1
  O2-  O474  1  0.91026180  0.58789043  0.17418991  1
  O2-  O475  1  0.92051159  0.58428507  0.51605959  1
  O2-  O476  1  0.83055969  0.50202525  0.87258184  1
  O2-  O477  1  0.91899379  0.83452534  0.19237264  1
  O2-  O478  1  0.91017952  0.84549518  0.53893562  1
  O2-  O479  1  0.91592542  0.83199835  0.85364027  1
  O2-  O480  1  0.16998880  0.10010211  0.32003658  1
  O2-  O481  1  0.16493453  0.06772670  0.64628904  1
  O2-  O482  1  0.15980185  0.08359076  0.97314184  1
  O2-  O483  1  0.13996335  0.35343065  0.35150334  1
  O2-  O484  1  0.16304988  0.30760299  0.65196420  1
  O2-  O485  1  0.17043524  0.33019002  0.97658727  1
  O2-  O486  1  0.17208939  0.55721336  0.31400737  1
  O2-  O487  1  0.18152049  0.61358358  0.63621107  1
  O2-  O488  1  0.18024339  0.59095485  0.98097793  1
  O2-  O489  1  0.16482587  0.82110589  0.30991504  1
  O2-  O490  1  0.19429931  0.83548189  0.63398931  1
  O2-  O491  1  0.18088237  0.82748543  0.97358071  1
  O2-  O492  1  0.39853589  0.08867485  0.31945269  1
  O2-  O493  1  0.42357697  0.09381471  0.65320162  1
  O2-  O494  1  0.43460334  0.08216835  0.96494484  1
  O2-  O495  1  0.40980580  0.34704877  0.31507350  1
  O2-  O496  1  0.40761169  0.32806881  0.64304097  1
  O2-  O497  1  0.42681852  0.32272836  0.98083270  1
  O2-  O498  1  0.41250135  0.57216563  0.30681495  1
  O2-  O499  1  0.41919777  0.59038419  0.64650473  1
  O2-  O500  1  0.38914329  0.55254338  0.98228352  1
  O2-  O501  1  0.42166595  0.81165681  0.30448629  1
  O2-  O502  1  0.42916844  0.84540548  0.65237629  1
  O2-  O503  1  0.41230381  0.83091623  0.97280449  1
  O2-  O504  1  0.68946143  0.13996391  0.29192613  1
  O2-  O505  1  0.65628535  0.07446356  0.65033987  1
  O2-  O506  1  0.66211572  0.08411871  0.98192078  1
  O2-  O507  1  0.66061135  0.33894389  0.30299831  1
  O2-  O508  1  0.63091702  0.29771178  0.61365086  1
  O2-  O509  1  0.68858869  0.33436062  1.04664436  1
  O2-  O510  1  0.66529504  0.58441916  0.31297302  1
  O2-  O511  1  0.66105946  0.57765709  0.64228093  1
  O2-  O512  1  0.66267754  0.56269182  0.98822350  1
  O2-  O513  1  0.68518391  0.83420347  0.30879088  1
  O2-  O514  1  0.66766099  0.85028753  0.64122310  1
  O2-  O515  1  0.65604732  0.82618388  0.96552275  1
  O2-  O516  1  0.94796995  0.03533103  0.36938741  1
  O2-  O517  1  0.89817565  0.08459851  0.62816187  1
  O2-  O518  1  0.92756753  0.08316561  0.98020658  1
  O2-  O519  1  0.95191097  0.38459147  0.29314026  1
  O2-  O520  1  0.97654506  0.34215777  0.63160752  1
  O2-  O521  1  0.92700646  0.35364292  0.96134820  1
  O2-  O522  1  0.91679812  0.56499401  0.29855042  1
  O2-  O523  1  0.91172310  0.55402104  0.63924770  1
  O2-  O524  1  0.92630676  0.60151223  0.97888167  1
  O2-  O525  1  0.92043442  0.81410342  0.31356310  1
  O2-  O526  1  0.91492512  0.83706293  0.65507185  1
  O2-  O527  1  0.88241924  0.82261987  0.97834180  1
  O2-  O528  1  0.08901143  0.16876073  0.02156888  1
  O2-  O529  1  0.08965297  0.18798924  0.36325092  1
  O2-  O530  1  0.07055967  0.14117697  0.67472367  1
  O2-  O531  1  0.09324950  0.42154880  0.00860772  1
  O2-  O532  1  0.10983258  0.38170725  0.29759083  1
  O2-  O533  1  0.12387165  0.46592381  0.68726600  1
  O2-  O534  1  0.09515833  0.67169211  0.01209465  1
  O2-  O535  1  0.08226780  0.64543465  0.34808227  1
  O2-  O536  1  0.06206461  0.65205084  0.68702558  1
  O2-  O537  1  0.05629641  0.93168207  0.02628533  1
  O2-  O538  1  0.03928245  0.95376933  0.37395011  1
  O2-  O539  1  0.08983261  0.89023930  0.68488853  1
  O2-  O540  1  0.33357057  0.15498566  -0.00292900  1
  O2-  O541  1  0.32252152  0.15849446  0.36752591  1
  O2-  O542  1  0.33022150  0.16707733  0.69152423  1
  O2-  O543  1  0.33276241  0.39200111  0.02352435  1
  O2-  O544  1  0.31141146  0.41516915  0.36065604  1
  O2-  O545  1  0.33743993  0.41940240  0.68735587  1
  O2-  O546  1  0.34336347  0.67867467  0.01969456  1
  O2-  O547  1  0.33146884  0.65057528  0.35893920  1
  O2-  O548  1  0.33834124  0.67553919  0.68776413  1
  O2-  O549  1  0.34690312  0.92029133  0.01429784  1
  O2-  O550  1  0.33397993  0.93485907  0.35575829  1
  O2-  O551  1  0.34722503  0.92652558  0.69186257  1
  O2-  O552  1  0.58220634  0.16197733  0.03124652  1
  O2-  O553  1  0.57241057  0.18201095  0.34043245  1
  O2-  O554  1  0.59432377  0.16836149  0.68365676  1
  O2-  O555  1  0.57973054  0.39897568  0.03435819  1
  O2-  O556  1  0.57576697  0.41400601  0.35706197  1
  O2-  O557  1  0.57858728  0.41157928  0.67033933  1
  O2-  O558  1  0.55448178  0.67263734  0.02559392  1
  O2-  O559  1  0.56508866  0.68948601  0.35986256  1
  O2-  O560  1  0.59611613  0.68815120  0.67793134  1
  O2-  O561  1  0.57845369  0.91268224  0.00885810  1
  O2-  O562  1  0.56074765  0.84399390  0.36505789  1
  O2-  O563  1  0.58744932  0.92098372  0.68410219  1
  O2-  O564  1  0.79809107  0.09364444  0.03661727  1
  O2-  O565  1  0.80815156  0.20207358  0.37742044  1
  O2-  O566  1  0.84662935  0.18574383  0.69286444  1
  O2-  O567  1  0.84185382  0.43124811  -0.01225262  1
  O2-  O568  1  0.81879653  0.36516136  0.35781425  1
  O2-  O569  1  0.87544608  0.40537520  0.66044218  1
  O2-  O570  1  0.82828688  0.66869596  0.02769950  1
  O2-  O571  1  0.82736084  0.63633321  0.34817645  1
  O2-  O572  1  0.81533728  0.68285064  0.70004185  1
  O2-  O573  1  0.79590056  0.93755510  0.03530874  1
  O2-  O574  1  0.80645362  0.83855466  0.38208564  1
  O2-  O575  1  0.90875372  0.97379267  0.70648370  1
