# generated using pymatgen
data_H2O
_symmetry_space_group_name_H-M   'P 1'
_cell_length_a   17.98744611
_cell_length_b   17.98807827
_cell_length_c   21.99960863
_cell_angle_alpha   90.00877483
_cell_angle_beta   90.01137656
_cell_angle_gamma   119.97852169
_symmetry_Int_Tables_number   1
_chemical_formula_structural   H2O
_chemical_formula_sum   'H384 O192'
_cell_volume   6165.86181708
_cell_formula_units_Z   192
loop_
 _symmetry_equiv_pos_site_id
 _symmetry_equiv_pos_as_xyz
  1  'x, y, z'
loop_
 _atom_type_symbol
 _atom_type_oxidation_number
  H+  1.0
  O2-  -2.0
loop_
 _atom_site_type_symbol
 _atom_site_label
 _atom_site_symmetry_multiplicity
 _atom_site_fract_x
 _atom_site_fract_y
 _atom_site_fract_z
 _atom_site_occupancy
  H+  H0  1  0.60839667  0.89164146  0.32286433  1
  H+  H1  1  0.68327739  -0.04823933  0.79894188  1
  H+  H2  1  0.63674573  -0.00163053  1.01223146  1
  H+  H3  1  0.89395424  0.27120050  0.82677098  1
  H+  H4  1  0.44616771  0.04204489  0.19642869  1
  H+  H5  1  0.34963102  0.73295795  1.01473425  1
  H+  H6  1  0.35821222  0.22054159  0.66593512  1
  H+  H7  1  0.11127714  0.38263129  0.49086523  1
  H+  H8  1  0.14247237  0.43919650  0.64744188  1
  H+  H9  1  0.48194063  0.61628753  0.66741197  1
  H+  H10  1  0.38506248  0.28517914  0.33850996  1
  H+  H11  1  0.71839041  0.86653988  0.17198955  1
  H+  H12  1  0.24137437  0.81930667  0.98138289  1
  H+  H13  1  0.09438791  0.65015855  0.84948058  1
  H+  H14  1  0.63913854  0.43555397  0.50209985  1
  H+  H15  1  0.62210243  1.00349802  0.49771274  1
  H+  H16  1  0.60363184  0.93308860  0.75866066  1
  H+  H17  1  0.44845234  0.36854885  0.48347029  1
  H+  H18  1  0.87038526  0.13695674  0.15406811  1
  H+  H19  1  0.84642327  0.01351278  0.35323203  1
  H+  H20  1  0.86583105  0.40882979  0.02688912  1
  H+  H21  1  0.24260627  0.59658793  0.32945872  1
  H+  H22  1  0.03115103  0.37829679  0.79362752  1
  H+  H23  1  0.16157377  0.88420496  0.01204636  1
  H+  H24  1  0.88671136  0.76034216  1.00131030  1
  H+  H25  1  0.49640492  0.87298903  0.82521175  1
  H+  H26  1  0.24942589  0.40441779  0.98883850  1
  H+  H27  1  0.17153578  0.57458141  0.60121242  1
  H+  H28  1  0.60042888  0.61945942  0.17384412  1
  H+  H29  1  0.62527776  0.15442210  0.82724874  1
  H+  H30  1  0.26596475  0.63844777  0.16706280  1
  H+  H31  1  0.36226682  0.96443947  0.48503461  1
  H+  H32  1  0.12747008  0.89590441  0.82842931  1
  H+  H33  1  0.34581086  0.67281390  0.76700580  1
  H+  H34  1  0.66984430  0.07437755  0.59264333  1
  H+  H35  1  0.95265146  0.84515304  0.17240469  1
  H+  H36  1  0.36760583  0.63650299  0.67702857  1
  H+  H37  1  0.11793781  0.47339057  0.16722895  1
  H+  H38  1  0.11024421  0.15153119  0.35376137  1
  H+  H39  1  0.60640882  0.38129208  0.00581867  1
  H+  H40  1  0.10069407  0.97631564  0.51298783  1
  H+  H41  1  0.38498849  0.52158789  0.51206072  1
  H+  H42  1  0.38587315  0.77187191  0.66549987  1
  H+  H43  1  0.88139055  1.03322138  0.37659782  1
  H+  H44  1  0.27216057  0.39316350  0.82022721  1
  H+  H45  1  0.62170793  0.73437701  1.01157992  1
  H+  H46  1  0.22470410  0.12213095  0.34849829  1
  H+  H47  1  0.64483498  0.02220744  0.65405050  1
  H+  H48  1  0.62742109  0.86111193  0.52154491  1
  H+  H49  1  0.15064885  0.59385997  0.80598218  1
  H+  H50  1  0.62066294  0.65453335  0.51324644  1
  H+  H51  1  0.61315647  0.77320656  0.31774967  1
  H+  H52  1  0.78428939  0.64625117  0.50689512  1
  H+  H53  1  0.39096291  0.73138696  0.01654605  1
  H+  H54  1  0.64024407  0.52292266  0.66721840  1
  H+  H55  1  0.08808874  0.92741911  0.01456344  1
  H+  H56  1  0.88684690  0.35538028  0.65873222  1
  H+  H57  1  0.62601345  0.25379255  0.14518485  1
  H+  H58  1  0.99147242  0.15420805  0.31293589  1
  H+  H59  1  0.02332392  0.14403071  0.16063596  1
  H+  H60  1  0.19502440  0.66459210  0.96000371  1
  H+  H61  1  0.36741704  0.89408605  0.67241456  1
  H+  H62  1  0.52529169  0.38556872  0.66524806  1
  H+  H63  1  0.32868575  0.83246547  0.33990028  1
  H+  H64  1  0.52196052  0.88372303  0.67396439  1
  H+  H65  1  0.09873598  0.13298399  0.81514778  1
  H+  H66  1  0.33919516  0.95916943  0.14875324  1
  H+  H67  1  0.64021391  0.35835522  0.32974812  1
  H+  H68  1  0.89364446  0.61507804  0.33509908  1
  H+  H69  1  0.85246165  0.62537260  0.83014386  1
  H+  H70  1  0.50568633  0.64504262  0.16826949  1
  H+  H71  1  0.14535118  0.60832403  0.50458722  1
  H+  H72  1  0.37247100  0.39852133  0.16660827  1
  H+  H73  1  0.11725391  0.47357455  0.33682872  1
  H+  H74  1  0.37744013  0.85180278  0.50642614  1
  H+  H75  1  0.13660302  0.61291669  0.17897914  1
  H+  H76  1  0.77294455  0.88715657  0.01182869  1
  H+  H77  1  0.01774589  0.62035864  0.17075148  1
  H+  H78  1  0.71056376  0.09404355  0.49106762  1
  H+  H79  1  0.64123282  0.58375240  0.23468247  1
  H+  H80  1  0.38750578  0.36608774  0.65534154  1
  H+  H81  1  0.11744014  0.24317850  0.34707657  1
  H+  H82  1  0.36819915  0.63026717  0.49973291  1
  H+  H83  1  0.85148339  0.13289252  0.48354520  1
  H+  H84  1  0.70183806  0.37541704  0.10607362  1
  H+  H85  1  0.37987479  0.73693345  0.33271787  1
  H+  H86  1  0.85992105  0.72341749  0.67964308  1
  H+  H87  1  0.87611134  0.01992444  0.99320722  1
  H+  H88  1  0.48524207  0.11998903  0.99915931  1
  H+  H89  1  0.88728059  0.61099938  0.66571098  1
  H+  H90  1  0.63142005  0.51529098  0.84385327  1
  H+  H91  1  0.87463123  0.15133722  0.00134523  1
  H+  H92  1  0.96736403  0.86901523  0.52138023  1
  H+  H93  1  0.30184077  0.15635040  0.16324431  1
  H+  H94  1  0.62234142  0.84605840  0.84974151  1
  H+  H95  1  0.37533107  0.76245997  0.15591093  1
  H+  H96  1  0.05680070  0.60717270  0.00437509  1
  H+  H97  1  0.11910569  0.96115840  0.67119619  1
  H+  H98  1  0.82932703  0.25007058  0.50038929  1
  H+  H99  1  0.61717603  0.63739955  0.68069354  1
  H+  H100  1  -0.00858754  0.64038900  0.01174910  1
  H+  H101  1  0.37965959  0.53378022  0.18408974  1
  H+  H102  1  0.10401436  0.22442197  0.81941219  1
  H+  H103  1  0.63150096  0.77392869  0.51948164  1
  H+  H104  1  0.63717939  0.11801458  0.31147494  1
  H+  H105  1  0.02401261  0.88480884  0.35438737  1
  H+  H106  1  0.12566317  0.42237509  1.00050380  1
  H+  H107  1  0.38320913  0.90867554  0.99372750  1
  H+  H108  1  0.32647786  0.17083864  0.41109197  1
  H+  H109  1  0.13947471  0.36334127  0.82248015  1
  H+  H110  1  0.89235371  0.52726028  0.33159227  1
  H+  H111  1  0.28914065  0.64270487  0.82613302  1
  H+  H112  1  0.53615012  0.15526491  0.83120963  1
  H+  H113  1  0.73104615  0.36641421  0.65985270  1
  H+  H114  1  0.87850683  0.02480504  0.50188614  1
  H+  H115  1  0.63561015  0.54683264  0.52018647  1
  H+  H116  1  0.07905354  -0.06006995  0.17125612  1
  H+  H117  1  0.37868240  0.48533573  0.01331106  1
  H+  H118  1  0.64008221  0.77367150  0.66860365  1
  H+  H119  1  0.42645386  0.58533636  0.93763618  1
  H+  H120  1  0.27543066  0.63011814  0.67680413  1
  H+  H121  1  0.16347317  0.90269258  0.98071321  1
  H+  H122  1  0.25409070  0.86501139  0.14198181  1
  H+  H123  1  0.14622651  0.27279541  0.18164089  1
  H+  H124  1  0.13175454  0.75338346  0.15849191  1
  H+  H125  1  0.37439910  0.61994671  0.17972992  1
  H+  H126  1  0.38103343  1.02188849  0.65588771  1
  H+  H127  1  0.37223663  0.23930337  0.82317500  1
  H+  H128  1  0.09995546  0.73812072  0.68396791  1
  H+  H129  1  0.48997635  0.61890123  0.99588693  1
  H+  H130  1  0.62960560  0.60344495  0.84178853  1
  H+  H131  1  0.34327058  0.58597940  0.02124990  1
  H+  H132  1  0.53382109  0.40073093  0.16559650  1
  H+  H133  1  0.12819230  1.02510820  0.82656006  1
  H+  H134  1  0.86541915  0.47544431  0.67566069  1
  H+  H135  1  0.12805800  0.11494615  0.51554932  1
  H+  H136  1  0.27658064  0.39584720  0.67223448  1
  H+  H137  1  0.34616038  0.22758445  0.49533776  1
  H+  H138  1  0.54145897  0.32895732  0.80661474  1
  H+  H139  1  0.73887354  0.13383446  0.99488909  1
  H+  H140  1  0.17225644  0.82123062  0.32210015  1
  H+  H141  1  0.90388496  0.75514232  0.85281780  1
  H+  H142  1  0.41252111  0.33947066  0.59337503  1
  H+  H143  1  0.78477890  0.13098888  0.65810565  1
  H+  H144  1  0.16822930  0.04673731  0.95759086  1
  H+  H145  1  0.41183412  0.82686623  0.60461994  1
  H+  H146  1  -0.01394138  0.88449862  0.01553366  1
  H+  H147  1  0.63228608  0.23801569  0.50787245  1
  H+  H148  1  0.61156745  0.88265965  0.67423031  1
  H+  H149  1  0.52829745  0.39410227  0.34586583  1
  H+  H150  1  0.79067758  0.41840255  0.48639722  1
  H+  H151  1  0.47669380  0.21397089  0.29524054  1
  H+  H152  1  0.64517489  0.87468176  -0.00086558  1
  H+  H153  1  0.79117845  0.67808612  0.36204581  1
  H+  H154  1  0.37577274  0.76035306  0.50899299  1
  H+  H155  1  0.85638649  0.89243290  0.16964562  1
  H+  H156  1  0.41013957  0.13300787  0.83653063  1
  H+  H157  1  0.12846940  0.84172515  0.15657730  1
  H+  H158  1  0.88096069  0.88738121  0.83484128  1
  H+  H159  1  0.85895687  0.23793222  0.32879397  1
  H+  H160  1  0.36256528  0.39648547  0.82557875  1
  H+  H161  1  0.26090749  0.13561573  0.50012684  1
  H+  H162  1  0.35532842  0.48417623  0.34795734  1
  H+  H163  1  0.11535707  0.50351579  1.00517363  1
  H+  H164  1  1.02244297  0.79792292  0.29748279  1
  H+  H165  1  0.06696127  0.23244155  0.00659695  1
  H+  H166  1  0.13411272  0.10008542  0.66524429  1
  H+  H167  1  0.22444810  0.10312467  0.66385068  1
  H+  H168  1  0.09442590  0.98353245  0.36996780  1
  H+  H169  1  0.49766075  0.64256809  0.33861330  1
  H+  H170  1  0.61663248  0.52771151  0.16835712  1
  H+  H171  1  0.68188905  0.59279984  0.93549479  1
  H+  H172  1  0.65211964  0.27903251  0.84468681  1
  H+  H173  1  0.71417776  0.86512634  0.84140680  1
  H+  H174  1  0.84027240  0.84501614  0.83139553  1
  H+  H175  1  0.77314115  0.14609785  0.32220305  1
  H+  H176  1  0.06139065  0.25470749  1.03384889  1
  H+  H177  1  0.16338941  0.61116124  0.34287783  1
  H+  H178  1  0.78411520  0.62244084  -0.00000519  1
  H+  H179  1  0.61093073  0.22990941  0.00191598  1
  H+  H180  1  0.11900075  0.78071546  0.54361344  1
  H+  H181  1  0.47575590  0.36693587  0.99228296  1
  H+  H182  1  0.72886492  0.36618618  1.00394696  1
  H+  H183  1  0.60145533  0.23533513  0.67442876  1
  H+  H184  1  0.88496040  0.86389745  0.67207107  1
  H+  H185  1  0.33474595  0.91513813  0.05462913  1
  H+  H186  1  0.73000559  0.58997300  0.29425945  1
  H+  H187  1  0.40700862  0.29075532  0.18153206  1
  H+  H188  1  0.11391420  0.22481135  0.66737937  1
  H+  H189  1  0.50055940  0.15050845  0.32709797  1
  H+  H190  1  -0.03045441  0.11502825  0.83473302  1
  H+  H191  1  0.99477751  0.84374018  0.85245012  1
  H+  H192  1  0.22620939  0.36524691  0.51054103  1
  H+  H193  1  0.63605646  0.03006020  0.30006324  1
  H+  H194  1  0.97027552  0.85515855  0.66683871  1
  H+  H195  1  0.42419885  0.82052398  0.97746170  1
  H+  H196  1  0.18327275  0.05531699  0.13368526  1
  H+  H197  1  0.76311352  0.88731625  0.50592386  1
  H+  H198  1  0.93118616  0.95416754  0.28826940  1
  H+  H199  1  0.95403956  0.95205293  0.31642020  1
  H+  H200  1  0.82334873  0.16169702  0.42184633  1
  H+  H201  1  0.83629382  0.86889079  0.35243847  1
  H+  H202  1  0.38678616  0.27964282  0.98967645  1
  H+  H203  1  0.09726524  0.73117896  0.30603966  1
  H+  H204  1  0.89462645  0.57898867  0.90821703  1
  H+  H205  1  0.36237328  0.15195074  0.34878494  1
  H+  H206  1  0.90211834  0.51056283  0.18943071  1
  H+  H207  1  0.11418538  0.86540292  0.53153597  1
  H+  H208  1  0.39051803  0.37655936  0.33535314  1
  H+  H209  1  0.48147248  0.86091618  0.15317661  1
  H+  H210  1  0.14327401  0.74234800  0.98428028  1
  H+  H211  1  0.64532796  0.12589216  0.99595332  1
  H+  H212  1  0.86946141  0.73739742  0.50727410  1
  H+  H213  1  0.91373974  0.08475885  0.89693526  1
  H+  H214  1  0.28963097  0.89918851  0.82531079  1
  H+  H215  1  0.45396276  0.83545655  0.32348127  1
  H+  H216  1  0.92916092  0.75897197  0.32694995  1
  H+  H217  1  0.66522380  0.63051174  0.99660948  1
  H+  H218  1  0.88346815  0.03185662  0.17089146  1
  H+  H219  1  0.66290270  0.37295440  0.84440892  1
  H+  H220  1  0.14629055  0.11336693  0.98555553  1
  H+  H221  1  0.32511990  -0.08366182  0.32840334  1
  H+  H222  1  -0.01460830  0.39073066  -0.00039524  1
  H+  H223  1  0.47425795  0.38032178  0.84122992  1
  H+  H224  1  0.85688302  0.30628447  0.16080039  1
  H+  H225  1  0.43817514  0.10825631  0.24014194  1
  H+  H226  1  0.64867014  0.03859684  0.83786026  1
  H+  H227  1  0.77566647  0.88904483  0.67267454  1
  H+  H228  1  0.28397461  0.14565851  1.00261658  1
  H+  H229  1  0.38868703  0.11950300  0.99974770  1
  H+  H230  1  0.14254464  0.78576573  0.82954066  1
  H+  H231  1  0.52688715  0.64286471  0.50776370  1
  H+  H232  1  0.49710364  0.86358511  0.50355924  1
  H+  H233  1  0.77322153  0.14328218  0.15141950  1
  H+  H234  1  0.88315420  0.50167382  0.49376039  1
  H+  H235  1  0.52278337  0.63168273  0.83276054  1
  H+  H236  1  0.38662378  0.52593913  0.84015054  1
  H+  H237  1  0.76737176  0.63164402  0.82945674  1
  H+  H238  1  0.85804295  0.88145473  1.01013070  1
  H+  H239  1  0.13565243  0.27185644  0.51609271  1
  H+  H240  1  0.88322974  0.51783915  0.85016203  1
  H+  H241  1  0.25827916  0.59004120  0.01319356  1
  H+  H242  1  0.61368967  0.71870478  0.83528707  1
  H+  H243  1  0.23507349  0.37619660  0.33061959  1
  H+  H244  1  0.73090101  0.29186230  0.52440980  1
  H+  H245  1  0.36381416  0.37208130  0.49390833  1
  H+  H246  1  0.53879096  0.16366136  0.15958454  1
  H+  H247  1  0.97974173  0.36970973  0.31810041  1
  H+  H248  1  0.46546691  0.11615352  0.65672767  1
  H+  H249  1  0.77753588  0.15350902  0.83236194  1
  H+  H250  1  0.38551680  0.14902929  0.16011219  1
  H+  H251  1  0.63053881  0.34923764  0.48462555  1
  H+  H252  1  0.39542824  0.61910100  0.84239117  1
  H+  H253  1  0.39228744  0.52658514  0.66615879  1
  H+  H254  1  0.88209249  0.39278811  0.82583167  1
  H+  H255  1  0.97771346  0.61451306  0.66546566  1
  H+  H256  1  0.37938658  0.90142222  0.82227826  1
  H+  H257  1  0.62893874  0.41423778  0.15601449  1
  H+  H258  1  0.35813366  0.13143165  0.66719583  1
  H+  H259  1  0.40993958  0.04466582  0.83663409  1
  H+  H260  1  0.61582018  0.38616262  0.66537706  1
  H+  H261  1  0.08561546  0.90796972  0.76849742  1
  H+  H262  1  0.01487089  0.13962886  0.49919384  1
  H+  H263  1  0.62232000  0.22818666  0.34290038  1
  H+  H264  1  0.87835770  0.24436768  1.00552845  1
  H+  H265  1  0.14146908  0.37344255  0.32493737  1
  H+  H266  1  0.60063548  0.73153092  0.16549073  1
  H+  H267  1  0.90050255  0.62361984  0.51431869  1
  H+  H268  1  0.37802372  0.85713304  0.15262855  1
  H+  H269  1  -0.03125219  0.09718578  -0.00609243  1
  H+  H270  1  0.85444918  0.35046876  0.50136496  1
  H+  H271  1  0.85518956  0.53923647  1.01739080  1
  H+  H272  1  0.04623695  0.03335191  0.03763876  1
  H+  H273  1  0.83821762  0.71524163  0.15756495  1
  H+  H274  1  0.64165385  0.52166880  0.32303598  1
  H+  H275  1  0.82941459  0.99874873  0.81856216  1
  H+  H276  1  0.90224344  0.15474461  0.30744608  1
  H+  H277  1  0.59440448  0.11050472  0.48679104  1
  H+  H278  1  0.13594241  0.59184199  0.66172463  1
  H+  H279  1  0.38659165  1.02221055  -0.00258595  1
  H+  H280  1  0.78964455  0.38647872  0.83370584  1
  H+  H281  1  0.10785304  0.13724933  0.16880301  1
  H+  H282  1  0.54737908  0.91652243  -0.00003666  1
  H+  H283  1  0.97651973  0.10621680  0.64893258  1
  H+  H284  1  0.58278377  0.63660480  0.33088780  1
  H+  H285  1  0.86667167  0.39269994  0.33776194  1
  H+  H286  1  0.70599730  0.84847680  0.33082342  1
  H+  H287  1  0.13127685  0.85296671  0.62463479  1
  H+  H288  1  0.36603273  0.39126095  1.01077245  1
  H+  H289  1  0.66946284  0.83658741  0.94095104  1
  H+  H290  1  0.57848244  0.41889714  0.06140963  1
  H+  H291  1  0.90356393  0.83302394  0.57814333  1
  H+  H292  1  0.08693821  0.42553434  0.10622850  1
  H+  H293  1  0.16117530  0.08322947  0.57344516  1
  H+  H294  1  0.92358538  0.58475498  0.57115552  1
  H+  H295  1  0.83088909  0.65568646  0.10340760  1
  H+  H296  1  0.87294926  0.22093525  0.65993082  1
  H+  H297  1  0.67117819  0.09281467  0.90043240  1
  H+  H298  1  0.17288754  0.58903862  0.23924076  1
  H+  H299  1  0.37730835  0.10521735  0.50425028  1
  H+  H300  1  0.66590735  0.83295315  0.60849836  1
  H+  H301  1  0.86341436  0.14640559  0.83012435  1
  H+  H302  1  0.00475533  0.63927359  0.83555702  1
  H+  H303  1  0.07805869  0.16584513  0.72568353  1
  H+  H304  1  0.93089400  0.58108177  0.24321065  1
  H+  H305  1  0.92245909  0.81490377  0.94042776  1
  H+  H306  1  0.40683477  0.78495805  0.83267217  1
  H+  H307  1  0.42787000  0.34705034  0.24245846  1
  H+  H308  1  0.83646777  0.41635083  0.73452942  1
  H+  H309  1  0.91646549  0.35395617  0.26137633  1
  H+  H310  1  0.58648077  0.67142186  0.06829928  1
  H+  H311  1  0.57395362  0.17964382  0.73438642  1
  H+  H312  1  0.11576471  0.47203639  0.48832285  1
  H+  H313  1  0.14555118  0.50552322  0.81418789  1
  H+  H314  1  0.86551138  0.97840297  0.66841667  1
  H+  H315  1  0.38498234  0.59908700  0.28217971  1
  H+  H316  1  0.84237710  0.42794272  0.39741829  1
  H+  H317  1  0.65951401  0.83750434  0.23175332  1
  H+  H318  1  0.67333377  0.32576600  0.59960340  1
  H+  H319  1  0.90902554  0.08349653  0.56083626  1
  H+  H320  1  0.44949337  0.87266558  0.91656966  1
  H+  H321  1  0.96386184  0.33954672  0.87395770  1
  H+  H322  1  0.33614073  0.42079375  0.73128523  1
  H+  H323  1  0.58613808  0.66624015  0.73956258  1
  H+  H324  1  0.24358774  0.36543145  0.18006476  1
  H+  H325  1  0.07820430  0.67232092  0.73682041  1
  H+  H326  1  0.32597221  0.89441418  0.43084896  1
  H+  H327  1  0.67919923  0.10410745  0.21340812  1
  H+  H328  1  0.92496705  0.11037534  0.22326597  1
  H+  H329  1  0.34634728  0.17656024  0.76586785  1
  H+  H330  1  0.58125244  0.15588753  0.39696310  1
  H+  H331  1  0.58136832  0.17444559  0.06289239  1
  H+  H332  1  0.17601937  0.58651119  0.91668353  1
  H+  H333  1  0.23277192  0.60746397  0.50687502  1
  H+  H334  1  0.32608610  0.42163041  0.40596198  1
  H+  H335  1  0.58407892  0.94159831  0.37184412  1
  H+  H336  1  0.68105899  0.33953052  0.93886265  1
  H+  H337  1  0.84740690  0.67838575  0.41693796  1
  H+  H338  1  0.57760879  0.91580603  0.09828756  1
  H+  H339  1  0.34305313  0.93028776  0.72957217  1
  H+  H340  1  0.17415669  0.35312944  0.88753548  1
  H+  H341  1  0.65943708  0.14363154  0.15456839  1
  H+  H342  1  0.15742350  0.32533404  0.98395641  1
  H+  H343  1  0.91364122  0.37248944  0.94969538  1
  H+  H344  1  0.72897025  0.35933240  0.33110362  1
  H+  H345  1  0.50809529  0.11842116  0.48856553  1
  H+  H346  1  0.17946010  0.10495065  0.87084941  1
  H+  H347  1  0.83187559  0.66255939  0.73842672  1
  H+  H348  1  0.06771402  0.64641790  0.10560482  1
  H+  H349  1  0.15249538  0.08102486  0.29737838  1
  H+  H350  1  0.16685922  0.34054834  0.59777946  1
  H+  H351  1  0.84065457  0.42489852  0.09201865  1
  H+  H352  1  0.80160235  0.93884858  0.75913440  1
  H+  H353  1  0.73108208  0.61295298  0.67120712  1
  H+  H354  1  0.55066724  0.85980844  0.44748582  1
  H+  H355  1  0.33723409  0.42266278  0.10665187  1
  H+  H356  1  0.41736486  0.58016039  0.57361198  1
  H+  H357  1  0.83337030  0.92082107  0.10656509  1
  H+  H358  1  0.59631119  0.87577985  0.15892045  1
  H+  H359  1  0.84591660  0.17590526  0.09107399  1
  H+  H360  1  0.18079443  0.33708518  0.24967775  1
  H+  H361  1  0.08408600  0.41099142  0.39458698  1
  H+  H362  1  0.85180675  0.88631682  0.50472924  1
  H+  H363  1  0.09822279  0.39506651  0.73834786  1
  H+  H364  1  0.41554274  0.34753802  0.90093126  1
  H+  H365  1  0.07826588  0.17620043  0.44280512  1
  H+  H366  1  0.58090936  0.40214112  0.75793196  1
  H+  H367  1  0.19312854  0.04920508  0.20395029  1
  H+  H368  1  0.34333397  0.17532122  0.06439300  1
  H+  H369  1  0.34039168  0.64879496  0.43488192  1
  H+  H370  1  0.79561253  0.87233610  0.41481079  1
  H+  H371  1  0.67499305  0.59351950  0.58351266  1
  H+  H372  1  0.28311457  0.46396840  0.46381509  1
  H+  H373  1  0.88741671  0.31730593  0.59554724  1
  H+  H374  1  0.18394019  0.82109639  0.89221048  1
  H+  H375  1  0.88862161  0.11146016  0.65055400  1
  H+  H376  1  0.40805324  0.07538208  0.56216837  1
  H+  H377  1  0.59749287  0.41605998  0.39905049  1
  H+  H378  1  0.06384611  0.91401973  0.45585101  1
  H+  H379  1  0.07202331  0.12308543  0.07045308  1
  H+  H380  1  0.31466655  0.63896803  0.10522332  1
  H+  H381  1  0.05254201  0.90373677  0.10403339  1
  H+  H382  1  0.74692609  0.37320887  0.16513988  1
  H+  H383  1  0.91385785  0.81934608  0.23634592  1
  O2-  O384  1  0.08604796  0.17157271  0.14932157  1
  O2-  O385  1  0.07761543  0.17030777  0.48794089  1
  O2-  O386  1  0.06795041  0.16550988  0.80323967  1
  O2-  O387  1  0.09162115  0.41543867  0.14942408  1
  O2-  O388  1  0.08729053  0.41424833  0.46950525  1
  O2-  O389  1  0.09347595  0.40771483  0.78208724  1
  O2-  O390  1  0.07845405  0.65273076  0.14966584  1
  O2-  O391  1  0.09810833  0.65506225  0.44794840  1
  O2-  O392  1  0.06579793  0.66838578  0.82043126  1
  O2-  O393  1  0.05904765  0.88813145  0.14698083  1
  O2-  O394  1  0.06758458  0.91412215  0.50211002  1
  O2-  O395  1  0.08873596  0.91647656  0.81326576  1
  O2-  O396  1  0.36032551  0.18392869  0.14620342  1
  O2-  O397  1  0.32115872  0.16649151  0.48332108  1
  O2-  O398  1  0.35822504  0.18140470  0.81014716  1
  O2-  O399  1  0.33557885  0.42187154  0.15246601  1
  O2-  O400  1  0.31043265  0.43052531  0.47462530  1
  O2-  O401  1  0.33410962  0.42740681  0.80765030  1
  O2-  O402  1  0.32562059  0.66549996  0.14714944  1
  O2-  O403  1  0.33589879  0.65597969  0.47967781  1
  O2-  O404  1  0.34958950  0.67752461  0.81304045  1
  O2-  O405  1  0.32107956  0.90342698  0.13009495  1
  O2-  O406  1  0.34116194  0.90371681  0.47448443  1
  O2-  O407  1  0.34995706  0.93335524  0.81103718  1
  O2-  O408  1  0.59335758  0.18985057  0.13673858  1
  O2-  O409  1  0.56874931  0.14608538  0.47268497  1
  O2-  O410  1  0.59869867  0.18962017  0.81606335  1
  O2-  O411  1  0.59063181  0.43763148  0.14555961  1
  O2-  O412  1  0.60697657  0.38755818  0.47464738  1
  O2-  O413  1  0.57623941  0.39142031  0.80350968  1
  O2-  O414  1  0.56581673  0.67004108  0.15131571  1
  O2-  O415  1  0.58828124  0.68068948  0.49642074  1
  O2-  O416  1  0.58387897  0.65946547  0.81799884  1
  O2-  O417  1  0.56216895  0.90156552  0.14226717  1
  O2-  O418  1  0.55852335  0.89050581  0.48548894  1
  O2-  O419  1  0.62310051  0.94124050  0.80299578  1
  O2-  O420  1  0.84021044  0.17051503  0.13734165  1
  O2-  O421  1  0.81509717  0.15580752  0.46678525  1
  O2-  O422  1  0.83828001  0.18264279  0.81820205  1
  O2-  O423  1  0.84289623  0.40793131  0.16437654  1
  O2-  O424  1  0.84999223  0.44203038  0.47317166  1
  O2-  O425  1  0.84924373  0.42291086  0.81730561  1
  O2-  O426  1  0.80460786  0.65637080  0.14220799  1
  O2-  O427  1  0.84402283  0.67679619  0.49127497  1
  O2-  O428  1  0.82764778  0.66021175  0.81414958  1
  O2-  O429  1  0.82992803  0.92499464  0.15170262  1
  O2-  O430  1  0.82097502  0.91404599  0.48587843  1
  O2-  O431  1  0.77940012  0.94934985  0.79817515  1
  O2-  O432  1  0.18291565  0.08156465  0.17256589  1
  O2-  O433  1  0.16030718  0.08536968  0.52786336  1
  O2-  O434  1  0.15183515  0.08806213  0.83104513  1
  O2-  O435  1  0.18487101  0.33008557  0.20073569  1
  O2-  O436  1  0.16720711  0.33240051  0.53169955  1
  O2-  O437  1  0.16965856  0.33670938  0.84410997  1
  O2-  O438  1  0.17432724  0.59028726  0.19401313  1
  O2-  O439  1  0.17295976  0.57883723  0.52378807  1
  O2-  O440  1  0.17120594  0.56472524  0.83270749  1
  O2-  O441  1  0.16754976  0.81847287  0.16014886  1
  O2-  O442  1  0.14242789  0.83976651  0.55703455  1
  O2-  O443  1  0.18081423  0.84048249  0.85041759  1
  O2-  O444  1  0.43410648  0.08928035  0.19592199  1
  O2-  O445  1  0.40782438  0.07457812  0.51620379  1
  O2-  O446  1  0.44163819  0.10414228  0.85235300  1
  O2-  O447  1  0.43238187  0.35026289  0.19693309  1
  O2-  O448  1  0.39448958  0.34125335  0.50591724  1
  O2-  O449  1  0.41422986  0.35014319  0.85521089  1
  O2-  O450  1  0.40706209  0.59366142  0.19917162  1
  O2-  O451  1  0.41979501  0.58204514  0.52821917  1
  O2-  O452  1  0.42118896  0.58498457  0.85825747  1
  O2-  O453  1  0.41004934  0.82733641  0.16583649  1
  O2-  O454  1  0.40492045  0.81961045  0.52623962  1
  O2-  O455  1  0.43930937  0.84746200  0.84400320  1
  O2-  O456  1  0.68911249  0.11248393  0.16835509  1
  O2-  O457  1  0.65128642  0.06507357  0.50870319  1
  O2-  O458  1  0.67242020  0.09736348  0.85539741  1
  O2-  O459  1  0.68676530  0.35863255  0.14858058  1
  O2-  O460  1  0.67706326  0.29614392  0.52363460  1
  O2-  O461  1  0.68839999  0.34050808  0.86220410  1
  O2-  O462  1  0.62900841  0.58382998  0.18961612  1
  O2-  O463  1  0.67862291  0.60138049  0.53736779  1
  O2-  O464  1  0.66262247  0.57535154  0.85684416  1
  O2-  O465  1  0.65731892  0.83493251  0.18582285  1
  O2-  O466  1  0.66301246  0.83621864  0.53511286  1
  O2-  O467  1  0.65955671  0.82345612  0.86332303  1
  O2-  O468  1  0.91701333  0.09581913  0.17688344  1
  O2-  O469  1  0.90836315  0.08630264  0.51484195  1
  O2-  O470  1  0.90986237  0.08755053  0.85211820  1
  O2-  O471  1  0.88983183  0.36205858  0.18068020  1
  O2-  O472  1  0.82712907  0.29589732  0.52458937  1
  O2-  O473  1  0.93867121  0.33837112  0.83453824  1
  O2-  O474  1  0.93264166  0.57362807  0.19822710  1
  O2-  O475  1  0.92757283  0.58932477  0.52605995  1
  O2-  O476  1  0.90523178  0.57886856  0.86419820  1
  O2-  O477  1  0.89853925  0.82829045  0.19459130  1
  O2-  O478  1  0.90432886  0.83585317  0.53273135  1
  O2-  O479  1  0.94986402  0.79912946  0.87891795  1
  O2-  O480  1  0.16069846  0.09253107  0.34070089  1
  O2-  O481  1  0.16261749  0.06799106  0.65048866  1
  O2-  O482  1  0.19220912  0.10839431  0.96288363  1
  O2-  O483  1  0.17565679  0.34420998  0.31159566  1
  O2-  O484  1  0.16960585  0.34474245  0.64639189  1
  O2-  O485  1  0.19197908  0.38395404  0.96859236  1
  O2-  O486  1  0.18071992  0.57742158  0.31738665  1
  O2-  O487  1  0.17111518  0.56810673  0.64660167  1
  O2-  O488  1  0.17807987  0.60295678  0.95982514  1
  O2-  O489  1  0.11721679  0.79201916  0.30012555  1
  O2-  O490  1  0.12824424  0.85415562  0.67183892  1
  O2-  O491  1  0.19610971  0.76968580  0.95879766  1
  O2-  O492  1  0.45047697  0.15311291  0.30536224  1
  O2-  O493  1  0.40666294  0.08210041  0.63826236  1
  O2-  O494  1  0.42007949  0.08720709  0.98795984  1
  O2-  O495  1  0.42000362  0.34430620  0.32167796  1
  O2-  O496  1  0.41784937  0.33714023  0.63790880  1
  O2-  O497  1  0.41405007  0.34039915  0.97693081  1
  O2-  O498  1  0.38729686  0.59224048  0.32701556  1
  O2-  O499  1  0.42145954  0.58773719  0.65198144  1
  O2-  O500  1  0.42853847  0.58423504  0.98294610  1
  O2-  O501  1  0.39211682  0.79551228  0.31950431  1
  O2-  O502  1  0.41773108  0.83176116  0.64983264  1
  O2-  O503  1  0.45109724  0.87985588  0.96234037  1
  O2-  O504  1  0.66805141  0.09243496  0.28971914  1
  O2-  O505  1  0.68073871  0.08018294  0.63678764  1
  O2-  O506  1  0.67803706  0.09789786  0.98176935  1
  O2-  O507  1  0.66698014  0.32368417  0.31928885  1
  O2-  O508  1  0.67117176  0.33998012  0.64310996  1
  O2-  O509  1  0.67171991  0.33375159  0.98415839  1
  O2-  O510  1  0.67209263  0.57934611  0.30215549  1
  O2-  O511  1  0.67002728  0.58498560  0.65537805  1
  O2-  O512  1  0.69869499  0.60592735  0.97879432  1
  O2-  O513  1  0.65311884  0.83566777  0.30686663  1
  O2-  O514  1  0.66899599  0.83451111  0.65444751  1
  O2-  O515  1  0.67182359  0.83985149  0.98640338  1
  O2-  O516  1  0.94730503  0.15014432  0.28393726  1
  O2-  O517  1  0.91593039  0.07510466  0.63512051  1
  O2-  O518  1  0.91052382  0.08086672  0.97904697  1
  O2-  O519  1  0.91831865  0.34331375  0.30540916  1
  O2-  O520  1  0.91306592  0.32645578  0.63663045  1
  O2-  O521  1  0.92120552  0.35733063  0.99083616  1
  O2-  O522  1  0.92590600  0.58872005  0.31902094  1
  O2-  O523  1  0.91714414  0.58032110  0.65087856  1
  O2-  O524  1  0.88128784  0.59351168  0.99280606  1
  O2-  O525  1  0.97206050  0.80680421  0.30140336  1
  O2-  O526  1  0.90865631  0.82754975  0.65578542  1
  O2-  O527  1  0.90667585  0.81880233  0.98516695  1
  O2-  O528  1  0.06109029  0.09388375  0.03050218  1
  O2-  O529  1  0.08013865  0.18396777  0.36291480  1
  O2-  O530  1  0.08569104  0.16420680  0.68062195  1
  O2-  O531  1  0.08692606  0.44243692  0.01667260  1
  O2-  O532  1  0.08448727  0.41126283  0.34843249  1
  O2-  O533  1  0.11323126  0.37962041  0.66309868  1
  O2-  O534  1  0.05199416  0.65536414  0.02013237  1
  O2-  O535  1  0.11982587  0.67062406  0.39300669  1
  O2-  O536  1  0.08284127  0.67743896  0.69217305  1
  O2-  O537  1  0.04281167  0.93275546  0.03543252  1
  O2-  O538  1  0.05515163  0.92699380  0.38747812  1
  O2-  O539  1  0.08187317  0.90016838  0.68652750  1
  O2-  O540  1  0.34381876  0.17107207  0.01940266  1
  O2-  O541  1  0.32711372  0.17569879  0.36480626  1
  O2-  O542  1  0.32828276  0.16238884  0.68386642  1
  O2-  O543  1  0.34037528  0.42500126  0.02820286  1
  O2-  O544  1  0.33252027  0.42276431  0.35882464  1
  O2-  O545  1  0.33740971  0.42082715  0.68555344  1
  O2-  O546  1  0.29179788  0.57873118  0.04322308  1
  O2-  O547  1  0.34070517  0.63407199  0.35409795  1
  O2-  O548  1  0.33523745  0.66466700  0.69290494  1
  O2-  O549  1  0.34029735  0.92418052  0.00925806  1
  O2-  O550  1  0.29573112  0.86280553  0.35101567  1
  O2-  O551  1  0.33904007  0.92678372  0.68464569  1
  O2-  O552  1  0.57826809  0.16870843  0.01711330  1
  O2-  O553  1  0.58628845  0.16365348  0.35145124  1
  O2-  O554  1  0.55995585  0.17821664  0.69083030  1
  O2-  O555  1  0.56977119  0.40546649  0.01764711  1
  O2-  O556  1  0.59105203  0.42354358  0.35487800  1
  O2-  O557  1  0.58431218  0.41453027  0.68315498  1
  O2-  O558  1  0.59386048  0.67261823  0.02367424  1
  O2-  O559  1  0.56144002  0.67555032  0.33965536  1
  O2-  O560  1  0.58622945  0.66777328  0.69411181  1
  O2-  O561  1  0.60135420  0.93615548  0.02363598  1
  O2-  O562  1  0.57672170  0.92479733  0.32920727  1
  O2-  O563  1  0.58313145  0.91549684  0.68808938  1
  O2-  O564  1  0.84759745  0.18343643  0.01931723  1
  O2-  O565  1  0.83055556  0.17649756  0.34207154  1
  O2-  O566  1  0.84626910  0.15900534  0.67119688  1
  O2-  O567  1  0.83112463  0.43079002  0.04655992  1
  O2-  O568  1  0.83349049  0.42009375  0.35240357  1
  O2-  O569  1  0.83226886  0.41435107  0.68956370  1
  O2-  O570  1  0.84603733  0.64515938  0.01877210  1
  O2-  O571  1  0.84396892  0.67755365  0.37089686  1
  O2-  O572  1  0.83161053  0.66183355  0.69265863  1
  O2-  O573  1  0.83446775  0.91729665  0.02580328  1
  O2-  O574  1  0.78153194  0.84424068  0.37363685  1
  O2-  O575  1  0.83537017  0.92082845  0.68970476  1
