# generated using pymatgen
data_H2O
_symmetry_space_group_name_H-M   'P 1'
_cell_length_a   17.99141626
_cell_length_b   18.00157646
_cell_length_c   22.01222030
_cell_angle_alpha   90.01339580
_cell_angle_beta   90.00442665
_cell_angle_gamma   120.01334221
_symmetry_Int_Tables_number   1
_chemical_formula_structural   H2O
_chemical_formula_sum   'H384 O192'
_cell_volume   6173.22272536
_cell_formula_units_Z   192
loop_
 _symmetry_equiv_pos_site_id
 _symmetry_equiv_pos_as_xyz
  1  'x, y, z'
loop_
 _atom_type_symbol
 _atom_type_oxidation_number
  H+  1.0
  O2-  -2.0
loop_
 _atom_site_type_symbol
 _atom_site_label
 _atom_site_symmetry_multiplicity
 _atom_site_fract_x
 _atom_site_fract_y
 _atom_site_fract_z
 _atom_site_occupancy
  H+  H0  1  0.23557336  0.37220477  0.17577708  1
  H+  H1  1  0.64434103  0.87394605  0.80562333  1
  H+  H2  1  0.32875233  0.19922787  0.69408249  1
  H+  H3  1  0.36421700  0.40413663  0.48912843  1
  H+  H4  1  0.83553359  0.66503192  0.73826551  1
  H+  H5  1  0.63714579  0.73133618  0.33564375  1
  H+  H6  1  0.53286133  0.40061557  1.00935489  1
  H+  H7  1  0.12630779  0.40520793  0.33872775  1
  H+  H8  1  0.10738550  1.00876176  0.66579528  1
  H+  H9  1  0.63113537  0.23277702  0.15591720  1
  H+  H10  1  0.64368560  0.10112940  0.49961897  1
  H+  H11  1  0.10800302  0.37452906  0.66644850  1
  H+  H12  1  0.51611105  0.88677050  0.01278821  1
  H+  H13  1  0.66200859  0.25848342  0.77881556  1
  H+  H14  1  1.02568430  0.63593849  1.00329191  1
  H+  H15  1  0.64517493  0.87026559  0.17591437  1
  H+  H16  1  0.10746357  0.73481403  0.35345684  1
  H+  H17  1  0.37235569  0.39432842  0.16577682  1
  H+  H18  1  0.38019749  0.40835031  0.01733436  1
  H+  H19  1  0.36627861  0.50731507  0.18400540  1
  H+  H20  1  0.71714024  0.81046193  0.68001863  1
  H+  H21  1  0.38704649  0.81642098  0.65123070  1
  H+  H22  1  0.46782776  0.60049468  0.84626712  1
  H+  H23  1  0.38454832  0.30086407  0.50675168  1
  H+  H24  1  0.87455851  0.09716057  0.64808814  1
  H+  H25  1  0.22112100  0.61419702  0.16598209  1
  H+  H26  1  0.23202546  0.85778723  -0.00181740  1
  H+  H27  1  0.37738379  0.00990686  0.86796416  1
  H+  H28  1  0.72997932  0.10678380  0.65116326  1
  H+  H29  1  0.22825108  0.58335536  0.66199901  1
  H+  H30  1  0.84652946  0.60590112  0.18406922  1
  H+  H31  1  0.63352367  0.60886015  0.16598059  1
  H+  H32  1  0.86331199  0.00487283  0.63640676  1
  H+  H33  1  0.43534470  0.07738833  0.63075237  1
  H+  H34  1  0.89729960  0.12026509  0.17257604  1
  H+  H35  1  0.77795451  0.51800735  0.21140811  1
  H+  H36  1  0.88410181  0.34843778  0.65911084  1
  H+  H37  1  0.14776011  0.28560790  0.33116382  1
  H+  H38  1  0.35102604  -0.04288181  1.02021345  1
  H+  H39  1  0.89010756  0.93476625  0.79241742  1
  H+  H40  1  0.52866541  0.40428986  0.47728151  1
  H+  H41  1  0.85508950  0.87317081  0.66049022  1
  H+  H42  1  0.09515619  0.71251991  0.50771943  1
  H+  H43  1  0.17888903  0.82501952  0.46913871  1
  H+  H44  1  0.12866047  0.36609457  0.84286486  1
  H+  H45  1  0.10905124  0.13426798  0.68102932  1
  H+  H46  1  0.11930725  0.16835947  0.14374794  1
  H+  H47  1  0.14181202  0.54593355  0.32254035  1
  H+  H48  1  0.72176033  0.38423505  0.84682133  1
  H+  H49  1  0.40701642  0.04450542  0.48197575  1
  H+  H50  1  0.33577875  0.02668952  0.60985076  1
  H+  H51  1  0.65487179  0.11935237  0.16586505  1
  H+  H52  1  0.48963515  0.10403772  0.32670659  1
  H+  H53  1  0.38586336  0.27709369  0.85198629  1
  H+  H54  1  0.64549098  1.01630849  0.32615628  1
  H+  H55  1  0.77957814  0.38562369  0.01157457  1
  H+  H56  1  0.11133504  0.47532291  0.49552902  1
  H+  H57  1  0.72078881  0.11092134  0.99412767  1
  H+  H58  1  0.61240790  0.74259242  0.67631847  1
  H+  H59  1  0.57478303  0.07198919  0.64752973  1
  H+  H60  1  0.61172984  0.67559397  0.42255296  1
  H+  H61  1  0.26784728  0.14620015  0.35197871  1
  H+  H62  1  0.30239882  0.17467783  -0.02987185  1
  H+  H63  1  0.40039755  0.09631688  0.30941874  1
  H+  H64  1  0.36037320  0.72951910  0.49441309  1
  H+  H65  1  0.87307259  0.23014919  0.16176914  1
  H+  H66  1  0.08902665  0.17694651  0.40169311  1
  H+  H67  1  0.77560066  0.64358542  0.67938780  1
  H+  H68  1  0.73837672  0.61945593  0.50484888  1
  H+  H69  1  0.21834837  0.60696132  0.83819033  1
  H+  H70  1  0.22195731  0.36574231  0.50708684  1
  H+  H71  1  1.00915419  0.13162831  0.99916097  1
  H+  H72  1  0.19567521  0.10863438  0.17386694  1
  H+  H73  1  0.86627343  0.47149257  0.82333731  1
  H+  H74  1  0.92837934  0.34537891  0.26560787  1
  H+  H75  1  0.64458684  0.31119682  0.47281544  1
  H+  H76  1  0.64357946  0.26810045  0.32628859  1
  H+  H77  1  0.35526330  0.63383751  0.15757744  1
  H+  H78  1  0.98034441  0.87580336  0.67023336  1
  H+  H79  1  0.35860689  0.95096022  0.33149071  1
  H+  H80  1  0.39515241  0.96043480  0.69350230  1
  H+  H81  1  0.62058854  0.41152278  0.48189991  1
  H+  H82  1  0.38580714  0.62105897  0.35263285  1
  H+  H83  1  0.67682485  0.91928585  0.34341326  1
  H+  H84  1  0.97619507  0.35927566  0.50261406  1
  H+  H85  1  0.59124669  0.17082438  1.06126924  1
  H+  H86  1  0.88919058  0.86050457  -0.00156351  1
  H+  H87  1  0.37983581  0.47625827  0.68386036  1
  H+  H88  1  0.13011454  0.86652966  0.32678647  1
  H+  H89  1  0.41394670  0.27784611  0.62186282  1
  H+  H90  1  0.11644923  0.47259965  0.00089855  1
  H+  H91  1  0.48163965  0.36158126  0.17301083  1
  H+  H92  1  0.62707332  0.07982296  0.84182466  1
  H+  H93  1  0.88790814  0.90217684  0.33130375  1
  H+  H94  1  0.49746493  0.84606385  0.33973333  1
  H+  H95  1  0.77612029  0.88858286  0.01339338  1
  H+  H96  1  0.56492891  0.00848652  0.29010698  1
  H+  H97  1  0.89523799  0.80066951  0.32325336  1
  H+  H98  1  0.89137006  0.78061727  0.66309362  1
  H+  H99  1  0.29680511  0.91613435  0.49162248  1
  H+  H100  1  0.14068216  0.85772711  0.99747532  1
  H+  H101  1  0.77119825  0.36440306  0.67551955  1
  H+  H102  1  0.11713695  0.73298156  0.83105325  1
  H+  H103  1  0.50382259  0.61051447  0.33057138  1
  H+  H104  1  0.90350637  0.28690982  0.32468213  1
  H+  H105  1  0.10670159  0.63723579  0.15422180  1
  H+  H106  1  0.31844642  0.13880599  0.13901064  1
  H+  H107  1  0.33913400  0.99919381  0.71070418  1
  H+  H108  1  0.03736777  0.40430832  0.33722430  1
  H+  H109  1  0.20987658  0.64708953  0.30709257  1
  H+  H110  1  0.33803430  0.92348104  0.79119082  1
  H+  H111  1  0.85356707  0.46907751  0.16241353  1
  H+  H112  1  0.12741155  0.35912529  -0.01292923  1
  H+  H113  1  0.13587188  0.61207430  -0.00830555  1
  H+  H114  1  0.35419824  0.48815164  0.49700101  1
  H+  H115  1  0.97624856  0.62224878  0.67059692  1
  H+  H116  1  0.14094608  0.29010964  0.17472379  1
  H+  H117  1  0.84952125  0.92578075  0.39227713  1
  H+  H118  1  0.46708430  0.11886975  1.01314759  1
  H+  H119  1  0.84924125  0.13011397  0.00299616  1
  H+  H120  1  0.52661108  0.40962950  0.69394376  1
  H+  H121  1  0.20065235  0.09188028  0.66591539  1
  H+  H122  1  0.90260857  0.68004913  0.35093771  1
  H+  H123  1  0.86688463  0.88950708  0.49402563  1
  H+  H124  1  1.00094590  0.09421742  0.84686173  1
  H+  H125  1  0.97870113  0.86031119  0.17668371  1
  H+  H126  1  0.98051087  0.61337508  0.84195883  1
  H+  H127  1  -0.01861472  0.36616759  0.17134739  1
  H+  H128  1  0.50762425  0.36242237  0.32620198  1
  H+  H129  1  0.84215995  0.92151697  0.06873493  1
  H+  H130  1  0.95915067  0.15337297  0.83975203  1
  H+  H131  1  0.53401620  0.14019064  0.48909608  1
  H+  H132  1  0.36003438  0.71569125  0.82796439  1
  H+  H133  1  0.35551650  0.37866530  0.67680717  1
  H+  H134  1  0.61134597  0.63251346  0.84186247  1
  H+  H135  1  0.10005481  0.46559384  0.83865630  1
  H+  H136  1  0.11130757  0.47815201  0.15465679  1
  H+  H137  1  0.61672689  0.37336657  0.33272455  1
  H+  H138  1  0.12592105  0.86603545  0.49697966  1
  H+  H139  1  0.62413439  0.96793968  0.83147298  1
  H+  H140  1  0.11093654  0.97738077  0.34625740  1
  H+  H141  1  0.11372897  0.47237177  0.66366906  1
  H+  H142  1  0.48718251  0.87907379  0.32767081  1
  H+  H143  1  0.39693204  0.87226013  0.49898037  1
  H+  H144  1  0.61144320  0.12633717  0.33884527  1
  H+  H145  1  0.61536569  0.38524647  0.16190037  1
  H+  H146  1  0.77558803  0.63442766  0.83337153  1
  H+  H147  1  0.21958518  0.36123645  0.84354702  1
  H+  H148  1  0.12100641  0.26461873  -0.01727459  1
  H+  H149  1  0.86706629  0.47412432  0.01182830  1
  H+  H150  1  0.89140369  0.36478530  0.17249715  1
  H+  H151  1  0.86604005  0.73631770  0.16603340  1
  H+  H152  1  0.16803357  0.83977845  0.90486465  1
  H+  H153  1  0.53003734  0.95879460  0.69416647  1
  H+  H154  1  0.14416980  0.87542436  0.84413564  1
  H+  H155  1  0.09378652  0.89452435  0.68033715  1
  H+  H156  1  0.63059771  0.21112096  0.50819157  1
  H+  H157  1  0.35667085  0.14429139  0.01061753  1
  H+  H158  1  -0.02761763  0.59998997  0.51840990  1
  H+  H159  1  0.36240015  0.13692274  0.84736943  1
  H+  H160  1  0.86406300  0.21815256  0.66476191  1
  H+  H161  1  0.39081072  0.62417713  0.99570105  1
  H+  H162  1  0.56997850  0.15288102  0.79641377  1
  H+  H163  1  0.53268341  0.08053619  0.70765027  1
  H+  H164  1  0.25856409  0.87823527  0.33781340  1
  H+  H165  1  0.86821711  0.71781717  0.83257025  1
  H+  H166  1  0.34387963  0.12403878  0.67369032  1
  H+  H167  1  0.88228618  0.01860156  0.99022635  1
  H+  H168  1  0.88971196  0.61054630  -0.00419219  1
  H+  H169  1  0.19600225  0.09147103  1.01078573  1
  H+  H170  1  0.27358380  0.88590092  0.84667250  1
  H+  H171  1  0.54924365  0.13712248  0.15520110  1
  H+  H172  1  0.34769424  0.14205474  0.38098400  1
  H+  H173  1  0.12800112  0.10920699  0.51060800  1
  H+  H174  1  0.49037106  0.05994995  0.80597072  1
  H+  H175  1  0.86511202  0.37858734  0.49462085  1
  H+  H176  1  0.03334133  0.14909497  0.33993668  1
  H+  H177  1  0.63099215  0.87171561  1.00584884  1
  H+  H178  1  0.34298792  0.72686530  0.32474285  1
  H+  H179  1  0.63719649  0.74081274  0.48314890  1
  H+  H180  1  0.90057135  0.03200801  0.17145710  1
  H+  H181  1  0.85682126  0.47209050  0.34496994  1
  H+  H182  1  0.66960258  0.80743572  0.76045108  1
  H+  H183  1  0.76358418  0.14228646  0.82384505  1
  H+  H184  1  0.52346700  0.88537791  0.16787118  1
  H+  H185  1  0.74753180  0.88652829  0.80114203  1
  H+  H186  1  0.73192139  0.35841474  0.32855342  1
  H+  H187  1  0.46985901  0.37209991  0.85387531  1
  H+  H188  1  0.37229463  0.61241373  0.52183958  1
  H+  H189  1  0.38436420  0.27986353  0.16978897  1
  H+  H190  1  0.22552660  0.85026942  0.17448086  1
  H+  H191  1  0.13049234  0.60686332  0.51329322  1
  H+  H192  1  0.11512092  0.86749769  0.16522546  1
  H+  H193  1  0.66757606  0.07998385  0.22750430  1
  H+  H194  1  0.64251193  0.53367735  0.00440160  1
  H+  H195  1  0.87885036  0.01238036  0.80977252  1
  H+  H196  1  0.61030406  0.40717047  0.84883674  1
  H+  H197  1  0.36358925  0.95097599  0.15302577  1
  H+  H198  1  0.09897739  0.95891655  0.01453189  1
  H+  H199  1  0.39744952  0.29420019  1.00273454  1
  H+  H200  1  0.09556043  0.06063119  0.19364713  1
  H+  H201  1  0.11192284  0.22620709  0.49594316  1
  H+  H202  1  0.88775317  0.26852997  0.50098533  1
  H+  H203  1  0.86618175  -0.02078228  0.48770384  1
  H+  H204  1  0.87977760  0.61902485  0.66548620  1
  H+  H205  1  0.35759368  0.62593809  0.83083648  1
  H+  H206  1  0.52922692  0.88220269  0.48195163  1
  H+  H207  1  0.72420215  0.61447908  0.16419979  1
  H+  H208  1  0.22212752  0.61169233  0.50992249  1
  H+  H209  1  0.75208358  0.86774649  0.32406680  1
  H+  H210  1  0.13273189  0.16189466  0.77381957  1
  H+  H211  1  0.37718883  0.84847338  0.16798635  1
  H+  H212  1  0.88872018  0.60664512  0.84030699  1
  H+  H213  1  0.61510040  0.97522527  0.66894582  1
  H+  H214  1  0.78626774  0.13885680  0.16280278  1
  H+  H215  1  0.01730526  0.89113203  0.33687600  1
  H+  H216  1  0.09617664  0.64263729  0.34845336  1
  H+  H217  1  0.90022527  1.03068937  0.32611205  1
  H+  H218  1  0.78663555  0.89731212  0.16244364  1
  H+  H219  1  0.13216838  0.36228227  0.50831668  1
  H+  H220  1  0.87462937  0.89495526  0.16356693  1
  H+  H221  1  0.63982585  0.36871528  1.00218596  1
  H+  H222  1  0.88595440  0.50824137  0.51955551  1
  H+  H223  1  0.70556722  0.42542598  0.62709375  1
  H+  H224  1  0.12085571  0.22733195  0.68827774  1
  H+  H225  1  0.36928752  0.69318546  0.67162828  1
  H+  H226  1  0.14081909  0.12404621  0.33699508  1
  H+  H227  1  0.43326615  0.59371160  0.56602946  1
  H+  H228  1  0.87709583  0.83744705  0.85597373  1
  H+  H229  1  0.38881331  0.85637842  0.84884674  1
  H+  H230  1  0.11666674  -0.04322963  0.16660048  1
  H+  H231  1  0.48369409  0.84187655  0.65259686  1
  H+  H232  1  0.07361784  0.66201369  0.44474978  1
  H+  H233  1  0.86989072  0.38972283  0.33970381  1
  H+  H234  1  0.02625801  0.88955591  0.82985068  1
  H+  H235  1  0.41332213  0.60780997  0.68766228  1
  H+  H236  1  0.31999827  0.80173690  0.32105437  1
  H+  H237  1  0.09580819  0.72832850  0.68228783  1
  H+  H238  1  0.73422308  0.36263975  0.16916005  1
  H+  H239  1  0.68543807  0.83914868  0.26811674  1
  H+  H240  1  0.61249478  0.73358734  1.01465108  1
  H+  H241  1  0.63941338  0.53584536  0.85743414  1
  H+  H242  1  1.01288977  0.37441588  0.66158170  1
  H+  H243  1  0.36242378  0.73180290  0.00641836  1
  H+  H244  1  0.41416037  0.09255307  0.16748007  1
  H+  H245  1  0.52369423  0.64420044  0.01041907  1
  H+  H246  1  0.59632659  0.71088965  0.83837308  1
  H+  H247  1  0.22603349  0.61440446  0.98964934  1
  H+  H248  1  0.27445637  0.39461900  0.34323809  1
  H+  H249  1  0.86750353  0.72476420  1.01143562  1
  H+  H250  1  0.63502012  0.55685609  0.68467686  1
  H+  H251  1  0.11642408  0.64239686  0.82885337  1
  H+  H252  1  0.60522619  0.13551705  -0.00088535  1
  H+  H253  1  0.97121912  0.86744531  0.50903960  1
  H+  H254  1  0.11122470  0.97703531  0.49410282  1
  H+  H255  1  0.68227311  0.83462139  0.55412789  1
  H+  H256  1  0.28721915  0.58707546  0.35906442  1
  H+  H257  1  0.79271136  0.14269639  0.33223720  1
  H+  H258  1  0.11828492  0.39393649  0.16096148  1
  H+  H259  1  0.37716512  0.49540868  0.01898187  1
  H+  H260  1  0.90374422  0.24699758  0.85977355  1
  H+  H261  1  0.83511969  0.37667226  0.84616343  1
  H+  H262  1  0.15105828  1.07447250  0.57149090  1
  H+  H263  1  0.64407516  0.01204984  0.49690986  1
  H+  H264  1  0.73869248  0.37364122  0.49749564  1
  H+  H265  1  0.68571881  0.24581449  0.80105554  1
  H+  H266  1  0.52710726  0.64868824  0.16472539  1
  H+  H267  1  0.26080054  0.15901585  0.51122322  1
  H+  H268  1  0.39542729  0.27118793  0.32922960  1
  H+  H269  1  0.64643878  0.65058023  0.49285010  1
  H+  H270  1  0.02279083  0.13680441  0.49095841  1
  H+  H271  1  1.02307451  0.36899866  0.85232644  1
  H+  H272  1  0.77860872  0.13215423  0.48486989  1
  H+  H273  1  0.46286423  0.10063438  0.88590052  1
  H+  H274  1  0.74237482  0.59982588  0.32778764  1
  H+  H275  1  0.02387650  0.15132696  0.15719182  1
  H+  H276  1  0.37750586  0.86289809  1.00370062  1
  H+  H277  1  0.47610815  0.85330519  0.84459026  1
  H+  H278  1  0.89076544  0.11300344  0.49534804  1
  H+  H279  1  0.66462491  0.65779648  0.68881453  1
  H+  H280  1  0.61337037  0.47487503  0.15984773  1
  H+  H281  1  0.15571182  0.32912021  0.91125314  1
  H+  H282  1  0.63918320  0.64146906  0.33869383  1
  H+  H283  1  0.54544912  0.60613212  0.63050474  1
  H+  H284  1  0.61337708  -0.02428024  0.16314114  1
  H+  H285  1  0.24291227  0.89884270  0.64370758  1
  H+  H286  1  0.37677445  0.48122341  0.34554151  1
  H+  H287  1  0.74501450  0.87177463  0.49553340  1
  H+  H288  1  0.43064266  0.57727389  0.27664176  1
  H+  H289  1  0.33558437  0.65770298  0.44373996  1
  H+  H290  1  0.61806448  0.88005444  0.48809315  1
  H+  H291  1  0.85259576  0.60442165  0.49762790  1
  H+  H292  1  0.91373606  0.07898607  0.55630881  1
  H+  H293  1  0.69637799  0.63265781  0.56709226  1
  H+  H294  1  0.59515735  0.16482536  0.40035193  1
  H+  H295  1  0.41583211  0.83521477  0.94426913  1
  H+  H296  1  0.92160477  0.82250156  0.91184332  1
  H+  H297  1  0.42607064  0.83291271  0.55433239  1
  H+  H298  1  0.32312267  0.89106739  0.09099752  1
  H+  H299  1  0.92427916  0.84646753  0.23855124  1
  H+  H300  1  0.91722510  0.57923141  0.93566172  1
  H+  H301  1  0.31790841  0.19711675  0.45251546  1
  H+  H302  1  0.93081586  0.09126918  0.26652832  1
  H+  H303  1  0.64142215  0.94596357  0.40076643  1
  H+  H304  1  0.58327487  0.92089028  0.76647462  1
  H+  H305  1  0.08299582  0.67339122  0.09714107  1
  H+  H306  1  0.57691808  0.43775806  0.79176824  1
  H+  H307  1  0.32933339  0.66604905  0.06191543  1
  H+  H308  1  0.80563722  0.23682201  0.80021496  1
  H+  H309  1  0.08717928  0.42192066  0.43364879  1
  H+  H310  1  0.16778706  0.33372877  0.60289112  1
  H+  H311  1  0.58359608  0.40996377  0.39128343  1
  H+  H312  1  0.66339061  0.84330673  0.94786203  1
  H+  H313  1  0.58059658  0.67355027  0.10300295  1
  H+  H314  1  0.37597707  0.51425838  0.84777597  1
  H+  H315  1  0.43435049  0.37807136  0.55356747  1
  H+  H316  1  0.67468810  0.33150361  0.22930362  1
  H+  H317  1  0.84200620  0.67655989  0.10490076  1
  H+  H318  1  0.13352106  0.76291679  0.17333906  1
  H+  H319  1  0.63413842  0.27698305  0.99503041  1
  H+  H320  1  0.15960873  0.82956589  0.26933590  1
  H+  H321  1  0.32249791  0.26129814  0.60765643  1
  H+  H322  1  0.44223482  0.06434816  0.22676093  1
  H+  H323  1  0.64776474  0.52148364  0.32527970  1
  H+  H324  1  0.32512824  0.40904510  0.77556196  1
  H+  H325  1  0.39394506  0.07426154  0.96405755  1
  H+  H326  1  0.61121442  0.40608258  0.69454391  1
  H+  H327  1  0.07054473  0.17369623  0.05656226  1
  H+  H328  1  0.63004216  0.02262535  0.99510537  1
  H+  H329  1  0.17045717  0.08770704  0.28112686  1
  H+  H330  1  0.33577950  0.91801723  0.42584256  1
  H+  H331  1  0.66666341  0.07006185  0.90510954  1
  H+  H332  1  0.33051489  0.42848670  0.41304818  1
  H+  H333  1  0.66021564  0.33978237  0.59396288  1
  H+  H334  1  0.07786870  0.91754497  0.43334412  1
  H+  H335  1  0.83078260  0.39238769  0.73421841  1
  H+  H336  1  0.58769356  0.42210843  0.07039308  1
  H+  H337  1  0.91337305  0.57988043  0.60577305  1
  H+  H338  1  0.35226368  0.38002446  0.83666232  1
  H+  H339  1  0.17970884  0.34470657  0.27068125  1
  H+  H340  1  0.67678662  0.07028112  0.58832757  1
  H+  H341  1  0.32900824  0.15747606  0.78684973  1
  H+  H342  1  0.41894188  0.10964834  0.53401597  1
  H+  H343  1  0.07793124  0.89684086  0.07205865  1
  H+  H344  1  0.22638551  0.36993590  0.66290696  1
  H+  H345  1  0.64715169  0.78310001  0.17422366  1
  H+  H346  1  0.90358298  0.30601541  0.91025610  1
  H+  H347  1  0.16913624  0.56862559  0.60290132  1
  H+  H348  1  0.83531091  0.41536269  0.09891956  1
  H+  H349  1  0.64140739  0.62270286  1.00582635  1
  H+  H350  1  0.77785080  0.63804584  0.01563468  1
  H+  H351  1  0.34657012  0.42934401  0.10463160  1
  H+  H352  1  0.31866125  0.54212629  0.22488953  1
  H+  H353  1  0.08772872  0.41359226  0.05960644  1
  H+  H354  1  0.11598872  0.72518011  0.00167224  1
  H+  H355  1  0.29419929  0.18212218  0.08917146  1
  H+  H356  1  0.07201150  0.67062256  0.74197334  1
  H+  H357  1  0.21209235  0.89211550  0.57535244  1
  H+  H358  1  0.84091639  0.41549436  0.43552801  1
  H+  H359  1  0.09011831  0.02659257  0.82661104  1
  H+  H360  1  0.68009763  0.60056814  0.91309171  1
  H+  H361  1  0.82762355  0.92262137  0.70793614  1
  H+  H362  1  0.82281048  0.61097677  0.43100175  1
  H+  H363  1  0.87466387  0.57231974  0.27593222  1
  H+  H364  1  0.88099532  0.14336545  0.33385112  1
  H+  H365  1  0.67095401  0.35664139  0.90973760  1
  H+  H366  1  0.16252329  0.58466346  0.89887641  1
  H+  H367  1  0.38676324  0.80506787  0.22883808  1
  H+  H368  1  0.91437455  0.07956002  0.93087169  1
  H+  H369  1  0.91590854  0.32522760  0.59596017  1
  H+  H370  1  0.57782443  0.91717012  0.07173456  1
  H+  H371  1  0.84168572  0.16930127  0.42687391  1
  H+  H372  1  0.42680651  0.32567956  0.26392013  1
  H+  H373  1  0.82643923  0.16130250  0.06360036  1
  H+  H374  1  0.33530967  0.64777136  0.73661382  1
  H+  H375  1  0.97684054  0.85515607  1.00192321  1
  H+  H376  1  0.36166395  0.72560305  0.15639226  1
  H+  H377  1  0.42004986  0.34708890  0.94114634  1
  H+  H378  1  0.41794615  0.58669715  0.93919927  1
  H+  H379  1  0.91609163  0.84434290  0.56952507  1
  H+  H380  1  0.11108802  0.09465265  0.99976554  1
  H+  H381  1  0.07513486  0.92472819  0.76587392  1
  H+  H382  1  0.15639972  0.58577197  0.22323881  1
  H+  H383  1  0.82591079  0.16403512  0.72505149  1
  O2-  O384  1  0.08192013  0.19219453  0.13751683  1
  O2-  O385  1  0.08500796  0.16766361  0.47781651  1
  O2-  O386  1  0.15595071  0.15231489  0.81366021  1
  O2-  O387  1  0.08262503  0.41603108  0.14280822  1
  O2-  O388  1  0.08236897  0.41540649  0.47877249  1
  O2-  O389  1  0.07508337  0.40475459  0.82668446  1
  O2-  O390  1  0.08161272  0.67318547  0.14243847  1
  O2-  O391  1  0.07061254  0.65399170  0.49099263  1
  O2-  O392  1  0.08595557  0.67354711  0.81437564  1
  O2-  O393  1  0.08435037  0.89850461  0.14976213  1
  O2-  O394  1  0.08108305  0.91637128  0.47912437  1
  O2-  O395  1  0.08335100  0.92956494  0.81273510  1
  O2-  O396  1  0.29338901  0.17559751  0.13410095  1
  O2-  O397  1  0.32000976  0.20342690  0.49709240  1
  O2-  O398  1  0.34507651  0.17586477  0.82925588  1
  O2-  O399  1  0.33969104  0.42226059  0.15186791  1
  O2-  O400  1  0.32776648  0.42914295  0.47546520  1
  O2-  O401  1  0.32203275  0.41016534  0.82045985  1
  O2-  O402  1  0.32781870  0.66480524  0.14044785  1
  O2-  O403  1  0.32797911  0.66616507  0.48747368  1
  O2-  O404  1  0.32941050  0.65631052  0.81145644  1
  O2-  O405  1  0.32586225  0.89089792  0.14110731  1
  O2-  O406  1  0.35083361  0.93293359  0.47032582  1
  O2-  O407  1  0.33742680  0.91661207  0.83605064  1
  O2-  O408  1  0.60796048  0.17338107  0.13865167  1
  O2-  O409  1  0.59841598  0.16279081  0.48056935  1
  O2-  O410  1  0.54850257  0.09161893  0.78943650  1
  O2-  O411  1  0.58049117  0.41139345  0.14860696  1
  O2-  O412  1  0.58575958  0.42869837  0.45749890  1
  O2-  O413  1  0.57472051  0.43525976  0.83651986  1
  O2-  O414  1  0.58548997  0.67602784  0.14895792  1
  O2-  O415  1  0.61136272  0.67869896  0.46943723  1
  O2-  O416  1  0.57228343  0.65196352  0.82455079  1
  O2-  O417  1  0.58251894  0.91404722  0.15051103  1
  O2-  O418  1  0.59148294  0.91272916  0.47123744  1
  O2-  O419  1  0.59302507  0.90980945  0.80985500  1
  O2-  O420  1  0.84648585  0.16931428  0.14741251  1
  O2-  O421  1  0.84007225  0.16806442  0.47220867  1
  O2-  O422  1  0.81359756  0.18687692  0.80050668  1
  O2-  O423  1  0.83299914  0.41085933  0.14637498  1
  O2-  O424  1  0.83761711  0.41301486  0.48113092  1
  O2-  O425  1  0.82976394  0.41038727  0.81122296  1
  O2-  O426  1  0.83471570  0.67580514  0.15016861  1
  O2-  O427  1  0.81626839  0.62110418  0.47400517  1
  O2-  O428  1  0.83395876  0.65976809  0.81396649  1
  O2-  O429  1  0.84681875  0.92747529  0.14674218  1
  O2-  O430  1  0.83524958  0.91750488  0.47401431  1
  O2-  O431  1  0.84813964  0.95389746  0.78946389  1
  O2-  O432  1  0.15127309  0.06582916  0.20173370  1
  O2-  O433  1  0.15995516  0.08072674  0.52594720  1
  O2-  O434  1  0.08122797  0.07606581  0.83811131  1
  O2-  O435  1  0.17680188  0.34734208  0.19411006  1
  O2-  O436  1  0.16314296  0.33296175  0.52432274  1
  O2-  O437  1  0.15859239  0.33223907  0.85813265  1
  O2-  O438  1  0.15957909  0.58086535  0.17833848  1
  O2-  O439  1  0.16206853  0.57664746  0.52547349  1
  O2-  O440  1  0.15860046  0.58332566  0.85306271  1
  O2-  O441  1  0.16624497  0.82343447  0.19205135  1
  O2-  O442  1  0.15957492  0.83487912  0.50813830  1
  O2-  O443  1  0.17142916  0.84233257  0.85865608  1
  O2-  O444  1  0.44531303  0.06447814  0.18137146  1
  O2-  O445  1  0.43743814  0.10667545  0.49227221  1
  O2-  O446  1  0.40039887  0.07030519  0.88466782  1
  O2-  O447  1  0.42125470  0.33477757  0.19066629  1
  O2-  O448  1  0.42606929  0.36565387  0.51004831  1
  O2-  O449  1  0.40831321  0.33739612  0.86713454  1
  O2-  O450  1  0.37559384  0.56078185  0.20809524  1
  O2-  O451  1  0.39068886  0.57043402  0.53308176  1
  O2-  O452  1  0.40737140  0.57547815  0.86146914  1
  O2-  O453  1  0.41054248  0.82201712  0.18731717  1
  O2-  O454  1  0.42420443  0.83745764  0.50949801  1
  O2-  O455  1  0.41682774  0.82249989  0.86001864  1
  O2-  O456  1  0.67809827  0.08320368  0.18298256  1
  O2-  O457  1  0.67667663  0.07285295  0.51240017  1
  O2-  O458  1  0.66744942  0.06321841  0.85856472  1
  O2-  O459  1  0.67228826  0.33305908  0.18428042  1
  O2-  O460  1  0.67483229  0.34732726  0.50767832  1
  O2-  O461  1  0.66529721  0.36600132  0.86550861  1
  O2-  O462  1  0.66254240  0.57556616  0.17379994  1
  O2-  O463  1  0.68486042  0.61570121  0.52441028  1
  O2-  O464  1  0.67818123  0.59843666  0.86748493  1
  O2-  O465  1  0.67948679  0.84341149  0.18921932  1
  O2-  O466  1  0.68042892  0.83622021  0.50993952  1
  O2-  O467  1  0.68334123  0.84305346  0.80062583  1
  O2-  O468  1  0.93162985  0.09280792  0.18680904  1
  O2-  O469  1  0.92013475  0.08177758  0.51008663  1
  O2-  O470  1  0.94558731  0.09553275  0.85121353  1
  O2-  O471  1  0.92199357  0.33558827  0.18928756  1
  O2-  O472  1  0.91570753  0.32840345  0.51803887  1
  O2-  O473  1  0.94180537  0.28693884  0.89103169  1
  O2-  O474  1  0.84009962  0.55353251  0.20717463  1
  O2-  O475  1  0.91292624  0.56784452  0.53669204  1
  O2-  O476  1  0.91984004  0.57783780  0.85578100  1
  O2-  O477  1  0.91915404  0.83924545  0.19150695  1
  O2-  O478  1  0.91195452  0.84373775  0.52439296  1
  O2-  O479  1  0.91878783  0.81976862  0.86543396  1
  O2-  O480  1  0.17305428  0.09330430  0.32598040  1
  O2-  O481  1  0.14391475  0.06997141  0.64672581  1
  O2-  O482  1  0.13869863  0.05896229  0.99304125  1
  O2-  O483  1  0.18146345  0.34676540  0.31651318  1
  O2-  O484  1  0.16616713  0.33562596  0.64834579  1
  O2-  O485  1  0.15343798  0.32506770  0.96788724  1
  O2-  O486  1  0.15079270  0.59861560  0.30142693  1
  O2-  O487  1  0.16819228  0.55884269  0.64769312  1
  O2-  O488  1  0.16579004  0.58227965  0.97437279  1
  O2-  O489  1  0.16125203  0.83530998  0.31484808  1
  O2-  O490  1  0.24145317  0.93235195  0.60930518  1
  O2-  O491  1  0.17170178  0.83099272  0.97823027  1
  O2-  O492  1  0.43330863  0.06702938  0.30476421  1
  O2-  O493  1  0.38671774  0.08497370  0.61813769  1
  O2-  O494  1  0.40292979  0.08963509  1.00782977  1
  O2-  O495  1  0.43414678  0.32817268  0.30976225  1
  O2-  O496  1  0.37301273  0.29637344  0.63287235  1
  O2-  O497  1  0.42894845  0.35318839  0.98671229  1
  O2-  O498  1  0.44015355  0.57697755  0.32141416  1
  O2-  O499  1  0.45515545  0.58523239  0.68621192  1
  O2-  O500  1  0.42433830  0.59515739  0.98429783  1
  O2-  O501  1  0.31709136  0.75246293  0.29863217  1
  O2-  O502  1  0.42740560  0.80158106  0.63312415  1
  O2-  O503  1  0.41593461  0.83648135  0.98912744  1
  O2-  O504  1  0.62357614  0.05131071  0.30115666  1
  O2-  O505  1  0.67055697  0.06996756  0.63370139  1
  O2-  O506  1  0.66002151  0.08050843  0.97582356  1
  O2-  O507  1  0.67166765  0.32871053  0.31177908  1
  O2-  O508  1  0.66964470  0.36417010  0.63540716  1
  O2-  O509  1  0.66940320  0.33897773  0.98527867  1
  O2-  O510  1  0.68231563  0.58407109  0.32088682  1
  O2-  O511  1  0.66690579  0.61310464  0.66401106  1
  O2-  O512  1  0.67413030  0.59515468  0.99067357  1
  O2-  O513  1  0.68875134  0.83576029  0.31333434  1
  O2-  O514  1  0.66427486  0.76240211  0.70130362  1
  O2-  O515  1  0.66448015  0.84239602  0.99205466  1
  O2-  O516  1  0.93061995  0.09299038  0.31189924  1
  O2-  O517  1  0.89983274  0.06630865  0.62708039  1
  O2-  O518  1  0.90891613  0.07917759  0.97566041  1
  O2-  O519  1  0.93085588  0.34781059  0.31150315  1
  O2-  O520  1  0.91926716  0.32318254  0.64131086  1
  O2-  O521  1  0.81930706  0.32320880  0.90999545  1
  O2-  O522  1  0.89116868  0.57453578  0.32073338  1
  O2-  O523  1  0.91371572  0.58929973  0.65221321  1
  O2-  O524  1  0.92053920  0.58103188  0.98096715  1
  O2-  O525  1  0.93216932  0.85839335  0.30782598  1
  O2-  O526  1  0.91702792  0.84045783  0.64906031  1
  O2-  O527  1  0.91686815  0.82747633  0.98393864  1
  O2-  O528  1  0.07112170  0.16231857  0.01260707  1
  O2-  O529  1  0.09377007  0.18103309  0.35594068  1
  O2-  O530  1  0.09680793  0.17112970  0.70836064  1
  O2-  O531  1  0.08918559  0.41215317  0.01474706  1
  O2-  O532  1  0.09756071  0.43673910  0.35340948  1
  O2-  O533  1  0.07566367  0.40622387  0.67716204  1
  O2-  O534  1  0.08662480  0.66517713  0.01787957  1
  O2-  O535  1  0.08006470  0.67779372  0.37367451  1
  O2-  O536  1  0.06272712  0.66927658  0.69624235  1
  O2-  O537  1  0.07464976  0.89703329  0.02668012  1
  O2-  O538  1  0.07888859  0.91578214  0.35691594  1
  O2-  O539  1  0.06229638  0.92139865  0.69598148  1
  O2-  O540  1  0.32259134  0.17625296  0.01165505  1
  O2-  O541  1  0.32853453  0.18206846  0.36960475  1
  O2-  O542  1  0.31064654  0.13905034  0.70255339  1
  O2-  O543  1  0.35193588  0.43714677  0.03737897  1
  O2-  O544  1  0.33417449  0.42319308  0.36381808  1
  O2-  O545  1  0.33416935  0.41570570  0.69210472  1
  O2-  O546  1  0.33234410  0.66874286  0.01666859  1
  O2-  O547  1  0.34294638  0.63732176  0.36752055  1
  O2-  O548  1  0.33966480  0.63681905  0.69194034  1
  O2-  O549  1  0.32268262  0.89539275  0.02792350  1
  O2-  O550  1  0.31932318  0.89681687  0.35246628  1
  O2-  O551  1  0.34144529  0.94619259  0.71427475  1
  O2-  O552  1  0.57665688  0.16592960  0.01706673  1
  O2-  O553  1  0.58867765  0.16319677  0.35530040  1
  O2-  O554  1  0.51768263  0.05548724  0.66633590  1
  O2-  O555  1  0.59305658  0.42874234  0.02524938  1
  O2-  O556  1  0.58187614  0.40176093  0.34415751  1
  O2-  O557  1  0.58570113  0.44048577  0.70852729  1
  O2-  O558  1  0.58335738  0.67291184  0.02865334  1
  O2-  O559  1  0.60638917  0.67084391  0.35225507  1
  O2-  O560  1  0.50923884  0.63289312  0.63347561  1
  O2-  O561  1  0.57847785  0.91749498  0.02627534  1
  O2-  O562  1  0.67691827  0.96918886  0.36352972  1
  O2-  O563  1  0.56453261  0.92996144  0.69307034  1
  O2-  O564  1  0.81504871  0.15469701  0.01944959  1
  O2-  O565  1  0.85090098  0.17533062  0.34824749  1
  O2-  O566  1  0.82921355  0.15794245  0.68026265  1
  O2-  O567  1  0.83702798  0.41645991  0.03093598  1
  O2-  O568  1  0.83272729  0.41096251  0.35800464  1
  O2-  O569  1  0.83051936  0.38663417  0.68900274  1
  O2-  O570  1  0.83943406  0.66530683  0.02844700  1
  O2-  O571  1  0.85299091  0.62166342  0.34919826  1
  O2-  O572  1  0.83624727  0.66635840  0.69227733  1
  O2-  O573  1  0.83828098  0.91713997  0.02316398  1
  O2-  O574  1  0.85230310  0.93077442  0.34726548  1
  O2-  O575  1  0.81067675  0.89305740  0.66843211  1
