# generated using pymatgen
data_H2O
_symmetry_space_group_name_H-M   'P 1'
_cell_length_a   17.97155331
_cell_length_b   17.97692723
_cell_length_c   21.97194321
_cell_angle_alpha   90.03239121
_cell_angle_beta   89.97297061
_cell_angle_gamma   120.00423584
_symmetry_Int_Tables_number   1
_chemical_formula_structural   H2O
_chemical_formula_sum   'H384 O192'
_cell_volume   6147.25964709
_cell_formula_units_Z   192
loop_
 _symmetry_equiv_pos_site_id
 _symmetry_equiv_pos_as_xyz
  1  'x, y, z'
loop_
 _atom_type_symbol
 _atom_type_oxidation_number
  H+  1.0
  O2-  -2.0
loop_
 _atom_site_type_symbol
 _atom_site_label
 _atom_site_symmetry_multiplicity
 _atom_site_fract_x
 _atom_site_fract_y
 _atom_site_fract_z
 _atom_site_occupancy
  H+  H0  1  0.09792320  0.49312152  0.83712764  1
  H+  H1  1  0.12718317  0.73715204  0.67230999  1
  H+  H2  1  0.29516560  0.20385249  0.11725511  1
  H+  H3  1  0.78320409  0.13327805  0.14722129  1
  H+  H4  1  0.32771376  0.13014450  0.15730587  1
  H+  H5  1  0.36294524  0.45010804  -0.00950154  1
  H+  H6  1  0.60649788  -0.03519636  0.14901146  1
  H+  H7  1  0.52334865  0.62914295  0.82673589  1
  H+  H8  1  0.57789130  0.49422905  0.61652798  1
  H+  H9  1  0.61473946  0.76323013  0.32372652  1
  H+  H10  1  0.37789293  0.61804198  0.37130686  1
  H+  H11  1  0.90022473  0.28158677  0.51216414  1
  H+  H12  1  0.39428597  0.77149551  0.52266622  1
  H+  H13  1  0.39190175  0.39394170  0.14883535  1
  H+  H14  1  0.63076942  0.77045950  0.16345034  1
  H+  H15  1  0.74659949  0.88068475  0.84560328  1
  H+  H16  1  0.52926621  0.86586886  0.67279829  1
  H+  H17  1  0.26691518  0.72214969  0.01863646  1
  H+  H18  1  0.87790114  0.48145825  0.49353716  1
  H+  H19  1  0.87171633  0.99192166  0.65683756  1
  H+  H20  1  0.85249760  0.87885366  0.16633899  1
  H+  H21  1  -0.01377696  0.38715882  0.66192443  1
  H+  H22  1  0.23111625  0.12840719  0.54619377  1
  H+  H23  1  0.98259930  0.36117447  0.99117525  1
  H+  H24  1  0.26878211  0.64677098  0.15438023  1
  H+  H25  1  0.15716281  0.01113724  0.62007616  1
  H+  H26  1  0.28299756  0.97479844  0.37064284  1
  H+  H27  1  0.85677959  0.72274711  0.16141566  1
  H+  H28  1  0.39420824  0.77797928  0.66930833  1
  H+  H29  1  0.10437590  0.23001613  0.48991627  1
  H+  H30  1  0.86403829  0.48319825  0.34319317  1
  H+  H31  1  1.01089798  0.95928872  0.48112317  1
  H+  H32  1  0.40526668  0.52733422  0.41736650  1
  H+  H33  1  0.88425038  0.27727393  0.32779434  1
  H+  H34  1  -0.00874250  0.61485469  0.51027658  1
  H+  H35  1  0.14983073  0.08897328  -0.00699465  1
  H+  H36  1  0.72080824  0.37204521  0.84583556  1
  H+  H37  1  1.03545738  0.39783329  0.49306297  1
  H+  H38  1  0.75083911  0.40471731  0.52458353  1
  H+  H39  1  0.24229749  0.62838458  0.66277099  1
  H+  H40  1  0.60232288  0.71574104  0.99549951  1
  H+  H41  1  0.87058415  0.14592974  0.84534613  1
  H+  H42  1  0.14112748  0.76392711  0.50909539  1
  H+  H43  1  0.27712543  0.63142520  0.99910317  1
  H+  H44  1  0.51985763  0.15748790  0.33801353  1
  H+  H45  1  0.40454495  0.28230840  0.15797669  1
  H+  H46  1  0.98869611  0.66675923  0.99044667  1
  H+  H47  1  0.64078358  0.62054179  0.84365058  1
  H+  H48  1  0.13215975  0.62863850  0.83318384  1
  H+  H49  1  0.63878276  0.14798101  0.01018103  1
  H+  H50  1  0.87289033  0.84785740  0.67248085  1
  H+  H51  1  0.88923312  0.91224860  0.84362541  1
  H+  H52  1  0.84988803  0.38744234  0.83544560  1
  H+  H53  1  0.68951669  0.38462487  0.00574146  1
  H+  H54  1  0.89783701  0.36925677  0.50755837  1
  H+  H55  1  0.01914525  0.11292812  0.84071380  1
  H+  H56  1  0.37064487  1.01879279  0.48846287  1
  H+  H57  1  0.27082592  0.64417321  0.83012349  1
  H+  H58  1  0.85008644  0.15312465  0.74036777  1
  H+  H59  1  0.41268955  0.55714260  0.51686127  1
  H+  H60  1  0.14987094  0.46887645  0.00074097  1
  H+  H61  1  0.50601327  0.16924148  0.49372937  1
  H+  H62  1  1.02738723  0.39116269  0.15060930  1
  H+  H63  1  0.60773068  0.43122083  0.75562860  1
  H+  H64  1  0.91393959  0.57852802  0.56113981  1
  H+  H65  1  0.62653560  0.51141936  0.49681740  1
  H+  H66  1  1.00236532  0.96184438  0.88895795  1
  H+  H67  1  0.14187956  0.97276747  0.82775197  1
  H+  H68  1  0.85774172  0.14050490  0.34352952  1
  H+  H69  1  0.40758977  0.27062690  0.97591959  1
  H+  H70  1  0.52094396  0.64124263  0.14859041  1
  H+  H71  1  0.35573727  0.45413677  0.34427653  1
  H+  H72  1  0.25004101  0.37111103  0.82063680  1
  H+  H73  1  0.36907870  0.25097545  0.49401911  1
  H+  H74  1  0.33484185  0.37769843  0.65731264  1
  H+  H75  1  0.37329137  0.52166821  0.65974149  1
  H+  H76  1  0.65060928  1.00809359  0.52183332  1
  H+  H77  1  0.64088520  0.52632082  -0.01316266  1
  H+  H78  1  0.36312799  0.13458817  0.68477185  1
  H+  H79  1  0.63949844  0.63105745  0.17782527  1
  H+  H80  1  0.44841578  0.11975666  0.13049203  1
  H+  H81  1  0.46663925  0.35564000  0.71785367  1
  H+  H82  1  0.09610264  0.62203918  0.33279161  1
  H+  H83  1  0.14398228  0.97675514  0.48169695  1
  H+  H84  1  0.79309775  0.67116786  0.35479709  1
  H+  H85  1  0.21186807  0.82833313  0.32821216  1
  H+  H86  1  0.73131206  0.10156672  0.52301567  1
  H+  H87  1  0.38608712  0.76284254  0.17222272  1
  H+  H88  1  0.10519705  0.21097434  0.15495253  1
  H+  H89  1  0.27540943  0.87264214  0.50635167  1
  H+  H90  1  0.78722730  0.11391950  0.68356693  1
  H+  H91  1  0.88880768  1.03207862  0.33129382  1
  H+  H92  1  0.60921348  0.87561089  0.15979036  1
  H+  H93  1  0.74231605  0.10457941  0.01020134  1
  H+  H94  1  0.72014331  0.85989223  0.17199161  1
  H+  H95  1  0.21109947  0.07235125  0.19398677  1
  H+  H96  1  0.53698429  0.69066162  0.50492230  1
  H+  H97  1  0.63342338  0.14924395  0.81089924  1
  H+  H98  1  0.86499672  0.23128654  0.83254088  1
  H+  H99  1  0.66866700  0.34783103  0.61473922  1
  H+  H100  1  0.87328176  0.38738199  0.15460531  1
  H+  H101  1  0.36934469  0.88716721  0.67379960  1
  H+  H102  1  0.25478678  0.89233251  0.14573842  1
  H+  H103  1  0.38387609  0.35068516  0.32163339  1
  H+  H104  1  0.29640174  0.13294262  -0.00531881  1
  H+  H105  1  0.12360518  0.37203906  0.00421952  1
  H+  H106  1  0.63797987  0.86018499  0.98851057  1
  H+  H107  1  0.88363286  0.62446106  0.33122736  1
  H+  H108  1  0.25242060  0.38470412  0.66252022  1
  H+  H109  1  0.66990910  0.59154547  0.92923629  1
  H+  H110  1  0.41801295  0.59542239  0.60779099  1
  H+  H111  1  0.92308214  0.56669969  0.99244848  1
  H+  H112  1  0.48618055  0.36856647  0.68670095  1
  H+  H113  1  0.12951426  0.64905700  0.67193907  1
  H+  H114  1  0.71597642  0.57270917  0.32165566  1
  H+  H115  1  0.63956530  0.81880995  0.26241243  1
  H+  H116  1  0.82823246  0.34502889  1.00519788  1
  H+  H117  1  0.18309863  0.46187985  0.72472644  1
  H+  H118  1  0.65557396  0.78128567  0.58048105  1
  H+  H119  1  0.14741928  0.50616862  0.68042535  1
  H+  H120  1  0.31704754  0.17202702  0.40366902  1
  H+  H121  1  0.90318328  0.86463820  0.33334471  1
  H+  H122  1  0.60936012  0.84992252  0.66169714  1
  H+  H123  1  0.60770795  0.39067217  0.35866455  1
  H+  H124  1  0.12459141  0.34800157  0.16433362  1
  H+  H125  1  0.34006222  0.82060201  0.35031353  1
  H+  H126  1  0.43118677  0.83712125  0.89933707  1
  H+  H127  1  0.12169461  0.26756517  0.32463061  1
  H+  H128  1  0.64820319  0.01549017  1.00797806  1
  H+  H129  1  0.40605273  0.56094213  -0.11237069  1
  H+  H130  1  0.12734959  0.61550983  0.15706637  1
  H+  H131  1  0.47871321  0.85266562  0.33171063  1
  H+  H132  1  0.52488523  0.88119433  -0.00000326  1
  H+  H133  1  0.60176854  0.62790635  -0.00108796  1
  H+  H134  1  0.09484216  0.14686557  0.06146762  1
  H+  H135  1  0.00294978  0.19878544  0.71800637  1
  H+  H136  1  0.86568522  0.39051287  0.67856450  1
  H+  H137  1  0.90584995  0.82403826  0.23783368  1
  H+  H138  1  0.54032579  0.37965190  0.15546565  1
  H+  H139  1  0.34803611  0.25206071  0.64422292  1
  H+  H140  1  0.52288130  0.87565204  0.49859771  1
  H+  H141  1  0.58315771  0.36246495  0.84065784  1
  H+  H142  1  0.40727668  0.88448783  0.99043962  1
  H+  H143  1  0.21797276  0.61546620  0.30140721  1
  H+  H144  1  0.09706617  0.13388159  0.34320584  1
  H+  H145  1  0.94997170  0.97957724  0.38943653  1
  H+  H146  1  0.62746232  0.02305161  0.33769224  1
  H+  H147  1  0.48678043  0.85816528  0.83793925  1
  H+  H148  1  0.60047882  0.14480504  0.34969672  1
  H+  H149  1  0.38570275  0.60470901  0.83327435  1
  H+  H150  1  0.37598659  0.24023570  0.81734594  1
  H+  H151  1  0.59562514  0.47253882  0.34948206  1
  H+  H152  1  0.26615596  0.85112649  0.97526958  1
  H+  H153  1  0.27828665  0.88727891  0.67004040  1
  H+  H154  1  0.49470539  0.13347454  0.83081330  1
  H+  H155  1  0.14872327  0.37623903  0.49990471  1
  H+  H156  1  0.13205775  0.52716963  0.15713955  1
  H+  H157  1  0.13861396  0.09150706  0.83850559  1
  H+  H158  1  0.40803572  0.07404243  0.75535893  1
  H+  H159  1  0.25217338  0.62625047  0.51431739  1
  H+  H160  1  0.26016727  0.76012407  0.39104239  1
  H+  H161  1  0.96143059  0.37107011  0.84283247  1
  H+  H162  1  0.12982846  0.84609123  0.84886321  1
  H+  H163  1  0.00294925  0.12852412  0.67859069  1
  H+  H164  1  0.38415447  0.01292468  0.69729648  1
  H+  H165  1  0.77037121  0.14239233  0.35073981  1
  H+  H166  1  0.38421290  0.99494917  -0.00389759  1
  H+  H167  1  0.87414399  0.76782355  0.51709472  1
  H+  H168  1  0.14468899  0.25406737  -0.00953298  1
  H+  H169  1  0.89408208  0.27312852  0.17026644  1
  H+  H170  1  0.11664112  0.92124627  0.42045920  1
  H+  H171  1  0.12616743  0.01683088  0.33271319  1
  H+  H172  1  0.08917409  0.56229831  0.99360288  1
  H+  H173  1  0.00906255  0.62604322  0.34131076  1
  H+  H174  1  0.09621347  0.96594737  0.17018376  1
  H+  H175  1  0.11975073  0.85455534  0.17675852  1
  H+  H176  1  0.35378159  0.09823975  0.49267935  1
  H+  H177  1  0.64444715  0.48724968  0.69547812  1
  H+  H178  1  0.49361198  0.38939931  0.50808443  1
  H+  H179  1  0.82775904  0.61339365  0.66196374  1
  H+  H180  1  0.01424542  0.14074035  0.49271985  1
  H+  H181  1  0.20945013  0.11127097  0.33461956  1
  H+  H182  1  0.50878034  0.62241987  0.67643365  1
  H+  H183  1  0.92471816  0.09136350  0.92717627  1
  H+  H184  1  0.11082866  0.47460473  0.33010774  1
  H+  H185  1  0.12977260  0.63586339  0.49484845  1
  H+  H186  1  0.87805318  0.86335933  1.00156170  1
  H+  H187  1  0.88708163  0.52386771  0.16832851  1
  H+  H188  1  0.01216979  0.87730756  0.01473933  1
  H+  H189  1  0.97734300  0.10337958  0.17331295  1
  H+  H190  1  0.87620652  0.77283849  -0.00500030  1
  H+  H191  1  0.37947731  0.41177636  0.49073964  1
  H+  H192  1  0.87243081  0.01298626  0.50695911  1
  H+  H193  1  0.82548581  0.66556775  0.10056215  1
  H+  H194  1  0.31057779  0.99178857  0.14664340  1
  H+  H195  1  0.97431700  0.36449984  0.32565986  1
  H+  H196  1  0.94108339  0.87021802  0.91738150  1
  H+  H197  1  0.84632916  0.87399260  0.50453752  1
  H+  H198  1  0.86543515  0.64351121  0.82385542  1
  H+  H199  1  0.89969101  0.26729425  0.99218805  1
  H+  H200  1  0.03704937  0.11469100  0.00264427  1
  H+  H201  1  0.48940427  0.85589056  0.17450590  1
  H+  H202  1  0.87798323  0.64413759  0.49199109  1
  H+  H203  1  0.35630943  0.18320498  0.05309836  1
  H+  H204  1  0.79130415  0.50127358  0.59817753  1
  H+  H205  1  0.75494480  0.63525200  0.67595668  1
  H+  H206  1  0.40223275  0.75313649  0.32959840  1
  H+  H207  1  0.47317359  0.35425853  0.33329784  1
  H+  H208  1  0.59030637  0.84713276  0.48206900  1
  H+  H209  1  0.64689248  0.24583852  0.16121946  1
  H+  H210  1  0.11187507  0.27202828  0.65899940  1
  H+  H211  1  0.74139283  0.36487364  0.17239688  1
  H+  H212  1  0.38996944  0.05417622  0.30857239  1
  H+  H213  1  0.12843261  0.36768674  0.65782930  1
  H+  H214  1  0.53403069  0.37630190  -0.00999494  1
  H+  H215  1  0.39602283  0.86319263  0.51993888  1
  H+  H216  1  0.50559632  0.13669958  0.69517573  1
  H+  H217  1  1.01922186  0.63232206  0.81191134  1
  H+  H218  1  0.59996704  0.23631719  0.67474088  1
  H+  H219  1  0.11415908  0.87927106  0.33078761  1
  H+  H220  1  0.38800746  0.78818957  -0.00588760  1
  H+  H221  1  0.67625375  0.08406048  0.74506705  1
  H+  H222  1  0.74312866  0.84893682  0.65447622  1
  H+  H223  1  0.11286592  0.74506978  0.83856467  1
  H+  H224  1  0.04878437  0.89437389  0.83199730  1
  H+  H225  1  0.38066133  0.47569482  0.13907178  1
  H+  H226  1  0.76891701  0.37319407  0.68336219  1
  H+  H227  1  0.85703528  -0.02966478  0.16441027  1
  H+  H228  1  0.73106377  0.86421604  0.99222788  1
  H+  H229  1  0.01516269  0.63823094  0.15337518  1
  H+  H230  1  0.60173231  0.88425488  0.33829085  1
  H+  H231  1  0.37904254  0.61822401  0.15940025  1
  H+  H232  1  0.72424858  0.37741456  0.34748023  1
  H+  H233  1  0.67451524  0.07262004  0.09330815  1
  H+  H234  1  0.37473309  0.15226239  0.82002269  1
  H+  H235  1  0.15415149  0.85953455  0.50224414  1
  H+  H236  1  0.35271278  0.22768187  0.34238310  1
  H+  H237  1  0.36633304  0.72517234  0.83137322  1
  H+  H238  1  0.86406676  0.39368647  0.33970913  1
  H+  H239  1  0.40494035  0.35827513  -0.02063896  1
  H+  H240  1  0.11060513  0.60962255  -0.01326536  1
  H+  H241  1  0.58970185  0.60912194  0.66825268  1
  H+  H242  1  0.62330931  0.73864275  0.64783354  1
  H+  H243  1  0.73681216  0.11527420  0.80353943  1
  H+  H244  1  0.11037442  0.12389701  0.16121830  1
  H+  H245  1  0.85661031  0.64586696  1.00136247  1
  H+  H246  1  0.96213029  0.85565378  0.17748733  1
  H+  H247  1  0.39651247  0.64071024  0.52082118  1
  H+  H248  1  0.21342081  0.35177792  0.31956598  1
  H+  H249  1  0.87709087  0.12693042  0.00682354  1
  H+  H250  1  0.37788810  0.13208925  0.32528795  1
  H+  H251  1  0.44139903  0.59166897  0.98801142  1
  H+  H252  1  0.11803952  0.75308374  0.32385608  1
  H+  H253  1  0.73346168  0.62620847  0.84451319  1
  H+  H254  1  0.62368223  0.63903179  0.35876165  1
  H+  H255  1  0.33927449  0.84370961  0.82432170  1
  H+  H256  1  0.88004192  0.76348497  0.67047886  1
  H+  H257  1  0.33902942  0.55784655  0.97687349  1
  H+  H258  1  0.62558056  0.97401942  0.80528241  1
  H+  H259  1  0.65143621  0.87795101  0.83928439  1
  H+  H260  1  0.15915528  0.53500799  0.50809978  1
  H+  H261  1  0.72545423  0.62544743  0.18004959  1
  H+  H262  1  0.74942937  0.63793053  0.50844708  1
  H+  H263  1  0.12092200  0.37431506  0.85109774  1
  H+  H264  1  0.76322773  0.63835052  0.00322311  1
  H+  H265  1  0.86765428  0.13892403  0.50141482  1
  H+  H266  1  0.41409665  0.12913766  0.98290091  1
  H+  H267  1  0.16983237  0.34068043  0.55926722  1
  H+  H268  1  1.02321560  0.87708862  0.33454687  1
  H+  H269  1  0.44778117  0.08283221  0.14722640  1
  H+  H270  1  0.23815358  0.11579788  0.83810307  1
  H+  H271  1  0.07328862  0.79888215  0.03212333  1
  H+  H272  1  0.88834545  0.03567704  0.86749401  1
  H+  H273  1  -0.00643603  0.92108164  0.46022828  1
  H+  H274  1  0.86375993  0.97627958  0.01357953  1
  H+  H275  1  0.55790503  0.15355875  0.15584311  1
  H+  H276  1  0.10444217  0.72734637  0.15845059  1
  H+  H277  1  0.28856470  0.61359233  0.37898617  1
  H+  H278  1  0.32177389  -0.02994321  0.36591210  1
  H+  H279  1  0.14030666  0.86657798  0.65971617  1
  H+  H280  1  0.36569152  0.64139738  0.68079535  1
  H+  H281  1  0.24706187  0.09008798  0.63606194  1
  H+  H282  1  0.84636186  0.50040440  0.65302657  1
  H+  H283  1  0.64779475  0.36954912  0.68209743  1
  H+  H284  1  0.97047061  0.12268285  0.32657153  1
  H+  H285  1  0.94131001  0.08707130  1.04663640  1
  H+  H286  1  0.89503942  0.76790236  0.33506217  1
  H+  H287  1  0.42637427  0.81556318  0.24052230  1
  H+  H288  1  0.67866509  0.06419897  0.62056688  1
  H+  H289  1  0.06910474  0.17058506  0.40084137  1
  H+  H290  1  0.17781247  0.06005421  0.93323326  1
  H+  H291  1  0.41525529  0.34416768  0.55761707  1
  H+  H292  1  0.48428842  0.59281070  0.37426932  1
  H+  H293  1  0.75560644  0.85906363  0.48779063  1
  H+  H294  1  0.32241352  0.17012493  0.72920157  1
  H+  H295  1  0.14561109  0.06945626  0.24322968  1
  H+  H296  1  0.07686967  0.43617044  0.77767397  1
  H+  H297  1  0.15471670  0.33241956  0.89971233  1
  H+  H298  1  0.88044733  0.08425363  0.66442813  1
  H+  H299  1  0.90838479  0.06646166  0.56770734  1
  H+  H300  1  0.60131136  0.68951817  0.41090829  1
  H+  H301  1  0.64871684  0.35694914  0.16762697  1
  H+  H302  1  0.30459048  0.86926718  0.76822337  1
  H+  H303  1  0.32322529  0.68923691  0.09362025  1
  H+  H304  1  0.17052502  0.83383454  0.60144587  1
  H+  H305  1  0.68032270  0.84655430  0.91050147  1
  H+  H306  1  0.33797942  0.93860526  0.05612829  1
  H+  H307  1  0.35572655  0.68226082  0.45825950  1
  H+  H308  1  0.72928141  0.29011583  0.02198265  1
  H+  H309  1  0.92953468  0.59780887  0.89044001  1
  H+  H310  1  0.32766509  0.88401065  0.44655285  1
  H+  H311  1  0.59322202  0.39967014  0.09395473  1
  H+  H312  1  0.65047458  0.11340106  0.14708626  1
  H+  H313  1  0.31279043  0.40418851  0.76504381  1
  H+  H314  1  0.83766475  0.41734474  0.43783914  1
  H+  H315  1  0.83788146  0.17249594  0.44441816  1
  H+  H316  1  0.82049853  0.90692491  0.06891431  1
  H+  H317  1  0.87263408  0.13584845  0.15978089  1
  H+  H318  1  0.67065260  0.42046383  0.52789924  1
  H+  H319  1  0.90838479  0.58813443  0.27040666  1
  H+  H320  1  0.93031167  0.35332965  0.60218314  1
  H+  H321  1  0.14506769  0.31539395  0.22559353  1
  H+  H322  1  0.58906312  0.18361680  0.74128730  1
  H+  H323  1  0.82425020  0.39729750  0.09715478  1
  H+  H324  1  0.08964922  0.67305081  0.75352685  1
  H+  H325  1  0.65185061  0.99309431  0.67117613  1
  H+  H326  1  0.57674971  0.91110413  0.40201492  1
  H+  H327  1  0.29945514  0.25853871  0.58771256  1
  H+  H328  1  0.08806364  0.65606580  0.43568705  1
  H+  H329  1  0.89492609  0.82125468  0.58032664  1
  H+  H330  1  0.06131683  0.13383710  0.77560074  1
  H+  H331  1  0.24400858  0.56724935  0.93439008  1
  H+  H332  1  0.31519125  0.38611849  0.39359658  1
  H+  H333  1  0.77258004  0.87756094  0.72150270  1
  H+  H334  1  0.85596932  0.92646283  0.41355776  1
  H+  H335  1  0.09069714  0.42640631  0.43150385  1
  H+  H336  1  0.15807138  0.61276814  0.89906761  1
  H+  H337  1  0.59399587  0.89384570  0.76114409  1
  H+  H338  1  0.65745541  0.34213816  0.90385259  1
  H+  H339  1  0.67870830  0.66817694  0.51755612  1
  H+  H340  1  0.88618067  0.52608892  0.83795855  1
  H+  H341  1  0.58015881  0.66660898  0.08952186  1
  H+  H342  1  0.42977321  0.32808232  0.22513221  1
  H+  H343  1  0.61264505  0.18895223  0.06230876  1
  H+  H344  1  0.23435979  0.34143428  -0.01117212  1
  H+  H345  1  0.15288173  0.58021423  0.24689308  1
  H+  H346  1  0.57941303  0.89723687  0.06117397  1
  H+  H347  1  0.15793630  0.82360760  0.23110765  1
  H+  H348  1  0.34262574  0.09387948  0.22281825  1
  H+  H349  1  0.07456830  0.71983690  0.06790360  1
  H+  H350  1  0.63454558  0.28941000  0.34592133  1
  H+  H351  1  0.85372927  0.16896402  0.06257759  1
  H+  H352  1  0.87035542  0.94995162  0.78420734  1
  H+  H353  1  0.42832399  0.83675976  0.60893875  1
  H+  H354  1  1.02207948  0.88352631  0.67697804  1
  H+  H355  1  0.09261123  0.91826143  0.72912718  1
  H+  H356  1  0.59181930  0.43776616  0.44525061  1
  H+  H357  1  0.28851843  0.40954913  0.49225818  1
  H+  H358  1  0.08966430  0.41793635  0.09145681  1
  H+  H359  1  0.82833100  0.66625456  0.76717852  1
  H+  H360  1  0.18324412  0.59235070  0.60185313  1
  H+  H361  1  0.50416980  0.13154678  -0.01891971  1
  H+  H362  1  0.88088851  0.60978504  0.16963716  1
  H+  H363  1  0.16950444  0.77693294  -0.01166758  1
  H+  H364  1  0.90699533  0.33251680  0.90325897  1
  H+  H365  1  0.85130387  0.67980786  0.43240516  1
  H+  H366  1  0.33385636  0.67171260  0.73992179  1
  H+  H367  1  0.92118110  0.33399031  0.22918241  1
  H+  H368  1  0.11181648  0.95018582  0.01034059  1
  H+  H369  1  0.35023173  0.39850854  0.05230253  1
  H+  H370  1  0.66419098  0.59017913  0.27047215  1
  H+  H371  1  0.91666152  0.08168746  0.23312628  1
  H+  H372  1  0.42751983  0.09263860  0.88346164  1
  H+  H373  1  0.40646722  0.58201651  0.21566240  1
  H+  H374  1  0.46004992  0.34748944  0.88739617  1
  H+  H375  1  0.17230760  0.80270421  0.90130693  1
  H+  H376  1  0.57853256  0.21400971  0.44830770  1
  H+  H377  1  0.82479432  0.41727409  0.77400307  1
  H+  H378  1  0.10989453  0.38526128  0.33481082  1
  H+  H379  1  0.65979999  0.08827977  0.28245861  1
  H+  H380  1  0.65733957  0.57704881  0.59026981  1
  H+  H381  1  0.06961069  0.90787464  0.10880968  1
  H+  H382  1  0.58316693  0.65577197  0.76917448  1
  H+  H383  1  0.63076054  0.23784743  0.83067284  1
  O2-  O384  1  0.07866617  0.14910131  0.14053041  1
  O2-  O385  1  0.07093089  0.17192722  0.47218207  1
  O2-  O386  1  0.05520913  0.10086329  0.81303697  1
  O2-  O387  1  0.08843657  0.42407895  0.13683657  1
  O2-  O388  1  0.09569881  0.42831977  0.47674627  1
  O2-  O389  1  0.06460125  0.43291015  0.82182168  1
  O2-  O390  1  0.07474414  0.67087731  0.13567754  1
  O2-  O391  1  0.09430226  0.66179431  0.48070479  1
  O2-  O392  1  0.08215808  0.66733074  0.80127630  1
  O2-  O393  1  0.06569172  0.90515269  0.15425300  1
  O2-  O394  1  0.14447416  0.92913397  0.46124670  1
  O2-  O395  1  0.10600451  0.91061850  0.81498793  1
  O2-  O396  1  0.34770352  0.20063758  0.11819082  1
  O2-  O397  1  0.32487219  0.18832662  0.48755068  1
  O2-  O398  1  0.33931949  0.17853972  0.80725486  1
  O2-  O399  1  0.35960503  0.41651298  0.12568428  1
  O2-  O400  1  0.34872997  0.44197899  0.47587464  1
  O2-  O401  1  0.30537731  0.37874675  0.80557430  1
  O2-  O402  1  0.32974753  0.67899716  0.13963842  1
  O2-  O403  1  0.34761552  0.67703841  0.50237233  1
  O2-  O404  1  0.32984456  0.66564155  0.81460851  1
  O2-  O405  1  0.30888763  0.93980824  0.12912320  1
  O2-  O406  1  0.33565005  0.90322095  0.48933566  1
  O2-  O407  1  0.28785310  0.84382800  0.80907916  1
  O2-  O408  1  0.61738032  0.18241596  0.14184261  1
  O2-  O409  1  0.56455456  0.21942236  0.49065346  1
  O2-  O410  1  0.60129676  0.18142089  0.80826004  1
  O2-  O411  1  0.59932622  0.40206732  0.13839268  1
  O2-  O412  1  0.59849722  0.44820843  0.49061274  1
  O2-  O413  1  0.55498558  0.39591989  0.82779033  1
  O2-  O414  1  0.58183057  0.67215447  0.13522173  1
  O2-  O415  1  0.58708413  0.73646233  0.48102502  1
  O2-  O416  1  0.58530891  0.66139676  0.81388469  1
  O2-  O417  1  0.57194431  0.90033731  0.14457623  1
  O2-  O418  1  0.57962344  0.89560305  0.47732508  1
  O2-  O419  1  0.59888890  0.90998796  0.80571473  1
  O2-  O420  1  0.84684504  0.16908537  0.14167200  1
  O2-  O421  1  0.84111612  0.17426010  0.48961785  1
  O2-  O422  1  0.84289141  0.17041502  0.81914088  1
  O2-  O423  1  0.84362203  0.41823018  0.13936178  1
  O2-  O424  1  0.84204848  0.41888237  0.48337291  1
  O2-  O425  1  0.82234241  0.42038927  0.81958440  1
  O2-  O426  1  0.82810517  0.66228381  0.14575681  1
  O2-  O427  1  0.84681309  0.67430434  0.47943085  1
  O2-  O428  1  0.83553451  0.67475607  0.81163791  1
  O2-  O429  1  0.82336676  0.90977738  0.14938667  1
  O2-  O430  1  0.81714733  0.90279458  0.48246021  1
  O2-  O431  1  0.84901924  0.93072955  0.82528481  1
  O2-  O432  1  0.15158174  0.06486260  0.19827904  1
  O2-  O433  1  0.25043083  0.18172066  0.52040394  1
  O2-  O434  1  0.17976689  0.07316979  0.85359418  1
  O2-  O435  1  0.14154992  0.30755900  0.18084705  1
  O2-  O436  1  0.18000761  0.34653701  0.51460692  1
  O2-  O437  1  0.14644321  0.33731195  0.85559845  1
  O2-  O438  1  0.15959820  0.58774367  0.17374422  1
  O2-  O439  1  0.18656593  0.59408281  0.52516734  1
  O2-  O440  1  0.16144984  0.60052783  0.85619502  1
  O2-  O441  1  0.15297098  0.82462725  0.18591114  1
  O2-  O442  1  0.17235770  0.82346169  0.52610651  1
  O2-  O443  1  0.12445260  0.79330491  0.87041925  1
  O2-  O444  1  0.30438541  0.07578186  0.18718850  1
  O2-  O445  1  0.39444778  0.08038020  0.47934885  1
  O2-  O446  1  0.43185940  0.10360397  0.83876961  1
  O2-  O447  1  0.43856626  0.33963186  0.18100828  1
  O2-  O448  1  0.42938292  0.35652422  0.51348625  1
  O2-  O449  1  0.46414618  0.34217091  0.84185119  1
  O2-  O450  1  0.41208104  0.58940186  0.17171560  1
  O2-  O451  1  0.43844171  0.61535446  0.53410471  1
  O2-  O452  1  0.41867352  0.57642076  0.84416152  1
  O2-  O453  1  0.42690403  0.82109545  0.19406006  1
  O2-  O454  1  0.42919435  0.83578783  0.53501427  1
  O2-  O455  1  0.42770490  0.82769940  0.85426504  1
  O2-  O456  1  0.67210316  0.07189417  0.13925889  1
  O2-  O457  1  0.67611258  0.06328660  0.54359416  1
  O2-  O458  1  0.67481592  0.08537106  0.79035187  1
  O2-  O459  1  0.68069110  0.32894997  0.18559243  1
  O2-  O460  1  0.71312233  0.41415315  0.55323186  1
  O2-  O461  1  0.65952981  0.33378163  0.85954648  1
  O2-  O462  1  0.67209545  0.61119626  0.20264861  1
  O2-  O463  1  0.68917551  0.61820131  0.52352295  1
  O2-  O464  1  0.67458313  0.59524765  0.86234647  1
  O2-  O465  1  0.65729122  0.82916731  0.18286639  1
  O2-  O466  1  0.66456009  0.75379731  0.51575898  1
  O2-  O467  1  0.68573523  0.85292351  0.86049923  1
  O2-  O468  1  0.91622150  0.07714826  0.18765064  1
  O2-  O469  1  0.90722799  0.07278675  0.52247227  1
  O2-  O470  1  0.92071480  0.09555003  0.88215374  1
  O2-  O471  1  0.92386344  0.33446258  0.18371653  1
  O2-  O472  1  0.93257346  0.34391495  0.52365535  1
  O2-  O473  1  0.90103487  0.33419528  0.85787364  1
  O2-  O474  1  0.91482619  0.58329479  0.18520518  1
  O2-  O475  1  0.92789218  0.58594102  0.51698438  1
  O2-  O476  1  0.92442430  0.58912085  0.84574143  1
  O2-  O477  1  0.90105794  0.82460140  0.19214723  1
  O2-  O478  1  0.88331967  0.82193113  0.53637169  1
  O2-  O479  1  0.96383856  0.90217480  0.87710319  1
  O2-  O480  1  0.14824255  0.07834906  0.32088896  1
  O2-  O481  1  0.21025397  0.05615545  0.60128444  1
  O2-  O482  1  0.17725944  0.05550287  0.97850631  1
  O2-  O483  1  0.15237352  0.32732161  0.30718399  1
  O2-  O484  1  0.14636554  0.32898659  0.63880259  1
  O2-  O485  1  0.17178959  0.31567882  0.97903774  1
  O2-  O486  1  0.15672331  0.57997314  0.29323124  1
  O2-  O487  1  0.18108164  0.59356827  0.64767659  1
  O2-  O488  1  0.24909603  0.56267804  0.97811183  1
  O2-  O489  1  0.15626342  0.81340052  0.30894220  1
  O2-  O490  1  0.17442106  0.83902792  0.64691294  1
  O2-  O491  1  0.21784754  0.79623178  0.95877478  1
  O2-  O492  1  0.41245022  0.11465234  0.29908128  1
  O2-  O493  1  0.41242111  0.07647017  0.71047555  1
  O2-  O494  1  0.44425848  0.09870283  0.96610895  1
  O2-  O495  1  0.41672523  0.32143827  0.31127832  1
  O2-  O496  1  0.34505657  0.29516477  0.61699422  1
  O2-  O497  1  0.44073536  0.33284474  0.96302302  1
  O2-  O498  1  0.41956926  0.55695074  0.37750022  1
  O2-  O499  1  0.40912662  0.58530834  0.65310620  1
  O2-  O500  1  0.38856337  0.54758157  0.96826096  1
  O2-  O501  1  0.42027717  0.81106447  0.31278525  1
  O2-  O502  1  0.42906234  0.83897852  0.65507965  1
  O2-  O503  1  0.43093505  0.84709067  0.97665689  1
  O2-  O504  1  0.65862113  0.08602807  0.32675128  1
  O2-  O505  1  0.68138416  0.05666696  0.66588595  1
  O2-  O506  1  0.67881177  0.07811537  1.01721089  1
  O2-  O507  1  0.66227611  0.35223740  0.33846264  1
  O2-  O508  1  0.65712343  0.32659057  0.65790790  1
  O2-  O509  1  0.63855084  0.36753049  0.97993002  1
  O2-  O510  1  0.66470774  0.57782663  0.31654377  1
  O2-  O511  1  0.62813327  0.54730274  0.62999328  1
  O2-  O512  1  0.66577531  0.58782197  0.97703689  1
  O2-  O513  1  0.62970525  0.81979280  0.30676124  1
  O2-  O514  1  0.65314363  0.79550582  0.62568582  1
  O2-  O515  1  0.67238445  0.83430921  0.97110409  1
  O2-  O516  1  0.90911229  0.08886176  0.31153270  1
  O2-  O517  1  0.90832474  0.05285887  0.64480898  1
  O2-  O518  1  0.92363147  0.06975144  1.00454412  1
  O2-  O519  1  0.91440785  0.33602320  0.30943687  1
  O2-  O520  1  0.92723853  0.35725273  0.64745202  1
  O2-  O521  1  0.92113111  0.32827806  0.97926804  1
  O2-  O522  1  0.90941049  0.58811587  0.31556075  1
  O2-  O523  1  0.84183980  0.54077267  0.62373718  1
  O2-  O524  1  0.93432378  0.61903456  0.97148303  1
  O2-  O525  1  0.92546937  0.83029202  0.31350816  1
  O2-  O526  1  0.91168188  0.82600283  0.66032946  1
  O2-  O527  1  0.91130047  0.83602490  0.98501609  1
  O2-  O528  1  0.09860752  0.14455380  0.01604117  1
  O2-  O529  1  0.06892494  0.16793674  0.35424129  1
  O2-  O530  1  0.04260453  0.18057480  0.70309199  1
  O2-  O531  1  0.10129557  0.41190984  0.01404079  1
  O2-  O532  1  0.08231708  0.41825412  0.35096926  1
  O2-  O533  1  0.13010015  0.45052083  0.70443356  1
  O2-  O534  1  0.07358741  0.74380747  0.02676643  1
  O2-  O535  1  0.07114464  0.65263117  0.35476497  1
  O2-  O536  1  0.09686699  0.67639531  0.68738338  1
  O2-  O537  1  0.07077991  0.89521517  0.03115781  1
  O2-  O538  1  0.08630308  0.91102829  0.34724208  1
  O2-  O539  1  0.08526290  0.91629654  0.68447918  1
  O2-  O540  1  0.35717624  0.17193794  0.00600359  1
  O2-  O541  1  0.31564224  0.16743939  0.35875856  1
  O2-  O542  1  0.32717757  0.16233947  0.68454410  1
  O2-  O543  1  0.34343927  0.39070037  0.00655401  1
  O2-  O544  1  0.31817500  0.39090705  0.34873718  1
  O2-  O545  1  0.31432170  0.41541716  0.67422613  1
  O2-  O546  1  0.30913714  0.70382339  0.02550329  1
  O2-  O547  1  0.34822291  0.65336555  0.36839142  1
  O2-  O548  1  0.33748031  0.67500543  0.69401192  1
  O2-  O549  1  0.35263069  0.93503368  0.01233950  1
  O2-  O550  1  0.29100654  0.81775131  0.37381036  1
  O2-  O551  1  0.33680139  0.91513865  0.68913094  1
  O2-  O552  1  0.62069015  0.19132477  0.01715304  1
  O2-  O553  1  0.57529535  0.18102446  0.35975255  1
  O2-  O554  1  0.57223101  0.17540877  0.69536995  1
  O2-  O555  1  0.59592898  0.41084709  0.00750622  1
  O2-  O556  1  0.56938535  0.41627108  0.37052963  1
  O2-  O557  1  0.64869229  0.44525701  0.72154657  1
  O2-  O558  1  0.56988141  0.65758094  0.01306731  1
  O2-  O559  1  0.58704311  0.66383064  0.36951287  1
  O2-  O560  1  0.57201407  0.64869452  0.68575709  1
  O2-  O561  1  0.58598558  0.90415665  0.01633261  1
  O2-  O562  1  0.57475394  0.91713450  0.35639865  1
  O2-  O563  1  0.58981023  0.88394453  0.68606559  1
  O2-  O564  1  0.84993905  0.16373051  0.01712479  1
  O2-  O565  1  0.83225109  0.17378328  0.36177291  1
  O2-  O566  1  0.84924522  0.14337609  0.69587802  1
  O2-  O567  1  0.78049633  0.34878979  0.02461888  1
  O2-  O568  1  0.83705386  0.42372251  0.36017778  1
  O2-  O569  1  0.82881544  0.41277457  0.69671324  1
  O2-  O570  1  0.82435578  0.67171876  0.01968663  1
  O2-  O571  1  0.85193027  0.68426715  0.36162909  1
  O2-  O572  1  0.81533583  0.65520728  0.68403149  1
  O2-  O573  1  0.82358300  0.91005246  0.02349844  1
  O2-  O574  1  0.89091272  0.94816537  0.37459536  1
  O2-  O575  1  0.79705029  0.88346066  0.68110025  1
