# generated using pymatgen
data_H2O
_symmetry_space_group_name_H-M   'P 1'
_cell_length_a   17.97229820
_cell_length_b   17.96228016
_cell_length_c   21.99419691
_cell_angle_alpha   90.01749711
_cell_angle_beta   90.00468940
_cell_angle_gamma   120.00847843
_symmetry_Int_Tables_number   1
_chemical_formula_structural   H2O
_chemical_formula_sum   'H384 O192'
_cell_volume   6148.46458704
_cell_formula_units_Z   192
loop_
 _symmetry_equiv_pos_site_id
 _symmetry_equiv_pos_as_xyz
  1  'x, y, z'
loop_
 _atom_type_symbol
 _atom_type_oxidation_number
  H+  1.0
  O2-  -2.0
loop_
 _atom_site_type_symbol
 _atom_site_label
 _atom_site_symmetry_multiplicity
 _atom_site_fract_x
 _atom_site_fract_y
 _atom_site_fract_z
 _atom_site_occupancy
  H+  H0  1  0.52895433  0.88343441  0.66836270  1
  H+  H1  1  0.61098157  0.88302992  0.49062279  1
  H+  H2  1  0.86577251  1.03844338  0.58710822  1
  H+  H3  1  0.39265130  0.61337951  0.65161291  1
  H+  H4  1  0.63587355  0.02150091  0.49708812  1
  H+  H5  1  0.86288273  0.88166822  0.80490478  1
  H+  H6  1  0.11452371  0.46782677  0.34395529  1
  H+  H7  1  0.36150704  0.76374679  0.17943353  1
  H+  H8  1  0.88061819  0.52488702  0.31670659  1
  H+  H9  1  0.62614575  0.88376948  0.15413182  1
  H+  H10  1  0.72686202  0.60829948  0.49950309  1
  H+  H11  1  0.77472192  0.13682688  0.15433113  1
  H+  H12  1  0.12732284  0.86081594  0.17119461  1
  H+  H13  1  0.87862555  0.02657790  0.33122481  1
  H+  H14  1  0.13883107  0.77509234  0.83712530  1
  H+  H15  1  0.51708117  0.38475268  0.67904843  1
  H+  H16  1  0.11874131  0.22840815  0.83837585  1
  H+  H17  1  0.36667313  0.72681875  0.49157156  1
  H+  H18  1  0.97708131  0.86826648  0.83158280  1
  H+  H19  1  0.61856703  0.72897216  0.66583418  1
  H+  H20  1  0.87862258  0.10639137  0.98962524  1
  H+  H21  1  0.86102874  0.73523592  0.82179444  1
  H+  H22  1  0.37931065  0.60754387  0.33455795  1
  H+  H23  1  0.85919652  -0.02582722  1.00050967  1
  H+  H24  1  0.13626447  0.02296116  0.84683113  1
  H+  H25  1  0.38390616  0.77053329  0.33193480  1
  H+  H26  1  0.22152831  0.86999983  0.83303443  1
  H+  H27  1  0.22572520  0.60014401  0.85227365  1
  H+  H28  1  0.64818090  0.62236680  0.64635915  1
  H+  H29  1  0.25759023  0.14452758  0.63852561  1
  H+  H30  1  0.59389211  0.91062344  0.09511770  1
  H+  H31  1  0.98404290  0.11074636  0.83728392  1
  H+  H32  1  0.38209794  0.35416242  0.33260528  1
  H+  H33  1  0.33603423  0.10343967  0.48976871  1
  H+  H34  1  0.63556577  0.35438166  0.17493081  1
  H+  H35  1  0.89216788  0.50933178  0.82818659  1
  H+  H36  1  0.13169252  0.35681070  0.32847292  1
  H+  H37  1  0.60632858  0.22642394  0.35281022  1
  H+  H38  1  0.50534478  0.66702117  0.16820276  1
  H+  H39  1  0.91455482  0.60320354  0.81013423  1
  H+  H40  1  0.34250296  0.21437621  0.34088959  1
  H+  H41  1  0.19606419  0.17757855  0.70179630  1
  H+  H42  1  0.77210808  0.88975055  0.34263261  1
  H+  H43  1  0.02429507  0.14649141  0.15802457  1
  H+  H44  1  0.39328486  0.86572453  0.50436511  1
  H+  H45  1  0.10203790  0.13153308  0.30787049  1
  H+  H46  1  0.41041028  0.57370946  0.55734004  1
  H+  H47  1  0.89272907  0.27388049  0.64925586  1
  H+  H48  1  0.41318903  0.01656371  1.04991069  1
  H+  H49  1  0.95405289  0.86511400  0.51613985  1
  H+  H50  1  0.13385739  0.58239990  1.00302634  1
  H+  H51  1  0.86886892  0.24615054  0.81558971  1
  H+  H52  1  0.15797598  0.90494125  0.98533015  1
  H+  H53  1  0.12225806  0.76801836  0.17200043  1
  H+  H54  1  0.51876211  0.38301891  0.82874641  1
  H+  H55  1  0.63198127  0.86103692  0.66840442  1
  H+  H56  1  0.87067883  0.61310814  0.16111865  1
  H+  H57  1  0.63064291  0.76937447  0.51120702  1
  H+  H58  1  0.78235270  0.63746570  0.99648553  1
  H+  H59  1  0.34974065  -0.03379268  0.17612913  1
  H+  H60  1  0.88600105  0.86597440  0.98588677  1
  H+  H61  1  0.60977411  0.96827508  -0.00250803  1
  H+  H62  1  0.50982675  0.15432140  0.97362222  1
  H+  H63  1  0.12104694  0.38782598  0.67847416  1
  H+  H64  1  0.16435068  0.89179491  0.51066041  1
  H+  H65  1  0.36148136  0.21444950  0.16934698  1
  H+  H66  1  0.58850581  0.91640394  0.73056846  1
  H+  H67  1  0.71856650  0.61511381  0.33149419  1
  H+  H68  1  0.74135064  0.40139691  0.32480880  1
  H+  H69  1  0.64645058  0.09773669  0.31292508  1
  H+  H70  1  0.48885641  0.14294323  0.13004341  1
  H+  H71  1  0.24859561  0.88313701  0.51312829  1
  H+  H72  1  0.64957919  0.98623788  0.82969584  1
  H+  H73  1  0.35625909  0.13227724  0.83366990  1
  H+  H74  1  0.16796913  0.04220307  0.58600285  1
  H+  H75  1  0.89323788  1.03142079  0.16631595  1
  H+  H76  1  0.35066072  0.46228989  0.49442159  1
  H+  H77  1  0.24000154  0.83946900  -0.00172202  1
  H+  H78  1  0.23438183  0.13036127  0.00228839  1
  H+  H79  1  0.37063661  0.98834252  0.49424921  1
  H+  H80  1  0.36735615  0.09368736  0.17968864  1
  H+  H81  1  0.72987304  0.10767218  0.98778131  1
  H+  H82  1  0.88551011  0.78344059  0.16927624  1
  H+  H83  1  0.10973115  0.44475701  0.01222828  1
  H+  H84  1  0.08556805  0.13375699  0.58687522  1
  H+  H85  1  0.66700186  0.07774054  0.55759269  1
  H+  H86  1  0.91553730  0.25426406  0.50212640  1
  H+  H87  1  0.37006941  0.27605663  0.65869569  1
  H+  H88  1  0.20915504  0.11005971  0.32036617  1
  H+  H89  1  0.15133564  0.78353560  0.66686761  1
  H+  H90  1  0.97152480  0.36340294  0.17285275  1
  H+  H91  1  0.51844918  0.64275031  0.18941939  1
  H+  H92  1  0.76175049  0.89839111  0.49962317  1
  H+  H93  1  0.15168371  0.63087715  0.52884864  1
  H+  H94  1  0.59518950  0.63178142  0.85599680  1
  H+  H95  1  0.64318403  0.61209261  0.99147251  1
  H+  H96  1  0.44171241  0.11951859  0.47555097  1
  H+  H97  1  0.13658533  0.75770283  0.50478819  1
  H+  H98  1  0.52036796  0.63716424  0.34206218  1
  H+  H99  1  0.26557872  0.13223263  0.16320901  1
  H+  H100  1  0.87195035  0.63774575  -0.00130832  1
  H+  H101  1  0.11072409  0.99649756  0.01123951  1
  H+  H102  1  0.34729268  0.88870104  0.82990164  1
  H+  H103  1  0.53399961  0.38634576  0.00413670  1
  H+  H104  1  0.15911253  0.28194766  0.67426693  1
  H+  H105  1  0.63493042  0.51669721  0.50409871  1
  H+  H106  1  0.37795295  1.03048916  0.84146724  1
  H+  H107  1  0.51932485  0.87867824  0.00210693  1
  H+  H108  1  0.33912137  0.12370674  0.33982268  1
  H+  H109  1  0.52051332  0.37391399  0.15941028  1
  H+  H110  1  0.62223027  0.47555342  0.00558110  1
  H+  H111  1  0.10726259  0.23341297  0.31057285  1
  H+  H112  1  0.87365023  0.39750368  0.33773759  1
  H+  H113  1  0.36336131  0.00906684  0.67771933  1
  H+  H114  1  0.93523539  0.60277307  0.60284799  1
  H+  H115  1  0.71907495  0.85673432  0.67793367  1
  H+  H116  1  0.26338348  0.37007236  0.50154773  1
  H+  H117  1  0.71843422  0.58774531  0.18150858  1
  H+  H118  1  0.88079352  0.38198950  0.00177422  1
  H+  H119  1  0.85239912  0.90471658  0.50240213  1
  H+  H120  1  0.73924705  0.11276090  0.32963058  1
  H+  H121  1  0.13343187  0.86199775  0.32525444  1
  H+  H122  1  0.35052959  0.86456503  0.17947173  1
  H+  H123  1  0.48020990  0.86216122  0.49801739  1
  H+  H124  1  0.58525782  0.65483564  0.71568171  1
  H+  H125  1  0.10107497  0.98233502  0.48517308  1
  H+  H126  1  0.32069463  0.38046035  0.09454157  1
  H+  H127  1  0.47503491  0.85860790  0.32748417  1
  H+  H128  1  -0.00942652  0.63541568  0.50659306  1
  H+  H129  1  0.52917171  0.12672672  0.66757660  1
  H+  H130  1  0.09603122  0.92978617  0.39106278  1
  H+  H131  1  0.37247669  0.34903008  0.50401147  1
  H+  H132  1  0.37956551  0.02047367  0.33492897  1
  H+  H133  1  0.16153596  0.83133144  0.26598527  1
  H+  H134  1  0.48070621  0.61154018  0.64620728  1
  H+  H135  1  0.76821038  0.69644213  0.12547529  1
  H+  H136  1  0.73749853  0.01942283  0.87324084  1
  H+  H137  1  0.85415882  0.96545391  0.71142911  1
  H+  H138  1  0.83887571  0.64188597  0.84156211  1
  H+  H139  1  0.10945397  0.39306449  0.16473291  1
  H+  H140  1  1.01165041  0.37151462  0.82290870  1
  H+  H141  1  0.12999792  0.11565563  0.16660650  1
  H+  H142  1  0.19802033  1.02407334  0.46621663  1
  H+  H143  1  0.63231307  0.86420717  0.83136567  1
  H+  H144  1  0.09932317  0.67151687  0.73713357  1
  H+  H145  1  0.60930863  0.63410357  0.49171543  1
  H+  H146  1  0.78020882  0.40204545  0.48932489  1
  H+  H147  1  0.13195743  0.51152786  0.84686809  1
  H+  H148  1  0.24295335  0.37488714  0.67070238  1
  H+  H149  1  0.61284786  0.87647444  0.33384758  1
  H+  H150  1  1.03463625  0.62716631  1.00342521  1
  H+  H151  1  0.89942219  0.63109297  0.50583267  1
  H+  H152  1  0.61396836  0.72249534  0.99917156  1
  H+  H153  1  0.26886912  0.61460593  0.01159220  1
  H+  H154  1  0.22317448  0.35817408  0.83780765  1
  H+  H155  1  0.65890301  0.82912677  0.57110622  1
  H+  H156  1  0.85338995  0.37325837  0.81369986  1
  H+  H157  1  0.61148486  0.23334534  0.81753718  1
  H+  H158  1  0.77372313  0.13388654  0.65425711  1
  H+  H159  1  1.01215410  0.36143831  1.01528212  1
  H+  H160  1  0.37932352  0.35772174  0.84320584  1
  H+  H161  1  1.03833885  0.63023223  0.82860960  1
  H+  H162  1  0.10590974  0.72685937  0.32979839  1
  H+  H163  1  0.63752608  0.22986879  -0.01153075  1
  H+  H164  1  0.12029377  0.47648326  0.67726837  1
  H+  H165  1  0.89404947  0.78104317  0.98311436  1
  H+  H166  1  0.62516323  0.26234795  0.66056284  1
  H+  H167  1  1.02228698  0.89073798  0.15910471  1
  H+  H168  1  0.54352731  0.17087379  0.07058935  1
  H+  H169  1  0.57418261  0.39920887  0.44034642  1
  H+  H170  1  0.45569110  0.60626386  0.85828847  1
  H+  H171  1  0.29691311  0.13866077  0.43308118  1
  H+  H172  1  -0.03449348  0.61482616  0.30763960  1
  H+  H173  1  0.64109788  0.01644648  0.65386624  1
  H+  H174  1  0.35816570  0.70605925  1.00958561  1
  H+  H175  1  0.60863582  0.37511329  0.34570182  1
  H+  H176  1  0.35387870  0.22824359  0.83766235  1
  H+  H177  1  0.72443406  0.35726190  0.17462956  1
  H+  H178  1  0.36055515  0.46928677  1.01053744  1
  H+  H179  1  0.37192729  0.48420444  0.67290281  1
  H+  H180  1  0.10475829  0.97479346  0.32810667  1
  H+  H181  1  0.63937478  0.37063149  0.83523180  1
  H+  H182  1  0.43150421  0.83552885  0.59557570  1
  H+  H183  1  0.85875236  0.72793005  0.33883971  1
  H+  H184  1  0.02492438  0.37999372  0.34336659  1
  H+  H185  1  0.87569466  0.90043116  0.15534832  1
  H+  H186  1  0.35672688  0.81471445  0.99951849  1
  H+  H187  1  0.15239893  0.61707588  0.67145072  1
  H+  H188  1  0.13105330  0.60414765  0.32344100  1
  H+  H189  1  0.65538615  0.57637857  0.27534792  1
  H+  H190  1  0.74496564  0.87501959  0.17415814  1
  H+  H191  1  0.45972514  0.11735993  0.33835110  1
  H+  H192  1  0.26751772  0.29020861  0.12436184  1
  H+  H193  1  0.26887142  0.63351005  0.33905842  1
  H+  H194  1  0.85108761  0.72756924  0.49258697  1
  H+  H195  1  0.64766971  0.64125009  0.15227863  1
  H+  H196  1  0.52009830  0.14856554  0.81666709  1
  H+  H197  1  0.65636815  0.36729402  0.99037765  1
  H+  H198  1  0.38040203  0.51825139  0.33553725  1
  H+  H199  1  0.98448928  0.36068677  0.65420284  1
  H+  H200  1  0.74691343  0.36890002  -0.01430895  1
  H+  H201  1  0.88284549  0.27388073  0.17148456  1
  H+  H202  1  1.04035238  0.64743206  0.67718663  1
  H+  H203  1  0.86849281  0.22889715  0.00125160  1
  H+  H204  1  0.85573519  0.47120633  0.15100007  1
  H+  H205  1  0.12678989  0.63233661  0.83417265  1
  H+  H206  1  0.82721323  0.65587716  0.72688098  1
  H+  H207  1  0.63330686  0.85654822  0.98850560  1
  H+  H208  1  0.53404206  0.13459081  0.51141163  1
  H+  H209  1  0.12348411  0.25162648  0.53939294  1
  H+  H210  1  0.00528235  0.13424146  0.31195490  1
  H+  H211  1  0.13200273  0.35412967  0.83745904  1
  H+  H212  1  0.25850572  0.13148649  0.84038360  1
  H+  H213  1  0.36097474  0.63395443  0.49041092  1
  H+  H214  1  0.29032712  0.77906382  0.88905375  1
  H+  H215  1  0.20420650  0.74270852  0.01542783  1
  H+  H216  1  0.86796022  0.14569523  0.15345916  1
  H+  H217  1  0.90724121  0.53691999  0.65922710  1
  H+  H218  1  0.46849910  0.60157402  0.49810919  1
  H+  H219  1  1.02648697  0.90395092  1.00141856  1
  H+  H220  1  0.63708389  0.36139335  0.50968099  1
  H+  H221  1  0.14030385  0.18443504  1.00672105  1
  H+  H222  1  0.87847277  0.10914349  0.63541719  1
  H+  H223  1  0.88475440  0.40242475  0.66211084  1
  H+  H224  1  0.64383061  0.27595457  0.50974745  1
  H+  H225  1  0.89580126  0.51870105  -0.01203509  1
  H+  H226  1  0.67164902  0.77969656  0.16895748  1
  H+  H227  1  0.70909873  0.61053478  0.83309255  1
  H+  H228  1  0.38275972  0.59875941  1.00563252  1
  H+  H229  1  0.29838657  0.13780856  0.70205816  1
  H+  H230  1  0.86127977  0.38521347  0.15718341  1
  H+  H231  1  0.33268332  0.73865988  0.84543877  1
  H+  H232  1  0.27169603  0.88287850  0.34188684  1
  H+  H233  1  0.23196046  0.11306148  0.53945792  1
  H+  H234  1  0.13717298  0.11356594  0.85091080  1
  H+  H235  1  0.62758840  0.50279278  0.17594946  1
  H+  H236  1  0.38266585  0.34171515  0.17646772  1
  H+  H237  1  0.53839638  0.89991162  0.82138568  1
  H+  H238  1  0.12812007  0.02372600  0.16622853  1
  H+  H239  1  1.02152629  0.88384690  0.67565380  1
  H+  H240  1  0.12397176  0.36082063  0.50094267  1
  H+  H241  1  0.62468045  0.51655929  0.83719325  1
  H+  H242  1  0.18228257  0.58965039  0.61127340  1
  H+  H243  1  0.27875805  0.91674732  0.68138884  1
  H+  H244  1  0.10787065  0.88822131  0.82492820  1
  H+  H245  1  0.58420076  0.15850967  0.72959403  1
  H+  H246  1  0.65087303  0.01883117  0.16342616  1
  H+  H247  1  0.88188438  0.86715888  0.33071613  1
  H+  H248  1  0.87398352  0.13184296  0.80588067  1
  H+  H249  1  0.01930082  0.35279081  0.49921631  1
  H+  H250  1  0.87673464  0.05152761  0.47109039  1
  H+  H251  1  0.33200095  0.62522955  0.16934761  1
  H+  H252  1  0.79214522  0.20801212  0.38462994  1
  H+  H253  1  0.09867871  0.63287398  0.16389524  1
  H+  H254  1  0.63932217  0.10466142  0.65520091  1
  H+  H255  1  0.25564317  0.87451186  0.17103871  1
  H+  H256  1  0.40148244  0.77552535  0.65358900  1
  H+  H257  1  0.87759243  0.76668775  0.66367699  1
  H+  H258  1  0.39240016  0.27590236  -0.00001691  1
  H+  H259  1  0.89542427  0.02236762  0.82763675  1
  H+  H260  1  0.64005185  0.77009083  0.32693800  1
  H+  H261  1  0.38461763  0.98081958  0.02864630  1
  H+  H262  1  0.36335564  0.59969326  0.84794016  1
  H+  H263  1  0.21056518  0.61297895  0.17160903  1
  H+  H264  1  0.96952684  0.86447498  0.32850497  1
  H+  H265  1  0.37161796  0.25973324  0.50614910  1
  H+  H266  1  0.73966841  0.61664995  0.64965366  1
  H+  H267  1  0.08187258  0.92375610  0.76658660  1
  H+  H268  1  0.86931993  0.63361760  0.66909011  1
  H+  H269  1  0.18050110  0.87206920  0.92479395  1
  H+  H270  1  0.35782369  0.47228287  0.83430003  1
  H+  H271  1  0.51946631  0.38286009  0.50014787  1
  H+  H272  1  0.88168094  0.11745640  0.32911912  1
  H+  H273  1  0.33991067  0.42009339  0.77159593  1
  H+  H274  1  0.28228556  0.63461409  0.67652360  1
  H+  H275  1  1.01025929  0.63515058  0.15673001  1
  H+  H276  1  0.21977736  0.35993163  0.17379936  1
  H+  H277  1  0.37270370  0.52532144  0.17892963  1
  H+  H278  1  0.86789742  0.49150730  0.49000089  1
  H+  H279  1  0.83427361  0.68303434  0.08674556  1
  H+  H280  1  0.62368452  0.13302270  0.98572813  1
  H+  H281  1  0.27299155  0.37470406  0.00969303  1
  H+  H282  1  0.32142854  0.66110612  0.10492356  1
  H+  H283  1  0.59900424  0.72324348  0.85359546  1
  H+  H284  1  0.11207904  0.88798756  0.67713784  1
  H+  H285  1  0.26861005  0.37794418  0.34112987  1
  H+  H286  1  0.35918942  0.67106061  0.72668143  1
  H+  H287  1  0.61808208  0.96732887  0.33476005  1
  H+  H288  1  0.32242065  0.40345570  0.40293733  1
  H+  H289  1  0.43858081  0.16579070  0.63640668  1
  H+  H290  1  0.10329812  0.16720779  0.78143323  1
  H+  H291  1  1.00170119  0.13372720  0.57293213  1
  H+  H292  1  0.85682831  0.63758255  0.33543311  1
  H+  H293  1  0.58213648  0.40808639  0.09989216  1
  H+  H294  1  0.08091443  0.65030801  0.06779909  1
  H+  H295  1  0.08071526  0.92171297  0.09837504  1
  H+  H296  1  0.39746973  0.80751126  0.93900687  1
  H+  H297  1  0.39421999  0.36494548  0.99503225  1
  H+  H298  1  0.63602636  0.68032268  0.08918209  1
  H+  H299  1  0.84260160  0.41289567  0.05732550  1
  H+  H300  1  0.12311990  0.52168173  0.17105976  1
  H+  H301  1  0.89668684  0.58285542  0.22175432  1
  H+  H302  1  0.77878059  0.11197129  0.81119084  1
  H+  H303  1  0.68046285  0.36820508  0.26485000  1
  H+  H304  1  0.42342656  0.10942669  0.89246239  1
  H+  H305  1  0.91365524  0.83741894  0.23233758  1
  H+  H306  1  0.15536438  0.07959136  0.25684622  1
  H+  H307  1  0.17338689  0.09987982  0.94400094  1
  H+  H308  1  0.60095209  0.37731779  0.67951247  1
  H+  H309  1  0.67652401  0.58662295  0.58117022  1
  H+  H310  1  0.46343592  0.33841666  0.33697768  1
  H+  H311  1  0.66775283  0.57867399  0.93198687  1
  H+  H312  1  0.17882937  0.84575594  0.60858619  1
  H+  H313  1  0.41106784  0.32808458  0.90314883  1
  H+  H314  1  0.16666334  0.33835524  0.26503736  1
  H+  H315  1  0.65565136  0.32750406  0.60463021  1
  H+  H316  1  0.58501046  0.90942204  0.42713229  1
  H+  H317  1  0.83253254  0.67037794  0.43175136  1
  H+  H318  1  0.84139305  0.92480546  0.09480628  1
  H+  H319  1  0.09032761  0.19074281  0.10155945  1
  H+  H320  1  0.61994587  0.13018984  0.49687361  1
  H+  H321  1  0.91415311  0.84021932  0.88918842  1
  H+  H322  1  0.93759417  0.32166633  0.56056916  1
  H+  H323  1  0.40441846  0.56871833  0.94341737  1
  H+  H324  1  0.13938650  0.69863592  0.45283356  1
  H+  H325  1  0.37121104  0.39462456  0.67361725  1
  H+  H326  1  0.52750383  0.63146480  0.00863849  1
  H+  H327  1  0.09626701  0.39293302  0.43704075  1
  H+  H328  1  0.41015572  0.33156530  0.59902222  1
  H+  H329  1  0.33497061  0.93790750  0.77142444  1
  H+  H330  1  0.57081076  0.18155200  0.41762279  1
  H+  H331  1  0.88873819  0.27706451  0.32913772  1
  H+  H332  1  0.28029995  0.63868102  0.78310318  1
  H+  H333  1  0.90822474  0.07606163  0.93092546  1
  H+  H334  1  0.12147530  0.32804886  1.01424724  1
  H+  H335  1  0.37989989  0.15683102  0.01148011  1
  H+  H336  1  0.77267034  0.38818289  0.81664944  1
  H+  H337  1  0.05247443  0.65630545  0.38050092  1
  H+  H338  1  0.66655045  0.83124317  0.92910066  1
  H+  H339  1  0.72321339  0.72303184  0.76524462  1
  H+  H340  1  0.68393829  0.07345740  0.22385684  1
  H+  H341  1  0.40478210  0.07268171  0.23883254  1
  H+  H342  1  0.84968170  0.16237291  0.41732284  1
  H+  H343  1  0.83337830  0.16815429  0.05962859  1
  H+  H344  1  0.60952283  0.63578890  0.34189552  1
  H+  H345  1  0.48562208  0.22016352  0.94686682  1
  H+  H346  1  0.07635838  0.40877416  0.10172124  1
  H+  H347  1  0.41678251  0.32274661  0.23895888  1
  H+  H348  1  0.67709353  0.82935959  0.26660420  1
  H+  H349  1  0.84486360  0.43290650  0.39595963  1
  H+  H350  1  0.08911369  0.18568839  0.42305869  1
  H+  H351  1  0.34037845  0.16827153  0.07381322  1
  H+  H352  1  0.37232873  0.56026779  0.24482958  1
  H+  H353  1  0.94933721  0.34588628  0.94659854  1
  H+  H354  1  0.36159157  0.88419835  0.34332233  1
  H+  H355  1  0.67932777  0.06793303  0.92573740  1
  H+  H356  1  0.07686323  0.40882983  0.76745812  1
  H+  H357  1  0.07965283  0.22189453  0.42116388  1
  H+  H358  1  0.69932101  0.74720683  0.76678118  1
  H+  H359  1  0.54082401  0.29445751  0.38113941  1
  H+  H360  1  0.92084527  0.33465977  0.26801971  1
  H+  H361  1  0.89570898  0.83284875  0.57440483  1
  H+  H362  1  0.39703792  0.82408352  0.24092237  1
  H+  H363  1  0.57530882  0.41301743  0.76669736  1
  H+  H364  1  0.16250917  0.55643954  0.94200546  1
  H+  H365  1  0.32602464  0.66354946  0.40040430  1
  H+  H366  1  0.23433843  0.62222430  0.51886697  1
  H+  H367  1  0.83510550  0.15753749  0.71202011  1
  H+  H368  1  0.58064501  0.66700947  0.43358200  1
  H+  H369  1  0.92446164  0.57898394  0.92937253  1
  H+  H370  1  0.12865520  0.27841741  0.17750543  1
  H+  H371  1  0.91381331  0.08690357  0.22724897  1
  H+  H372  1  0.84986120  0.42724166  0.72094996  1
  H+  H373  1  0.16051867  0.57481456  0.26533125  1
  H+  H374  1  0.17267298  0.33213406  0.58202013  1
  H+  H375  1  0.42074002  0.10257385  0.58079940  1
  H+  H376  1  0.77213405  0.88250373  0.00338544  1
  H+  H377  1  0.71916509  0.85836036  0.82921428  1
  H+  H378  1  0.82808367  0.92532309  0.40354925  1
  H+  H379  1  0.33739702  0.91954200  0.43926478  1
  H+  H380  1  0.87459362  0.29200126  0.87813245  1
  H+  H381  1  0.02661752  0.09009085  0.68016550  1
  H+  H382  1  0.87807491  0.85474944  0.67537731  1
  H+  H383  1  0.67739164  0.34258356  0.89160677  1
  O2-  O384  1  0.08693106  0.17967310  0.14634774  1
  O2-  O385  1  0.05878952  0.15140798  0.55531346  1
  O2-  O386  1  0.09088548  0.16441779  0.82557081  1
  O2-  O387  1  0.07703687  0.41944113  0.14722993  1
  O2-  O388  1  0.09312917  0.39036682  0.48236297  1
  O2-  O389  1  0.07351874  0.40544843  0.81297338  1
  O2-  O390  1  0.07248441  0.66591004  0.14577792  1
  O2-  O391  1  0.10745987  0.69611337  0.48926518  1
  O2-  O392  1  0.09953209  0.66479847  0.81632453  1
  O2-  O393  1  0.08308145  0.92044907  0.14410020  1
  O2-  O394  1  0.14099125  0.96772511  0.46592947  1
  O2-  O395  1  0.08030755  0.92280526  0.81272592  1
  O2-  O396  1  0.32682413  0.15571283  0.15115401  1
  O2-  O397  1  0.28739197  0.11894165  0.47630581  1
  O2-  O398  1  0.32110492  0.16474728  0.82283240  1
  O2-  O399  1  0.30288929  0.35067593  0.13559872  1
  O2-  O400  1  0.32116640  0.40039963  0.48151945  1
  O2-  O401  1  0.33438593  0.41273170  0.81658431  1
  O2-  O402  1  0.31464964  0.66481905  0.15000514  1
  O2-  O403  1  0.33098395  0.66549332  0.47760641  1
  O2-  O404  1  0.31368912  0.65312522  0.82044791  1
  O2-  O405  1  0.31922609  0.90314358  0.16179590  1
  O2-  O406  1  0.34266935  0.92361142  0.48436432  1
  O2-  O407  1  0.32877059  0.93016028  0.81733049  1
  O2-  O408  1  0.50661803  0.18373112  0.09629178  1
  O2-  O409  1  0.58804327  0.16463462  0.48851069  1
  O2-  O410  1  0.57976755  0.17310269  0.80257734  1
  O2-  O411  1  0.58110938  0.40854568  0.14527346  1
  O2-  O412  1  0.57951733  0.41431237  0.48509556  1
  O2-  O413  1  0.57860485  0.41643290  0.81372023  1
  O2-  O414  1  0.67050806  0.69476136  0.12753897  1
  O2-  O415  1  0.57860925  0.66467420  0.47958698  1
  O2-  O416  1  0.56030312  0.66025477  0.85755998  1
  O2-  O417  1  0.59800941  0.91580675  0.13994867  1
  O2-  O418  1  0.58273290  0.91339046  0.47250666  1
  O2-  O419  1  0.59448888  0.91757162  0.80377004  1
  O2-  O420  1  0.83668176  0.17480543  0.13921369  1
  O2-  O421  1  0.86635062  0.15403030  0.46381933  1
  O2-  O422  1  0.83544521  0.15236843  0.78943481  1
  O2-  O423  1  0.82933049  0.41087969  0.13698789  1
  O2-  O424  1  0.83753350  0.43482804  0.46996965  1
  O2-  O425  1  0.83397062  0.41456486  0.80227409  1
  O2-  O426  1  0.81947429  0.68854250  0.13003492  1
  O2-  O427  1  0.82945606  0.66812715  0.47768180  1
  O2-  O428  1  0.82783077  0.67234015  0.80929203  1
  O2-  O429  1  0.84557402  0.93085353  0.14035103  1
  O2-  O430  1  0.82266511  0.93397341  0.48552697  1
  O2-  O431  1  0.83033520  0.91144044  0.79060630  1
  O2-  O432  1  0.15845279  0.08407968  0.18296102  1
  O2-  O433  1  0.20141752  0.10397995  0.57910388  1
  O2-  O434  1  0.16903609  0.08276326  0.86425787  1
  O2-  O435  1  0.16234406  0.33960439  0.19236275  1
  O2-  O436  1  0.16497097  0.31622123  0.53770849  1
  O2-  O437  1  0.16281547  0.32465204  0.85223024  1
  O2-  O438  1  0.15070510  0.58138287  0.18881279  1
  O2-  O439  1  0.17819074  0.59655324  0.54052480  1
  O2-  O440  1  0.16169400  0.56931669  0.86627266  1
  O2-  O441  1  0.15409511  0.82824145  0.18889630  1
  O2-  O442  1  0.18671317  0.85635286  0.52846561  1
  O2-  O443  1  0.16024167  0.83658013  0.84705669  1
  O2-  O444  1  0.39698370  0.06238896  0.19424603  1
  O2-  O445  1  0.40186356  0.08538366  0.50769003  1
  O2-  O446  1  0.40615423  0.09471450  0.84837452  1
  O2-  O447  1  0.41887140  0.31934494  0.19358923  1
  O2-  O448  1  0.40404524  0.31967082  0.51988039  1
  O2-  O449  1  0.40594253  0.32263383  0.85756744  1
  O2-  O450  1  0.34319100  0.54690506  0.20415367  1
  O2-  O451  1  0.40725826  0.57070646  0.51185470  1
  O2-  O452  1  0.39210558  0.56872495  0.86570016  1
  O2-  O453  1  0.38764624  0.82396996  0.19589243  1
  O2-  O454  1  0.42041879  0.83067125  0.51509181  1
  O2-  O455  1  0.34365522  0.79608351  0.86704410  1
  O2-  O456  1  0.68160747  0.07931565  0.17951577  1
  O2-  O457  1  0.66468433  0.08163007  0.51243341  1
  O2-  O458  1  0.70558204  0.04496272  0.85559587  1
  O2-  O459  1  0.66953090  0.33359264  0.19719709  1
  O2-  O460  1  0.67339471  0.33706210  0.52296254  1
  O2-  O461  1  0.67293590  0.34175037  0.84617755  1
  O2-  O462  1  0.65834757  0.56295782  0.19399024  1
  O2-  O463  1  0.66755366  0.57885471  0.51828424  1
  O2-  O464  1  0.65425853  0.57674162  0.85478024  1
  O2-  O465  1  0.68564085  0.83477397  0.18933603  1
  O2-  O466  1  0.65955048  0.83016807  0.52601574  1
  O2-  O467  1  0.66365497  0.83462472  0.85033691  1
  O2-  O468  1  0.92300877  0.09189209  0.18281493  1
  O2-  O469  1  0.91728246  0.11111427  0.45768180  1
  O2-  O470  1  0.92028225  0.08082495  0.84449998  1
  O2-  O471  1  0.91171162  0.33353836  0.18944176  1
  O2-  O472  1  0.94506789  0.31590548  0.51525762  1
  O2-  O473  1  0.89158467  0.30515797  0.83557744  1
  O2-  O474  1  0.90056525  0.58363831  0.17605922  1
  O2-  O475  1  0.93137371  0.60377205  0.52271719  1
  O2-  O476  1  0.92578403  0.57225930  0.84189427  1
  O2-  O477  1  0.91985720  0.84233349  0.18716637  1
  O2-  O478  1  0.89401238  0.83512605  0.52859541  1
  O2-  O479  1  0.91408885  0.83753106  0.84342987  1
  O2-  O480  1  0.14924014  0.08000268  0.30270686  1
  O2-  O481  1  0.13994178  0.17763552  0.70599877  1
  O2-  O482  1  0.17388296  0.10903772  0.98868086  1
  O2-  O483  1  0.16163778  0.32660053  0.31054548  1
  O2-  O484  1  0.18042370  0.34041549  0.65789930  1
  O2-  O485  1  0.15975785  0.30266422  1.00375236  1
  O2-  O486  1  0.16293903  0.57487956  0.31115541  1
  O2-  O487  1  0.18217198  0.58558301  0.65778858  1
  O2-  O488  1  0.16497419  0.55295761  0.98757588  1
  O2-  O489  1  0.16284277  0.83006352  0.31167363  1
  O2-  O490  1  0.17481940  0.84442581  0.65368054  1
  O2-  O491  1  0.20386499  0.89950099  0.96467057  1
  O2-  O492  1  0.40255556  0.08045129  0.31933092  1
  O2-  O493  1  0.42826865  0.10854099  0.62673988  1
  O2-  O494  1  0.45886578  0.15914775  0.95669848  1
  O2-  O495  1  0.40588226  0.31790133  0.31727572  1
  O2-  O496  1  0.41047055  0.33531190  0.64425874  1
  O2-  O497  1  0.42397613  0.33396535  0.97988356  1
  O2-  O498  1  0.40948822  0.57756090  0.31829728  1
  O2-  O499  1  0.41908076  0.57975054  0.63473540  1
  O2-  O500  1  0.41302162  0.56891342  0.98860856  1
  O2-  O501  1  0.41262266  0.83116454  0.31651124  1
  O2-  O502  1  0.43519453  0.83609980  0.64065825  1
  O2-  O503  1  0.40648154  0.80911298  0.98381933  1
  O2-  O504  1  0.68129243  0.07045083  0.30899801  1
  O2-  O505  1  0.66974170  0.07608955  0.63660407  1
  O2-  O506  1  0.67028281  0.07446230  0.97006991  1
  O2-  O507  1  0.68456498  0.38810070  0.30867459  1
  O2-  O508  1  0.64016949  0.32129870  0.64823195  1
  O2-  O509  1  0.68593873  0.33981546  0.96995768  1
  O2-  O510  1  0.65716707  0.58643573  0.31974222  1
  O2-  O511  1  0.67997251  0.59296797  0.63024933  1
  O2-  O512  1  0.67425300  0.58187731  0.97729812  1
  O2-  O513  1  0.67337075  0.83103873  0.31214773  1
  O2-  O514  1  0.66418347  0.82858487  0.65546701  1
  O2-  O515  1  0.66549581  0.82722292  0.97447015  1
  O2-  O516  1  0.90792837  0.08550920  0.31188132  1
  O2-  O517  1  0.90304006  0.07269637  0.62044956  1
  O2-  O518  1  0.90350289  0.07046716  0.97549204  1
  O2-  O519  1  0.92551863  0.33780418  0.31356508  1
  O2-  O520  1  0.92744961  0.33401989  0.63333842  1
  O2-  O521  1  0.92689557  0.33134327  0.98773605  1
  O2-  O522  1  0.90309779  0.58415878  0.29827533  1
  O2-  O523  1  0.93379363  0.60084262  0.64822938  1
  O2-  O524  1  0.92401930  0.58071753  0.97413115  1
  O2-  O525  1  0.90915301  0.83503674  0.31335405  1
  O2-  O526  1  0.90388623  0.82794455  0.65029311  1
  O2-  O527  1  0.92032678  0.84108191  0.96763165  1
  O2-  O528  1  0.11094438  0.21388235  0.02555794  1
  O2-  O529  1  0.07075267  0.16622075  0.30352179  1
  O2-  O530  1  0.08397273  0.09850900  0.67165929  1
  O2-  O531  1  0.07665164  0.38624425  0.03062637  1
  O2-  O532  1  0.08610388  0.40723148  0.35877470  1
  O2-  O533  1  0.08587641  0.41470301  0.68967753  1
  O2-  O534  1  0.09013686  0.64398593  0.02386115  1
  O2-  O535  1  0.07155479  0.66280796  0.33838644  1
  O2-  O536  1  0.10118049  0.67514970  0.69171491  1
  O2-  O537  1  0.08351176  0.93444594  0.02200589  1
  O2-  O538  1  0.08030033  0.91676051  0.34748899  1
  O2-  O539  1  0.08053023  0.91721776  0.69152813  1
  O2-  O540  1  0.34014119  0.17476608  0.02848381  1
  O2-  O541  1  0.30631304  0.15242354  0.35350952  1
  O2-  O542  1  0.28478075  0.17520815  0.67827890  1
  O2-  O543  1  0.33384618  0.40661968  0.02320659  1
  O2-  O544  1  0.32818381  0.40795820  0.35760349  1
  O2-  O545  1  0.34298830  0.42566620  0.69184233  1
  O2-  O546  1  0.32864308  0.64737795  0.02884699  1
  O2-  O547  1  0.32914069  0.66452214  0.35475351  1
  O2-  O548  1  0.34736572  0.66524846  0.68278814  1
  O2-  O549  1  0.25785579  0.79839754  0.01422640  1
  O2-  O550  1  0.33110139  0.91455656  0.35850614  1
  O2-  O551  1  0.33562422  0.95466836  0.70037653  1
  O2-  O552  1  0.59698045  0.16832629  -0.00194022  1
  O2-  O553  1  0.55393239  0.19493416  0.37686204  1
  O2-  O554  1  0.58812948  0.15382016  0.68388554  1
  O2-  O555  1  0.59390071  0.41471644  0.02009665  1
  O2-  O556  1  0.55400294  0.35381978  0.37254764  1
  O2-  O557  1  0.57516263  0.41127695  0.69692033  1
  O2-  O558  1  0.59025956  0.66380275  0.01761943  1
  O2-  O559  1  0.58055369  0.66873081  0.35755148  1
  O2-  O560  1  0.59100819  0.66348572  0.67171885  1
  O2-  O561  1  0.58133693  0.90780164  0.01291262  1
  O2-  O562  1  0.58227559  0.90659858  0.34921039  1
  O2-  O563  1  0.59075159  0.91401352  0.68424963  1
  O2-  O564  1  0.83276360  0.16600722  0.01417033  1
  O2-  O565  1  0.82171563  0.18247566  0.36328428  1
  O2-  O566  1  0.83615364  0.16478681  0.66680909  1
  O2-  O567  1  0.84863056  0.41551378  0.01210827  1
  O2-  O568  1  0.84669061  0.43202232  0.34996176  1
  O2-  O569  1  0.86322694  0.44005109  0.67724326  1
  O2-  O570  1  0.84342204  0.67107029  0.01087587  1
  O2-  O571  1  0.83012423  0.66837080  0.35575962  1
  O2-  O572  1  0.83043519  0.65774754  0.68179110  1
  O2-  O573  1  0.83317144  0.91317831  0.01738543  1
  O2-  O574  1  0.83275784  0.92474895  0.35841826  1
  O2-  O575  1  0.82662215  0.90437043  0.72313987  1
