# generated using pymatgen
data_H2O
_symmetry_space_group_name_H-M   'P 1'
_cell_length_a   17.99135701
_cell_length_b   17.99161194
_cell_length_c   22.01079615
_cell_angle_alpha   89.99678343
_cell_angle_beta   90.01357190
_cell_angle_gamma   119.98266385
_symmetry_Int_Tables_number   1
_chemical_formula_structural   H2O
_chemical_formula_sum   'H384 O192'
_cell_volume   6171.29358504
_cell_formula_units_Z   192
loop_
 _symmetry_equiv_pos_site_id
 _symmetry_equiv_pos_as_xyz
  1  'x, y, z'
loop_
 _atom_type_symbol
 _atom_type_oxidation_number
  H+  1.0
  O2-  -2.0
loop_
 _atom_site_type_symbol
 _atom_site_label
 _atom_site_symmetry_multiplicity
 _atom_site_fract_x
 _atom_site_fract_y
 _atom_site_fract_z
 _atom_site_occupancy
  H+  H0  1  0.60978072  -0.00304136  0.65679654  1
  H+  H1  1  0.36341150  0.21916777  0.33524908  1
  H+  H2  1  0.88552391  0.94660898  0.20408450  1
  H+  H3  1  0.11031296  0.21028455  0.49269852  1
  H+  H4  1  0.38187551  0.86446756  0.32342888  1
  H+  H5  1  1.07186652  0.88040393  0.15486703  1
  H+  H6  1  0.40779304  0.13825511  0.00193997  1
  H+  H7  1  0.63640463  0.48888007  0.46469443  1
  H+  H8  1  0.87231273  0.02849513  0.97974971  1
  H+  H9  1  0.36538833  0.14578579  0.15949923  1
  H+  H10  1  0.91953271  0.30910761  0.32140218  1
  H+  H11  1  0.73020457  0.88118431  0.65667399  1
  H+  H12  1  0.07757432  0.12077013  0.00664538  1
  H+  H13  1  0.88242591  0.52701955  0.99815401  1
  H+  H14  1  0.96338492  0.35692829  0.66741865  1
  H+  H15  1  0.61821027  0.66911488  0.69544667  1
  H+  H16  1  0.15104709  0.53487788  0.32988861  1
  H+  H17  1  0.39394894  0.61790513  0.17236320  1
  H+  H18  1  1.02744751  0.62565241  1.01878959  1
  H+  H19  1  0.92033420  0.28156252  0.17212910  1
  H+  H20  1  0.11283729  0.13786682  0.16415959  1
  H+  H21  1  0.61274285  0.15557041  0.68754951  1
  H+  H22  1  0.23751439  0.87573676  0.65498667  1
  H+  H23  1  0.63113694  0.36818109  -0.00392298  1
  H+  H24  1  0.47931521  0.62263054  0.67571140  1
  H+  H25  1  0.50099720  0.83634289  0.82299585  1
  H+  H26  1  0.96917990  0.87530009  0.84090757  1
  H+  H27  1  0.07317401  0.82165382  0.64173042  1
  H+  H28  1  0.36497098  0.99022026  0.01726716  1
  H+  H29  1  0.37963545  0.83808491  0.53497051  1
  H+  H30  1  0.37875789  0.72491704  0.15687128  1
  H+  H31  1  0.65733906  0.03350258  0.49525014  1
  H+  H32  1  0.44976487  0.81176141  0.51881690  1
  H+  H33  1  0.53165622  0.14698299  1.00724896  1
  H+  H34  1  0.76541260  0.62744777  0.47182292  1
  H+  H35  1  1.05898268  0.90891954  1.06273916  1
  H+  H36  1  0.34924640  0.86138324  0.15590607  1
  H+  H37  1  0.63784122  0.35897718  0.31847183  1
  H+  H38  1  0.36475439  0.39268490  0.34087021  1
  H+  H39  1  0.09851791  0.11664333  0.49387881  1
  H+  H40  1  0.22207481  0.11154584  0.84506011  1
  H+  H41  1  0.59890062  0.96843488  0.33927587  1
  H+  H42  1  0.33263432  0.66578947  0.40180231  1
  H+  H43  1  0.70948929  0.08759711  0.32916469  1
  H+  H44  1  0.32625098  0.16439724  0.77290129  1
  H+  H45  1  0.13499447  0.01334423  0.31977376  1
  H+  H46  1  0.47056787  0.35697604  0.84404359  1
  H+  H47  1  0.36843480  0.48351298  0.67471503  1
  H+  H48  1  0.10751822  0.77758941  0.16651906  1
  H+  H49  1  0.61943540  0.64321687  0.15416964  1
  H+  H50  1  0.61562174  0.89695443  0.99595766  1
  H+  H51  1  0.35103614  0.13712661  0.67757986  1
  H+  H52  1  0.46594519  0.54880627  0.96967358  1
  H+  H53  1  0.87003954  0.48520008  0.83875068  1
  H+  H54  1  0.76835173  0.88827900  0.49020055  1
  H+  H55  1  0.48464098  0.86752207  0.17090225  1
  H+  H56  1  0.61630825  0.23039806  0.83854887  1
  H+  H57  1  0.63976709  1.02561352  -0.01203352  1
  H+  H58  1  0.02703308  0.65144344  0.47288870  1
  H+  H59  1  0.47484892  0.36181078  0.33697614  1
  H+  H60  1  0.73241960  0.12305182  0.17175151  1
  H+  H61  1  0.03054288  0.42834006  0.50633275  1
  H+  H62  1  0.37415977  1.01568521  0.51973286  1
  H+  H63  1  0.85341432  0.13954002  0.00237438  1
  H+  H64  1  0.14087460  0.36907922  0.83659600  1
  H+  H65  1  0.26804211  0.63843761  0.67284427  1
  H+  H66  1  0.76477923  0.40402924  0.71589151  1
  H+  H67  1  0.61374418  0.73512760  0.49740151  1
  H+  H68  1  0.48226173  0.13083815  0.16355993  1
  H+  H69  1  0.48100031  0.61314742  0.17627887  1
  H+  H70  1  0.46627958  0.36091882  0.67074561  1
  H+  H71  1  0.85518875  0.63516393  0.00624569  1
  H+  H72  1  0.66932169  0.82493390  0.26634269  1
  H+  H73  1  0.42551147  0.09685906  0.22243106  1
  H+  H74  1  1.04845437  0.41115323  0.14704142  1
  H+  H75  1  0.41080363  0.83222486  0.80064280  1
  H+  H76  1  0.84600204  0.13136149  0.82646345  1
  H+  H77  1  0.88118493  0.74196791  0.18323516  1
  H+  H78  1  1.01845187  0.14419132  0.33734506  1
  H+  H79  1  0.73598254  0.85658281  0.32998047  1
  H+  H80  1  0.72645807  0.58272565  0.86943868  1
  H+  H81  1  0.63660606  0.28075271  0.99656786  1
  H+  H82  1  0.36451068  0.72011338  0.68052000  1
  H+  H83  1  0.97408930  0.10671621  0.50689522  1
  H+  H84  1  0.13540782  0.06407715  0.58176855  1
  H+  H85  1  0.10293820  -0.01918817  0.14749116  1
  H+  H86  1  0.22331179  0.11751662  0.16873378  1
  H+  H87  1  0.89153848  0.77814684  0.66335379  1
  H+  H88  1  0.72993176  0.36640933  0.84804838  1
  H+  H89  1  0.42753310  0.10053070  0.94232325  1
  H+  H90  1  0.47703488  0.13012525  0.66799400  1
  H+  H91  1  0.24469537  0.60546364  0.49686994  1
  H+  H92  1  0.12610685  0.54855829  0.16804382  1
  H+  H93  1  0.36945418  0.62177683  1.00445854  1
  H+  H94  1  0.10895978  0.47908166  0.83220737  1
  H+  H95  1  0.83087637  0.41832600  0.39820212  1
  H+  H96  1  0.44372115  0.92873894  0.70978723  1
  H+  H97  1  0.84924068  0.46401581  0.49856901  1
  H+  H98  1  0.29711763  0.15567002  0.47652518  1
  H+  H99  1  0.58039021  0.92094015  0.42549041  1
  H+  H100  1  0.63717019  0.76082034  0.32987426  1
  H+  H101  1  0.96500147  0.59985300  0.67284630  1
  H+  H102  1  0.37657604  0.25190358  1.00518525  1
  H+  H103  1  -0.09865266  0.09058659  0.89248178  1
  H+  H104  1  0.39274395  0.03272105  0.85425644  1
  H+  H105  1  0.14269639  0.60753713  0.99337439  1
  H+  H106  1  0.75254045  0.89739887  0.81673742  1
  H+  H107  1  0.89736892  0.78724624  0.51103390  1
  H+  H108  1  0.60272861  0.73830728  -0.00341068  1
  H+  H109  1  0.07458896  0.32133512  0.19460541  1
  H+  H110  1  0.10254842  0.94872668  0.49650147  1
  H+  H111  1  0.88433681  0.11305458  0.66101529  1
  H+  H112  1  0.09100257  0.38397949  -0.00644190  1
  H+  H113  1  0.87372120  0.09558128  0.32602303  1
  H+  H114  1  0.16577083  0.58711399  0.90064076  1
  H+  H115  1  0.85254673  0.72381996  1.00680748  1
  H+  H116  1  0.59179237  0.16460209  0.39468235  1
  H+  H117  1  0.21617051  0.11753506  0.66823010  1
  H+  H118  1  0.51958602  0.63722268  0.33867332  1
  H+  H119  1  0.60921190  0.39979691  0.67842511  1
  H+  H120  1  0.76629531  0.38544533  0.15883374  1
  H+  H121  1  0.03042479  0.64002299  0.32970701  1
  H+  H122  1  0.21764371  0.60847593  0.83772136  1
  H+  H123  1  0.89479509  0.64064361  0.50541858  1
  H+  H124  1  0.37896573  0.36050299  0.66462730  1
  H+  H125  1  0.11338439  0.72455447  0.82817235  1
  H+  H126  1  0.35328453  0.22747270  0.67865308  1
  H+  H127  1  0.87358094  0.35396159  0.66535217  1
  H+  H128  1  0.07370644  0.16800322  0.39782748  1
  H+  H129  1  0.76793937  0.62143649  0.15619589  1
  H+  H130  1  0.12756477  0.28145466  0.33433759  1
  H+  H131  1  0.85304761  0.71850062  0.33715616  1
  H+  H132  1  0.27897713  0.64059959  0.34026511  1
  H+  H133  1  0.46217186  0.83298361  0.62480849  1
  H+  H134  1  0.86215561  0.89042851  0.67345039  1
  H+  H135  1  0.63233494  0.86599683  0.50387046  1
  H+  H136  1  0.39040994  0.61841314  0.32744326  1
  H+  H137  1  0.51646163  0.64915176  0.00719721  1
  H+  H138  1  0.89212781  0.62253294  0.84230136  1
  H+  H139  1  0.62556218  0.14063644  0.48673234  1
  H+  H140  1  0.86880206  0.15422655  0.15617465  1
  H+  H141  1  0.95982351  0.11581879  0.99281312  1
  H+  H142  1  0.10232392  0.38839976  0.68418550  1
  H+  H143  1  0.14258194  0.43449643  0.13538409  1
  H+  H144  1  0.72930125  0.86263125  0.18297124  1
  H+  H145  1  0.30274610  0.15645163  -0.00657009  1
  H+  H146  1  0.33059917  0.69320651  0.51207838  1
  H+  H147  1  0.88917093  0.52646276  0.32490316  1
  H+  H148  1  0.37552959  0.39028399  0.47575948  1
  H+  H149  1  0.82727107  0.19089457  0.34694886  1
  H+  H150  1  0.62957608  0.51978205  0.16240206  1
  H+  H151  1  0.12109537  0.72438520  0.48928890  1
  H+  H152  1  0.36176138  0.38552081  0.82419610  1
  H+  H153  1  0.65921704  0.59987163  0.63484046  1
  H+  H154  1  0.22540062  0.09809067  0.31654134  1
  H+  H155  1  0.63969214  0.27611277  0.16756475  1
  H+  H156  1  0.86634453  0.74614593  0.82761779  1
  H+  H157  1  0.23720814  0.83428048  0.66147232  1
  H+  H158  1  0.85692592  0.88736779  0.49232906  1
  H+  H159  1  0.64009472  0.77392185  0.17658059  1
  H+  H160  1  0.38631144  0.60936183  0.66893684  1
  H+  H161  1  0.87583662  0.87013375  0.83881228  1
  H+  H162  1  0.71874167  0.61903423  1.00398864  1
  H+  H163  1  0.54095518  0.92798519  0.49080633  1
  H+  H164  1  0.07775317  0.95703756  -0.00217440  1
  H+  H165  1  0.13984386  0.07360761  0.92652169  1
  H+  H166  1  0.76425668  0.11770381  0.66848688  1
  H+  H167  1  0.67530016  -0.02697093  0.63457454  1
  H+  H168  1  0.60632783  0.48073466  1.01107604  1
  H+  H169  1  0.40060771  0.11818113  0.31727478  1
  H+  H170  1  0.58267270  0.18151304  0.74746004  1
  H+  H171  1  0.23108165  0.37032239  0.83593561  1
  H+  H172  1  0.23582706  0.38381015  0.66453907  1
  H+  H173  1  0.58846088  0.64043482  0.51744869  1
  H+  H174  1  0.36345025  0.71186106  0.83006354  1
  H+  H175  1  0.95877828  0.85510896  0.99457375  1
  H+  H176  1  0.11147615  0.23880223  0.67016344  1
  H+  H177  1  0.97243192  0.56917893  0.53620574  1
  H+  H178  1  0.84839459  0.67961479  0.73435677  1
  H+  H179  1  0.86613675  0.98155956  0.67280484  1
  H+  H180  1  0.10791873  0.22660337  0.16605506  1
  H+  H181  1  0.15174276  0.68503697  0.15636298  1
  H+  H182  1  0.14375682  0.85228018  0.49988668  1
  H+  H183  1  0.36375022  0.47614469  0.82677738  1
  H+  H184  1  0.87699901  0.59727804  0.16798404  1
  H+  H185  1  0.54616684  0.88583797  0.73424414  1
  H+  H186  1  0.13734657  0.86581437  0.83982903  1
  H+  H187  1  0.49155968  0.37824472  0.47989971  1
  H+  H188  1  0.77841049  0.64469702  0.68269114  1
  H+  H189  1  0.51279152  0.62993874  0.83748737  1
  H+  H190  1  0.86776249  0.02691137  0.83540867  1
  H+  H191  1  0.13732950  0.12139229  0.83736635  1
  H+  H192  1  0.62915769  0.60712316  0.31801092  1
  H+  H193  1  0.23149632  0.34660921  0.50176678  1
  H+  H194  1  0.27198542  0.39576974  0.16208602  1
  H+  H195  1  0.62138528  0.22449345  0.33409616  1
  H+  H196  1  0.07470822  0.73468225  0.65036115  1
  H+  H197  1  0.71266324  0.35987213  0.64159693  1
  H+  H198  1  0.22093034  0.36795276  0.32942969  1
  H+  H199  1  0.87991823  0.27005303  0.83951351  1
  H+  H200  1  0.35766290  0.22415138  0.83221279  1
  H+  H201  1  0.87981178  0.60936884  0.66889115  1
  H+  H202  1  0.68457247  0.63747828  0.45660770  1
  H+  H203  1  0.60721974  0.46792369  0.83951591  1
  H+  H204  1  0.35818095  0.47637893  0.00199315  1
  H+  H205  1  0.09452802  0.44052183  0.40705671  1
  H+  H206  1  0.61052955  0.38121394  0.83488986  1
  H+  H207  1  0.77540871  0.66950977  0.80981585  1
  H+  H208  1  0.63653336  0.53655711  0.68908635  1
  H+  H209  1  1.00030680  0.39850398  0.32977077  1
  H+  H210  1  0.47698305  0.85558620  -0.01650849  1
  H+  H211  1  0.88947780  0.05080386  0.16018452  1
  H+  H212  1  0.10751385  0.58174141  0.49599062  1
  H+  H213  1  0.10752861  0.98176986  0.83456155  1
  H+  H214  1  0.15019373  0.62279101  0.32484682  1
  H+  H215  1  0.97858743  0.86779302  0.66470581  1
  H+  H216  1  0.21435249  0.37390340  0.99310884  1
  H+  H217  1  0.33198784  0.41919016  0.73178145  1
  H+  H218  1  0.84979446  0.47577995  0.68230701  1
  H+  H219  1  0.62067972  0.89482101  0.15742988  1
  H+  H220  1  0.60849993  0.38581056  0.15755631  1
  H+  H221  1  0.17396786  0.38283469  0.61113724  1
  H+  H222  1  0.60180372  0.63270908  0.83530429  1
  H+  H223  1  0.76930125  0.39222302  1.00959271  1
  H+  H224  1  0.61936578  0.14264327  0.15834545  1
  H+  H225  1  0.37596276  -0.00783178  0.32118226  1
  H+  H226  1  0.85687867  -0.03267048  0.33491164  1
  H+  H227  1  0.09927485  0.62483451  0.67722989  1
  H+  H228  1  0.63149785  0.10592411  0.32312518  1
  H+  H229  1  0.87074450  0.40025560  0.33864215  1
  H+  H230  1  0.11555793  0.98880771  0.68041356  1
  H+  H231  1  0.37227516  0.13564521  0.49305738  1
  H+  H232  1  0.37893579  0.37128847  0.99594620  1
  H+  H233  1  0.14410997  0.77808750  0.32010598  1
  H+  H234  1  0.37501636  0.71259822  0.00052868  1
  H+  H235  1  0.40509077  0.28340460  0.48463922  1
  H+  H236  1  0.22942193  0.87039740  0.31321678  1
  H+  H237  1  0.49030855  0.11737261  0.31986465  1
  H+  H238  1  0.72904471  0.36371297  0.32240508  1
  H+  H239  1  0.46264014  0.60845593  0.49022822  1
  H+  H240  1  0.62051395  0.14599026  0.00211304  1
  H+  H241  1  0.27623765  0.90321263  0.00993426  1
  H+  H242  1  0.52393937  0.14268818  0.83795079  1
  H+  H243  1  0.63278795  0.11561689  0.84627621  1
  H+  H244  1  0.73241695  0.11911108  0.98943855  1
  H+  H245  1  0.89981254  0.28529464  0.50685965  1
  H+  H246  1  0.11993522  0.39865056  0.35021220  1
  H+  H247  1  0.21462373  0.78264978  0.13268159  1
  H+  H248  1  0.17411567  0.08502310  0.99523580  1
  H+  H249  1  0.88739990  0.61311466  0.31876279  1
  H+  H250  1  0.41564872  0.33232411  0.39398542  1
  H+  H251  1  0.38973844  0.36821624  0.16886106  1
  H+  H252  1  0.63119430  0.62465363  0.00213274  1
  H+  H253  1  0.22698887  0.86648312  0.84296698  1
  H+  H254  1  0.38787041  0.27904842  0.17017746  1
  H+  H255  1  1.02198407  0.14881048  0.67151253  1
  H+  H256  1  0.86495424  0.48922334  0.16457190  1
  H+  H257  1  0.60996163  0.47061110  0.32237163  1
  H+  H258  1  0.85058271  0.88071116  -0.01227061  1
  H+  H259  1  0.12434109  0.51662921  0.66645349  1
  H+  H260  1  0.19610533  0.07402683  0.52909231  1
  H+  H261  1  0.88742282  0.36229881  0.84519692  1
  H+  H262  1  0.61027079  0.22018184  0.48474626  1
  H+  H263  1  0.40278171  1.03561016  0.67346881  1
  H+  H264  1  0.84542719  0.21521382  0.67023164  1
  H+  H265  1  0.07057018  0.41741899  0.74248603  1
  H+  H266  1  0.36598230  0.59459834  0.49569305  1
  H+  H267  1  0.50983470  0.88102128  0.34471799  1
  H+  H268  1  0.85325081  0.37876815  0.49423085  1
  H+  H269  1  0.26842425  0.86435577  0.51612144  1
  H+  H270  1  0.88473936  0.85270025  0.33131747  1
  H+  H271  1  0.12722738  0.23580740  0.82778924  1
  H+  H272  1  -0.01970988  0.62031597  0.84292547  1
  H+  H273  1  0.38732079  0.11901863  0.84576562  1
  H+  H274  1  0.85050461  0.22904341  0.00383922  1
  H+  H275  1  0.71466749  0.86568835  -0.03912979  1
  H+  H276  1  1.02207208  0.87773649  0.34305207  1
  H+  H277  1  0.72740728  0.11960720  0.83962089  1
  H+  H278  1  0.62452784  0.27987387  0.66032454  1
  H+  H279  1  0.37517482  0.59818119  0.84355793  1
  H+  H280  1  0.14580301  0.56526519  0.60329548  1
  H+  H281  1  0.31951339  0.89902924  0.10203905  1
  H+  H282  1  0.36983219  0.48687490  0.48283843  1
  H+  H283  1  0.37329941  0.89547359  0.85407346  1
  H+  H284  1  0.88798578  0.83254949  0.18140983  1
  H+  H285  1  0.12930241  0.86447677  0.99367781  1
  H+  H286  1  0.51726363  0.38499363  0.15806614  1
  H+  H287  1  0.95885092  0.35605876  0.99439872  1
  H+  H288  1  0.32914172  0.94329709  0.38050351  1
  H+  H289  1  0.14631476  0.33363401  0.24032930  1
  H+  H290  1  0.66361722  0.84163505  0.56532632  1
  H+  H291  1  0.88199259  1.02127946  0.50622375  1
  H+  H292  1  0.58799655  0.68268216  0.10078569  1
  H+  H293  1  0.40912343  0.33399003  0.90171815  1
  H+  H294  1  0.33342607  0.17566968  0.10168031  1
  H+  H295  1  0.02273365  0.38583921  0.83421897  1
  H+  H296  1  0.23666065  0.61639855  -0.01323958  1
  H+  H297  1  0.57942261  0.69271200  0.74997481  1
  H+  H298  1  0.91395245  0.33708123  0.56844734  1
  H+  H299  1  0.84553668  0.42452028  0.78087344  1
  H+  H300  1  0.16608494  0.83869001  0.93733090  1
  H+  H301  1  0.91054086  0.56973513  0.22846343  1
  H+  H302  1  0.58055556  0.66350445  0.39811169  1
  H+  H303  1  0.16411180  0.34616046  0.93101721  1
  H+  H304  1  0.89626425  0.32343517  0.93658340  1
  H+  H305  1  0.65878822  0.57981719  0.22101472  1
  H+  H306  1  0.36209848  0.48254148  0.16247772  1
  H+  H307  1  0.83306417  0.17917757  0.09770324  1
  H+  H308  1  0.47272147  0.37582264  0.99544668  1
  H+  H309  1  0.42473197  0.83371504  0.23026003  1
  H+  H310  1  0.18981872  0.30135345  0.56345654  1
  H+  H311  1  0.57597159  0.41556205  0.06710699  1
  H+  H312  1  0.67051933  0.08795583  0.91327972  1
  H+  H313  1  0.59497152  0.17489414  0.09746036  1
  H+  H314  1  0.11131218  0.63315057  0.83096349  1
  H+  H315  1  0.63362619  0.80930204  0.66412066  1
  H+  H316  1  0.82821280  0.91241567  0.39784815  1
  H+  H317  1  0.64235952  0.84632537  0.91085779  1
  H+  H318  1  0.14914057  0.92579573  0.69767478  1
  H+  H319  1  0.11903245  0.82674006  0.22801676  1
  H+  H320  1  0.66878201  0.33408559  0.22779456  1
  H+  H321  1  0.81952668  0.91681980  0.76395706  1
  H+  H322  1  0.79035853  0.64099700  0.38257540  1
  H+  H323  1  0.78875395  0.14648344  0.49720121  1
  H+  H324  1  0.16256107  0.07927148  0.22731921  1
  H+  H325  1  0.90784610  0.69379963  0.44517712  1
  H+  H326  1  0.09457591  0.17733740  0.76840267  1
  H+  H327  1  0.59094113  0.41704027  0.38385943  1
  H+  H328  1  0.91139632  0.84351096  0.56919246  1
  H+  H329  1  0.36234502  0.92919575  0.79082369  1
  H+  H330  1  0.91586819  0.08439394  0.60158810  1
  H+  H331  1  0.91598815  0.58822639  0.94014515  1
  H+  H332  1  0.34635538  0.89395674  0.69354544  1
  H+  H333  1  0.32647694  0.41861117  0.06353476  1
  H+  H334  1  0.62026332  0.39329569  0.48051424  1
  H+  H335  1  0.83148437  0.65681047  0.09923040  1
  H+  H336  1  0.98616284  0.12744636  0.17103168  1
  H+  H337  1  0.42656936  0.81574171  0.92276215  1
  H+  H338  1  0.66776617  0.33739160  0.90622316  1
  H+  H339  1  0.71467807  0.35642015  0.50178104  1
  H+  H340  1  0.09504615  0.90764539  0.43015839  1
  H+  H341  1  0.12697007  0.11975349  0.66906943  1
  H+  H342  1  0.10418972  0.66846684  0.06687772  1
  H+  H343  1  0.36620539  0.48462556  0.33512355  1
  H+  H344  1  0.06984590  0.43041777  0.04685279  1
  H+  H345  1  0.65863022  0.54077019  0.56180759  1
  H+  H346  1  0.32483300  0.65338638  0.77138572  1
  H+  H347  1  0.64620505  0.32836126  0.55605976  1
  H+  H348  1  0.82801413  0.14877530  0.40931888  1
  H+  H349  1  0.11318728  0.88237494  0.33724112  1
  H+  H350  1  0.67607296  0.07304832  0.56043645  1
  H+  H351  1  0.33445137  0.42122580  0.41842853  1
  H+  H352  1  0.65834887  0.57679955  0.91594240  1
  H+  H353  1  0.35016234  0.66256624  0.09863915  1
  H+  H354  1  0.81380993  0.16117731  0.76692848  1
  H+  H355  1  0.64823624  0.95534202  0.83805646  1
  H+  H356  1  0.59214703  0.92699933  0.05900341  1
  H+  H357  1  0.06115432  0.15603892  0.06884030  1
  H+  H358  1  0.07651582  0.92173252  0.77613391  1
  H+  H359  1  0.62680260  0.55668411  0.55954667  1
  H+  H360  1  0.42075255  0.58892385  0.26659202  1
  H+  H361  1  0.40732320  0.56807281  0.90405284  1
  H+  H362  1  0.15864756  0.59427609  0.23186556  1
  H+  H363  1  0.82947792  0.41783584  0.09844433  1
  H+  H364  1  0.33819538  0.88848558  0.46500192  1
  H+  H365  1  0.80256018  0.90762344  0.03593576  1
  H+  H366  1  0.91181676  0.81325481  0.27527306  1
  H+  H367  1  0.58098752  0.41882346  0.74341240  1
  H+  H368  1  0.66839296  0.08303216  0.22923420  1
  H+  H369  1  0.85480718  0.38542970  0.00781739  1
  H+  H370  1  0.34443150  0.15603072  0.38880901  1
  H+  H371  1  0.87555968  0.14272474  0.49664182  1
  H+  H372  1  0.88577870  0.93111447  0.13426319  1
  H+  H373  1  0.09030075  0.66930046  0.38878377  1
  H+  H374  1  0.38146494  0.77448131  0.32896012  1
  H+  H375  1  0.07416050  0.65708102  0.73888758  1
  H+  H376  1  0.40474961  0.08298851  0.57371843  1
  H+  H377  1  0.90778308  0.56682531  0.58465426  1
  H+  H378  1  0.90960885  0.08108809  0.26322574  1
  H+  H379  1  0.95848148  0.34728250  0.22848355  1
  H+  H380  1  0.62303720  0.98467906  0.15557229  1
  H+  H381  1  0.90262191  0.82808529  0.93259074  1
  H+  H382  1  0.71778289  0.60756268  0.31070570  1
  H+  H383  1  0.13849761  0.80267705  0.56138651  1
  O2-  O384  1  0.07884154  0.16649514  0.15040112  1
  O2-  O385  1  0.07321844  0.15048537  0.47742803  1
  O2-  O386  1  0.10259774  0.17553767  0.81257655  1
  O2-  O387  1  0.10208413  0.45407298  0.12608124  1
  O2-  O388  1  0.08905036  0.46326232  0.48781440  1
  O2-  O389  1  0.08084747  0.41855432  0.81550516  1
  O2-  O390  1  0.15438083  0.73119511  0.12971816  1
  O2-  O391  1  0.08628070  0.66384303  0.47059391  1
  O2-  O392  1  0.07983372  0.66339582  0.81473423  1
  O2-  O393  1  0.06208775  0.92320815  0.13125021  1
  O2-  O394  1  0.10223569  0.90091926  0.47480339  1
  O2-  O395  1  0.07453856  0.91965090  0.82108165  1
  O2-  O396  1  0.33003103  0.17324678  0.14645984  1
  O2-  O397  1  0.35749480  0.17589194  0.46898973  1
  O2-  O398  1  0.32885284  0.16273832  0.81827028  1
  O2-  O399  1  0.33014227  0.42262999  0.14551266  1
  O2-  O400  1  0.33856608  0.41881844  0.46632011  1
  O2-  O401  1  0.33344386  0.41656472  0.80761106  1
  O2-  O402  1  0.35314263  0.66399493  0.14402890  1
  O2-  O403  1  0.30650321  0.64106472  0.48639066  1
  O2-  O404  1  0.32444457  0.65140259  0.81660635  1
  O2-  O405  1  0.30302415  0.87237195  0.14337813  1
  O2-  O406  1  0.33331121  0.89435279  0.50861728  1
  O2-  O407  1  0.34632889  0.92538924  0.83460875  1
  O2-  O408  1  0.59327744  0.17655564  0.14280956  1
  O2-  O409  1  0.59084323  0.16265336  0.46735114  1
  O2-  O410  1  0.58486359  0.16989995  0.82213460  1
  O2-  O411  1  0.57906224  0.41632327  0.14172307  1
  O2-  O412  1  0.59531005  0.42653954  0.46061292  1
  O2-  O413  1  0.57837768  0.40990526  0.82024849  1
  O2-  O414  1  0.59211662  0.67916686  0.14585642  1
  O2-  O415  1  0.58633406  0.67291362  0.48254952  1
  O2-  O416  1  0.57419978  0.66579073  0.82450884  1
  O2-  O417  1  0.59293102  0.92472355  0.13887386  1
  O2-  O418  1  0.59074262  0.92791804  0.47354357  1
  O2-  O419  1  0.57005625  0.85000012  0.79400185  1
  O2-  O420  1  0.83749065  0.18416230  0.14312920  1
  O2-  O421  1  0.84848846  0.17583730  0.47992716  1
  O2-  O422  1  0.81407563  0.16360028  0.81222090  1
  O2-  O423  1  0.82865456  0.41753679  0.14476291  1
  O2-  O424  1  0.82070378  0.40685398  0.47881717  1
  O2-  O425  1  0.83961908  0.42330973  0.82543329  1
  O2-  O426  1  0.82990896  0.64834514  0.14439065  1
  O2-  O427  1  0.87755132  0.67858956  0.48397376  1
  O2-  O428  1  0.83567515  0.68449296  0.81155892  1
  O2-  O429  1  0.84792427  0.91978336  0.16910108  1
  O2-  O430  1  0.82777364  0.91779936  0.47359559  1
  O2-  O431  1  0.81323322  0.91479201  0.80932150  1
  O2-  O432  1  0.16176793  0.08732917  0.18170501  1
  O2-  O433  1  0.13621980  0.05632639  0.53640062  1
  O2-  O434  1  0.16019328  0.08353173  0.85640107  1
  O2-  O435  1  0.13219917  0.32678834  0.19595747  1
  O2-  O436  1  0.17599033  0.31130842  0.52238201  1
  O2-  O437  1  0.17077238  0.33861392  0.85146420  1
  O2-  O438  1  0.12723835  0.59309668  0.19499089  1
  O2-  O439  1  0.12980535  0.54788509  0.51792385  1
  O2-  O440  1  0.15751804  0.58161050  0.85315845  1
  O2-  O441  1  0.08327010  0.80762021  0.19127910  1
  O2-  O442  1  0.16667487  0.81552760  0.52007484  1
  O2-  O443  1  0.16468268  0.83162296  0.85114123  1
  O2-  O444  1  0.42236685  0.10467859  0.17818079  1
  O2-  O445  1  0.39393794  0.07615616  0.52931252  1
  O2-  O446  1  0.42310123  0.09554974  0.86324314  1
  O2-  O447  1  0.42262166  0.34068280  0.18244220  1
  O2-  O448  1  0.42711353  0.34637530  0.48032969  1
  O2-  O449  1  0.40909062  0.32788051  0.85647113  1
  O2-  O450  1  0.42145735  0.58422185  0.19210527  1
  O2-  O451  1  0.40263311  0.56724838  0.50106017  1
  O2-  O452  1  0.40719873  0.56902281  0.85698413  1
  O2-  O453  1  0.42512774  0.83006493  0.18533039  1
  O2-  O454  1  0.40425789  0.80094410  0.54765002  1
  O2-  O455  1  0.43381690  0.82320197  0.83823258  1
  O2-  O456  1  0.67084772  0.08725914  0.18387122  1
  O2-  O457  1  0.68464244  0.08987387  0.51700371  1
  O2-  O458  1  0.66646110  0.08734862  0.86029736  1
  O2-  O459  1  0.66866438  0.33755436  0.18235313  1
  O2-  O460  1  0.65204518  0.32982647  0.51117779  1
  O2-  O461  1  0.66835578  0.33391360  0.86029225  1
  O2-  O462  1  0.66268014  0.58174882  0.17567913  1
  O2-  O463  1  0.71036935  0.60160533  0.44884329  1
  O2-  O464  1  0.66704984  0.57011027  0.87116128  1
  O2-  O465  1  0.66905458  0.83310469  0.19657143  1
  O2-  O466  1  0.66034810  0.83406867  0.51968519  1
  O2-  O467  1  0.64546694  0.89956161  0.83423234  1
  O2-  O468  1  0.92256920  0.10294459  0.18416263  1
  O2-  O469  1  0.91396969  0.08073961  0.52335950  1
  O2-  O470  1  0.89321262  0.08777412  0.84757614  1
  O2-  O471  1  0.97387184  0.32843309  0.19080555  1
  O2-  O472  1  0.92025254  0.34413397  0.52338060  1
  O2-  O473  1  0.91434660  0.32813755  0.85793246  1
  O2-  O474  1  0.90422775  0.56317969  0.18321651  1
  O2-  O475  1  0.91637428  0.56526582  0.53887699  1
  O2-  O476  1  0.91890016  0.59021584  0.85797386  1
  O2-  O477  1  0.90228038  0.79676580  0.20613422  1
  O2-  O478  1  0.90726185  0.84354836  0.52432545  1
  O2-  O479  1  0.90725273  0.84101253  0.85361954  1
  O2-  O480  1  0.16629526  0.07109562  0.30081978  1
  O2-  O481  1  0.15374763  0.08444376  0.65611825  1
  O2-  O482  1  0.12196825  0.06237785  0.97129697  1
  O2-  O483  1  0.15958709  0.34333421  0.31884611  1
  O2-  O484  1  0.17289560  0.35536391  0.64960111  1
  O2-  O485  1  0.15651474  0.35006316  0.97528493  1
  O2-  O486  1  0.18426983  0.59459663  0.31399770  1
  O2-  O487  1  0.15423044  0.57535238  0.64742984  1
  O2-  O488  1  0.18108222  0.59682334  0.96611670  1
  O2-  O489  1  0.16652276  0.83849501  0.30697069  1
  O2-  O490  1  0.07163416  0.77381527  0.61962396  1
  O2-  O491  1  0.17278196  0.84916656  0.98133035  1
  O2-  O492  1  0.43091590  0.08773723  0.30211803  1
  O2-  O493  1  0.41735240  0.09099017  0.65428017  1
  O2-  O494  1  0.43383572  0.10389918  0.98740311  1
  O2-  O495  1  0.41262793  0.33327934  0.34913390  1
  O2-  O496  1  0.40727917  0.32628824  0.65508126  1
  O2-  O497  1  0.41242251  0.34306468  0.97969082  1
  O2-  O498  1  0.42089263  0.58773572  0.31290304  1
  O2-  O499  1  0.42216084  0.58433221  0.65713181  1
  O2-  O500  1  0.42321297  0.56655800  0.97409267  1
  O2-  O501  1  0.41304734  0.83390087  0.31203731  1
  O2-  O502  1  0.47088540  0.81844418  0.66671415  1
  O2-  O503  1  0.42228668  0.80995670  0.96707029  1
  O2-  O504  1  0.65497251  0.06879946  0.30725282  1
  O2-  O505  1  0.66597811  0.02286524  0.63602260  1
  O2-  O506  1  0.67105719  0.08706698  0.97060167  1
  O2-  O507  1  0.66983875  0.32922861  0.30569601  1
  O2-  O508  1  0.65037312  0.33562901  0.63783980  1
  O2-  O509  1  0.66485921  0.34130468  0.98087964  1
  O2-  O510  1  0.65588495  0.57649128  0.29849684  1
  O2-  O511  1  0.67025311  0.59972710  0.67832435  1
  O2-  O512  1  0.65725601  0.58929217  0.98970610  1
  O2-  O513  1  0.67282713  0.82219783  0.31319505  1
  O2-  O514  1  0.67131436  0.86205444  0.64048166  1
  O2-  O515  1  0.65163256  0.83865845  0.95421080  1
  O2-  O516  1  0.90503867  0.06858999  0.30763002  1
  O2-  O517  1  0.91841903  0.08632705  0.64712137  1
  O2-  O518  1  0.90148354  0.09085953  0.97156162  1
  O2-  O519  1  0.94172937  0.36854657  0.30953266  1
  O2-  O520  1  0.90441476  0.32613553  0.64876739  1
  O2-  O521  1  0.89325988  0.32402757  0.98180393  1
  O2-  O522  1  0.92044753  0.58491320  0.30611932  1
  O2-  O523  1  0.90370059  0.57114280  0.65693146  1
  O2-  O524  1  0.91001632  0.58816932  0.98490836  1
  O2-  O525  1  0.91330499  0.81928235  0.32152601  1
  O2-  O526  1  0.91905415  0.83945105  0.65008670  1
  O2-  O527  1  0.89692987  0.82648729  0.97769533  1
  O2-  O528  1  0.04771105  0.14871660  0.02496244  1
  O2-  O529  1  0.07466564  0.18496494  0.35489631  1
  O2-  O530  1  0.08329702  0.17913119  0.68533387  1
  O2-  O531  1  0.05016900  0.40414384  0.00643296  1
  O2-  O532  1  0.09337096  0.43466661  0.36239340  1
  O2-  O533  1  0.06745212  0.41482470  0.69618143  1
  O2-  O534  1  0.07511032  0.62138258  0.03644696  1
  O2-  O535  1  0.09134144  0.67044691  0.34380937  1
  O2-  O536  1  0.06502643  0.65028315  0.69343760  1
  O2-  O537  1  0.05285824  0.89906609  0.01613159  1
  O2-  O538  1  0.08322876  0.91137457  0.35592188  1
  O2-  O539  1  0.09581419  0.92739715  0.69437897  1
  O2-  O540  1  0.35188674  0.18945664  0.01964627  1
  O2-  O541  1  0.33986487  0.15716350  0.34391289  1
  O2-  O542  1  0.31930103  0.16524543  0.69293966  1
  O2-  O543  1  0.32537512  0.41420749  0.01856745  1
  O2-  O544  1  0.33357941  0.42431915  0.35204722  1
  O2-  O545  1  0.33046394  0.42061950  0.68605169  1
  O2-  O546  1  0.34319743  0.65462556  0.02029661  1
  O2-  O547  1  0.33989987  0.67055748  0.35728030  1
  O2-  O548  1  0.32487065  0.66015948  0.69238777  1
  O2-  O549  1  0.33461653  0.92923844  0.02824750  1
  O2-  O550  1  0.33847102  0.93157324  0.33894888  1
  O2-  O551  1  0.39491267  0.94055055  0.71505487  1
  O2-  O552  1  0.59451500  0.17815754  0.01990628  1
  O2-  O553  1  0.59092519  0.16367211  0.34833759  1
  O2-  O554  1  0.58285986  0.18517671  0.70135759  1
  O2-  O555  1  0.57617108  0.41837838  0.02112674  1
  O2-  O556  1  0.58353109  0.41082954  0.33865578  1
  O2-  O557  1  0.58265666  0.42995966  0.69856309  1
  O2-  O558  1  0.57821979  0.68467408  0.02092912  1
  O2-  O559  1  0.58169366  0.66586338  0.35325805  1
  O2-  O560  1  0.58501455  0.69778415  0.70433808  1
  O2-  O561  1  0.59187751  0.93187170  0.01375301  1
  O2-  O562  1  0.57025186  0.91191794  0.36061657  1
  O2-  O563  1  0.51936850  0.90205914  0.69813210  1
  O2-  O564  1  0.82013921  0.16662567  0.01916347  1
  O2-  O565  1  0.81526078  0.13616213  0.36401061  1
  O2-  O566  1  0.82089193  0.15612326  0.68723682  1
  O2-  O567  1  0.82956104  0.42022430  0.02496818  1
  O2-  O568  1  0.83371032  0.42333588  0.35303702  1
  O2-  O569  1  0.81789288  0.41354417  0.69690900  1
  O2-  O570  1  0.82316100  0.66370259  0.02284529  1
  O2-  O571  1  0.81882108  0.65364251  0.34260743  1
  O2-  O572  1  0.84215391  0.67279960  0.68921636  1
  O2-  O573  1  0.81735553  0.91292740  -0.00696741  1
  O2-  O574  1  0.82591718  0.90721237  0.35190986  1
  O2-  O575  1  0.83132833  0.92066723  0.68695305  1
