# generated using pymatgen
data_H2O
_symmetry_space_group_name_H-M   'P 1'
_cell_length_a   17.99880324
_cell_length_b   17.99484620
_cell_length_c   22.00175593
_cell_angle_alpha   90.01130071
_cell_angle_beta   89.99610558
_cell_angle_gamma   119.99973765
_symmetry_Int_Tables_number   1
_chemical_formula_structural   H2O
_chemical_formula_sum   'H384 O192'
_cell_volume   6171.36001276
_cell_formula_units_Z   192
loop_
 _symmetry_equiv_pos_site_id
 _symmetry_equiv_pos_as_xyz
  1  'x, y, z'
loop_
 _atom_type_symbol
 _atom_type_oxidation_number
  H+  1.0
  O2-  -2.0
loop_
 _atom_site_type_symbol
 _atom_site_label
 _atom_site_symmetry_multiplicity
 _atom_site_fract_x
 _atom_site_fract_y
 _atom_site_fract_z
 _atom_site_occupancy
  H+  H0  1  0.38931731  0.26530156  0.32284266  1
  H+  H1  1  0.58851111  0.68215878  0.39973273  1
  H+  H2  1  0.90394943  0.86816708  0.65738291  1
  H+  H3  1  0.23598293  0.12269761  0.84184378  1
  H+  H4  1  0.36765365  0.90018438  0.00132573  1
  H+  H5  1  0.46272339  0.60329746  0.16077312  1
  H+  H6  1  0.11011243  0.38731504  0.16756037  1
  H+  H7  1  0.78679397  0.38946170  0.34645522  1
  H+  H8  1  0.39794467  0.87145352  0.51848424  1
  H+  H9  1  0.37896836  0.51987339  0.66184546  1
  H+  H10  1  0.77719683  0.14263093  0.82286263  1
  H+  H11  1  0.77269378  0.63328626  1.00277873  1
  H+  H12  1  0.56442000  0.41338767  0.04560093  1
  H+  H13  1  0.63802056  0.35207667  0.17854176  1
  H+  H14  1  0.22727470  0.85903222  0.99487409  1
  H+  H15  1  0.15927775  0.88840063  0.84204853  1
  H+  H16  1  0.97351924  0.10717148  0.65933143  1
  H+  H17  1  0.11178411  0.63171969  0.49529828  1
  H+  H18  1  0.34498356  0.37091715  0.34431331  1
  H+  H19  1  0.66322122  0.59032095  0.79516040  1
  H+  H20  1  0.36043816  0.40727048  0.83612490  1
  H+  H21  1  0.40555169  0.61784462  0.32710316  1
  H+  H22  1  0.11262728  0.13478415  0.66554053  1
  H+  H23  1  0.63797999  0.01914622  0.99960921  1
  H+  H24  1  0.64142527  0.02442587  0.33004085  1
  H+  H25  1  1.02005803  0.38677653  0.17114455  1
  H+  H26  1  1.03463079  0.88709822  0.67398688  1
  H+  H27  1  0.10931679  0.37953815  0.67438821  1
  H+  H28  1  0.13743114  0.76861797  0.82598281  1
  H+  H29  1  0.89467570  0.77598513  0.50477807  1
  H+  H30  1  0.38607115  0.52627788  0.50298741  1
  H+  H31  1  0.85878511  0.21970663  0.67086472  1
  H+  H32  1  0.28939384  0.65966556  0.83050375  1
  H+  H33  1  0.15084112  0.07726825  0.92617961  1
  H+  H34  1  0.83764241  0.67537141  0.10508342  1
  H+  H35  1  0.10506093  0.38186085  0.33553223  1
  H+  H36  1  0.94780033  0.34445203  0.83296218  1
  H+  H37  1  0.88281250  0.10402821  0.66106061  1
  H+  H38  1  0.59736121  0.62089491  0.14758033  1
  H+  H39  1  0.20961079  0.10730830  0.98223123  1
  H+  H40  1  0.98093760  0.58826387  0.84362679  1
  H+  H41  1  0.62642940  0.48135158  0.66080129  1
  H+  H42  1  0.46774889  0.11117069  0.99589772  1
  H+  H43  1  0.61646066  0.22254982  0.49859717  1
  H+  H44  1  0.12423272  0.50608500  0.17365447  1
  H+  H45  1  0.72910359  0.12096294  0.50678674  1
  H+  H46  1  0.05911646  0.43501045  -0.01157790  1
  H+  H47  1  0.03543805  0.15385537  0.49400930  1
  H+  H48  1  0.60207058  0.37229034  0.83667080  1
  H+  H49  1  0.09984271  0.13469760  -0.00120903  1
  H+  H50  1  0.35604639  0.21696878  0.67263409  1
  H+  H51  1  0.85270326  0.46947646  0.81801854  1
  H+  H52  1  0.03008135  0.14168860  0.34458329  1
  H+  H53  1  0.65971066  0.07672562  0.23667926  1
  H+  H54  1  0.94878547  0.32838953  0.97943180  1
  H+  H55  1  0.37135353  0.35248923  0.66919666  1
  H+  H56  1  0.37674216  1.02451515  -0.00656378  1
  H+  H57  1  0.40894944  0.58292375  0.56278500  1
  H+  H58  1  0.86499175  0.22607611  0.33197523  1
  H+  H59  1  0.27413262  0.88460780  0.50405752  1
  H+  H60  1  0.37827582  0.53015196  0.99171862  1
  H+  H61  1  0.21422599  0.10185197  0.14694581  1
  H+  H62  1  1.03007569  0.63410034  0.16806513  1
  H+  H63  1  0.84802935  0.87649212  0.17269116  1
  H+  H64  1  0.86746317  0.61813951  0.33405743  1
  H+  H65  1  0.11805550  0.37684168  0.51843877  1
  H+  H66  1  0.11912503  -0.01899492  0.35690783  1
  H+  H67  1  0.34391217  0.63754372  0.01046327  1
  H+  H68  1  0.36255264  0.99078927  0.33501585  1
  H+  H69  1  0.78007060  0.88956863  0.49291988  1
  H+  H70  1  0.40860863  0.76801949  0.84836498  1
  H+  H71  1  0.63746683  0.11387894  0.50949686  1
  H+  H72  1  0.38632411  0.28126864  -0.05686884  1
  H+  H73  1  0.91290571  0.32735051  0.23765762  1
  H+  H74  1  0.13665683  0.85786305  0.50569441  1
  H+  H75  1  0.36401483  0.21893017  0.16512963  1
  H+  H76  1  0.72002739  0.36023629  0.83533503  1
  H+  H77  1  0.48770603  0.87411875  0.51987200  1
  H+  H78  1  0.86981359  0.97911134  0.66043961  1
  H+  H79  1  0.62131071  0.83505138  0.17736619  1
  H+  H80  1  0.64651881  0.65615690  0.65596185  1
  H+  H81  1  0.64707134  0.35729773  0.33818623  1
  H+  H82  1  0.52091556  0.64238584  0.49602741  1
  H+  H83  1  0.86213114  0.63486741  1.00657587  1
  H+  H84  1  0.37443588  0.11210199  0.66380066  1
  H+  H85  1  0.89067747  0.61336857  0.49957438  1
  H+  H86  1  0.86580254  0.48453894  0.17058373  1
  H+  H87  1  0.74780592  0.89280852  0.80844548  1
  H+  H88  1  0.89083323  0.12066388  0.17435798  1
  H+  H89  1  0.34802935  0.63149516  0.48086120  1
  H+  H90  1  0.74343504  0.88475973  0.33475614  1
  H+  H91  1  0.35910281  0.63646546  0.67326788  1
  H+  H92  1  0.04458619  0.70075752  0.80112891  1
  H+  H93  1  0.22327811  0.60460954  0.17131947  1
  H+  H94  1  0.64451418  0.12198489  0.83695376  1
  H+  H95  1  0.15539068  0.57450663  0.84483721  1
  H+  H96  1  0.87502321  0.10629444  -0.01049866  1
  H+  H97  1  0.16841641  0.33319632  -0.06961652  1
  H+  H98  1  0.09912639  0.12505717  0.14134922  1
  H+  H99  1  0.53548381  0.13141937  0.68151438  1
  H+  H100  1  0.08937224  0.16924797  0.72549873  1
  H+  H101  1  0.10796194  0.96689609  0.00271205  1
  H+  H102  1  0.88341078  0.91263354  0.33657522  1
  H+  H103  1  0.70878273  0.83606849  0.17222742  1
  H+  H104  1  0.02527595  0.63570120  0.49443824  1
  H+  H105  1  0.72425519  0.60893747  0.34329228  1
  H+  H106  1  0.15358328  0.56573456  0.56765941  1
  H+  H107  1  0.13412653  0.01382626  0.50671906  1
  H+  H108  1  0.62326057  0.98339767  0.49922392  1
  H+  H109  1  0.13319656  0.26821555  0.65834970  1
  H+  H110  1  0.57376903  0.66120695  1.05681011  1
  H+  H111  1  0.02557130  0.88195928  0.49566520  1
  H+  H112  1  0.59017540  0.41522571  0.28454139  1
  H+  H113  1  0.86298575  0.22348897  0.16665533  1
  H+  H114  1  0.62204647  0.77009306  0.83864784  1
  H+  H115  1  0.89005176  0.52337447  0.50296531  1
  H+  H116  1  0.10840192  0.72555195  0.34241251  1
  H+  H117  1  0.28929647  0.90572792  0.82301048  1
  H+  H118  1  0.61723464  0.87234600  0.66878805  1
  H+  H119  1  0.71376187  0.34739549  0.66334746  1
  H+  H120  1  0.14852962  0.51050537  1.00586701  1
  H+  H121  1  0.92196249  0.75776308  0.84914883  1
  H+  H122  1  0.86984083  0.60279975  0.65460962  1
  H+  H123  1  0.14738443  1.03334823  0.83623886  1
  H+  H124  1  0.53727015  0.89211568  0.34562190  1
  H+  H125  1  0.38303452  0.09633115  0.18324166  1
  H+  H126  1  0.51677710  0.38745842  0.98079097  1
  H+  H127  1  0.36533916  0.96186630  0.16157812  1
  H+  H128  1  0.58246773  0.90831177  0.10663359  1
  H+  H129  1  0.14135340  0.60741756  0.65898199  1
  H+  H130  1  0.73426858  0.62062070  0.17017255  1
  H+  H131  1  0.75646027  0.12406586  0.01263019  1
  H+  H132  1  0.80222435  0.88681752  0.63285858  1
  H+  H133  1  0.86602288  0.12324425  0.82607794  1
  H+  H134  1  0.14670178  0.85373785  0.16987888  1
  H+  H135  1  0.52485778  0.13506044  0.50217119  1
  H+  H136  1  -0.01625588  0.11727524  0.16776188  1
  H+  H137  1  0.71956165  0.10409478  0.17814494  1
  H+  H138  1  0.48056154  0.37452576  0.86182789  1
  H+  H139  1  0.78410857  0.62487988  0.82721020  1
  H+  H140  1  0.22995566  0.37567341  0.83938217  1
  H+  H141  1  0.13288166  0.61135454  0.33120723  1
  H+  H142  1  0.13140222  0.35413265  0.83673697  1
  H+  H143  1  0.36001388  0.14250495  -0.02055406  1
  H+  H144  1  0.37950778  0.77639726  0.66657887  1
  H+  H145  1  0.63012427  0.10533813  0.99841156  1
  H+  H146  1  0.85946597  1.02085713  0.82663165  1
  H+  H147  1  0.57922688  0.32917694  0.68869702  1
  H+  H148  1  0.66612267  0.08499907  0.60700768  1
  H+  H149  1  0.45772584  0.92899189  0.29824491  1
  H+  H150  1  0.66664743  0.43926102  0.10557539  1
  H+  H151  1  0.88225381  0.86569805  0.81978933  1
  H+  H152  1  0.08352414  0.89676213  0.09055605  1
  H+  H153  1  0.62868904  0.35787317  0.98741049  1
  H+  H154  1  0.86953849  0.38272685  0.00616834  1
  H+  H155  1  0.13381804  0.72994877  0.66421471  1
  H+  H156  1  0.90130411  0.77809567  0.66153079  1
  H+  H157  1  0.60518364  0.63914347  0.99520346  1
  H+  H158  1  0.26526042  0.40612820  0.49264025  1
  H+  H159  1  0.87671151  0.88064799  0.85047430  1
  H+  H160  1  0.86785765  0.23706442  0.48178763  1
  H+  H161  1  0.86333863  0.73520628  0.16590364  1
  H+  H162  1  0.84524902  0.96309414  0.16998318  1
  H+  H163  1  0.62344390  -0.01173410  0.82811465  1
  H+  H164  1  0.08475411  0.66704141  0.40289673  1
  H+  H165  1  0.60335268  0.21835873  0.00912502  1
  H+  H166  1  0.38667484  0.10907471  0.51436000  1
  H+  H167  1  0.25401349  0.86553629  0.34837119  1
  H+  H168  1  0.95902378  0.87972977  0.18613414  1
  H+  H169  1  0.12857152  0.60892084  0.17202225  1
  H+  H170  1  0.66750929  0.58715481  0.42979885  1
  H+  H171  1  0.61747258  0.22226866  0.82170296  1
  H+  H172  1  0.60743858  0.96130651  0.16815287  1
  H+  H173  1  0.38913326  0.12771449  0.34464308  1
  H+  H174  1  0.46388384  0.36084759  0.31845071  1
  H+  H175  1  0.14343880  0.11855818  0.36410318  1
  H+  H176  1  0.89440208  0.52345685  0.99729638  1
  H+  H177  1  0.49239038  0.63065089  0.82787517  1
  H+  H178  1  0.09756830  0.50284534  0.51366906  1
  H+  H179  1  0.63524596  0.11639385  0.66893046  1
  H+  H180  1  0.46889575  0.35735604  0.17333059  1
  H+  H181  1  0.60369847  0.98309579  0.67482202  1
  H+  H182  1  0.62291623  0.88925656  1.00860050  1
  H+  H183  1  0.04767195  0.88472632  0.83147040  1
  H+  H184  1  0.51007771  0.38732964  0.52652513  1
  H+  H185  1  0.36391955  0.39210721  -0.01050314  1
  H+  H186  1  0.12270838  0.71940559  0.16821100  1
  H+  H187  1  0.78524308  0.37981856  0.50218420  1
  H+  H188  1  0.46576318  0.61050551  0.66059486  1
  H+  H189  1  0.23409159  0.87041725  0.65767386  1
  H+  H190  1  0.16875708  0.07515671  0.60015113  1
  H+  H191  1  0.26134959  0.37903055  0.34305177  1
  H+  H192  1  0.50836937  0.10415548  0.34686123  1
  H+  H193  1  0.22380155  0.09946303  0.50468119  1
  H+  H194  1  0.37320794  0.14812258  0.82884646  1
  H+  H195  1  0.22678856  0.60301727  0.65955058  1
  H+  H196  1  0.87994179  0.39353132  0.49833290  1
  H+  H197  1  0.89352871  0.62084064  0.17932149  1
  H+  H198  1  0.35327855  0.37718471  0.15330457  1
  H+  H199  1  0.66468203  0.36241335  0.51008494  1
  H+  H200  1  0.84916530  0.46961068  0.66590353  1
  H+  H201  1  0.22972052  0.11905040  0.35122689  1
  H+  H202  1  0.13543412  0.85298889  -0.00724295  1
  H+  H203  1  0.02195374  0.87526434  0.00432950  1
  H+  H204  1  0.60771390  0.21413477  0.16605030  1
  H+  H205  1  0.13827102  0.76897952  0.50757827  1
  H+  H206  1  0.11259217  0.13406608  0.49246493  1
  H+  H207  1  0.63100481  0.86335336  0.83937818  1
  H+  H208  1  0.63552417  0.77979589  0.99176468  1
  H+  H209  1  0.58555164  0.63316656  0.83032284  1
  H+  H210  1  0.89554988  0.51520952  0.33202519  1
  H+  H211  1  0.49116031  0.12091983  0.83536851  1
  H+  H212  1  0.37580120  0.01251157  0.66559117  1
  H+  H213  1  0.86803660  0.88954743  0.49278523  1
  H+  H214  1  0.88895846  0.35807670  0.32811861  1
  H+  H215  1  0.36760023  0.63717072  0.82519638  1
  H+  H216  1  0.63184566  0.49955019  0.69236242  1
  H+  H217  1  0.27042619  0.61181693  0.35620219  1
  H+  H218  1  0.12760966  0.01264233  0.14547209  1
  H+  H219  1  0.54175956  0.65644865  0.33409947  1
  H+  H220  1  0.84735397  0.41641769  0.40531575  1
  H+  H221  1  0.36517884  0.87249006  0.15919601  1
  H+  H222  1  0.72733945  0.35612476  0.18116956  1
  H+  H223  1  0.26938112  0.38395615  0.68103476  1
  H+  H224  1  0.89563990  0.07673582  0.89123838  1
  H+  H225  1  0.59919179  0.71025410  0.15234460  1
  H+  H226  1  0.88537389  0.77162823  0.99880190  1
  H+  H227  1  0.71682883  0.35616348  0.99411900  1
  H+  H228  1  0.98228261  0.60887684  0.33217791  1
  H+  H229  1  0.50970680  0.34538276  0.52666103  1
  H+  H230  1  0.63267402  0.24993108  0.66593341  1
  H+  H231  1  0.61143232  0.73129270  0.50026683  1
  H+  H232  1  -0.03255269  0.11586257  -0.01731304  1
  H+  H233  1  0.59345675  0.73282613  0.67919483  1
  H+  H234  1  0.97380131  0.35854902  0.66267251  1
  H+  H235  1  0.21877571  0.35600431  0.16615728  1
  H+  H236  1  0.97886350  0.35853276  0.32454741  1
  H+  H237  1  0.89090392  0.12130843  0.31759451  1
  H+  H238  1  0.49203069  0.33285297  0.68633938  1
  H+  H239  1  0.34688190  0.62211176  0.16186012  1
  H+  H240  1  0.47283962  0.09872693  0.17962778  1
  H+  H241  1  0.37901976  0.75777831  0.17757534  1
  H+  H242  1  0.88431409  -0.01636400  1.01299034  1
  H+  H243  1  0.14796060  0.37326954  0.98810304  1
  H+  H244  1  0.48048702  0.95307311  -0.04769414  1
  H+  H245  1  0.63415729  0.48404263  0.15013329  1
  H+  H246  1  0.46334894  0.62042893  0.99109301  1
  H+  H247  1  0.34572088  0.86885436  0.34820420  1
  H+  H248  1  0.62919946  0.89607408  0.34723015  1
  H+  H249  1  0.62742186  0.50145947  0.82898289  1
  H+  H250  1  0.70241401  0.86901230  0.68012033  1
  H+  H251  1  0.78228770  0.64648171  0.47875034  1
  H+  H252  1  0.26402444  0.25349543  0.54298078  1
  H+  H253  1  0.49774055  0.85888735  0.84894018  1
  H+  H254  1  0.65637947  0.48713189  0.47786804  1
  H+  H255  1  0.86070918  0.69684245  0.31029097  1
  H+  H256  1  0.12905946  0.26846213  0.16639873  1
  H+  H257  1  0.47140184  0.84548680  0.17456878  1
  H+  H258  1  0.26855348  0.12540968  0.67185513  1
  H+  H259  1  0.02762578  0.89819672  0.33809535  1
  H+  H260  1  0.37471068  0.51516997  0.16682730  1
  H+  H261  1  0.13290088  0.27194725  0.32785671  1
  H+  H262  1  0.13102191  0.86329188  0.32724107  1
  H+  H263  1  0.10143632  0.46869885  0.33872608  1
  H+  H264  1  0.07694409  0.43880612  0.82279817  1
  H+  H265  1  0.34184855  0.21248759  0.49831793  1
  H+  H266  1  0.12777020  0.23379011  0.81618902  1
  H+  H267  1  0.65666718  0.79379424  0.33300963  1
  H+  H268  1  0.37695875  -0.00547154  0.81809413  1
  H+  H269  1  0.88397894  0.35966860  0.17908831  1
  H+  H270  1  0.78126213  0.66362035  0.67109776  1
  H+  H271  1  0.83244803  0.16191104  0.75917339  1
  H+  H272  1  0.60624070  0.12483332  0.16315967  1
  H+  H273  1  0.84421907  0.21198234  0.01351942  1
  H+  H274  1  0.41773179  0.83982958  0.60836398  1
  H+  H275  1  0.87031320  0.36536605  0.83480031  1
  H+  H276  1  0.76774669  0.13126463  0.67281211  1
  H+  H277  1  0.12721024  0.72001584  -0.00638988  1
  H+  H278  1  0.14054059  1.01908858  0.66181232  1
  H+  H279  1  0.77476316  0.13619715  0.33241865  1
  H+  H280  1  0.25303020  0.61277425  0.47723811  1
  H+  H281  1  0.63302583  0.10899555  0.32917475  1
  H+  H282  1  0.14884231  0.65783411  0.83830261  1
  H+  H283  1  0.02715674  0.84420589  0.14732271  1
  H+  H284  1  0.19442885  0.45852790  0.54501106  1
  H+  H285  1  0.36631921  0.89600662  0.67318001  1
  H+  H286  1  0.87129686  0.62384439  0.82382641  1
  H+  H287  1  0.32886131  0.33977915  0.51007830  1
  H+  H288  1  0.15678096  0.63067091  0.93734399  1
  H+  H289  1  0.60430402  0.47937221  0.33701316  1
  H+  H290  1  0.66957130  0.58868204  0.92218722  1
  H+  H291  1  0.91289383  0.84142077  0.25542511  1
  H+  H292  1  0.45757735  0.21240663  0.37508136  1
  H+  H293  1  0.31519402  0.65647810  0.10455400  1
  H+  H294  1  0.63915666  0.62154048  0.48512586  1
  H+  H295  1  0.85228068  0.93818238  0.39876309  1
  H+  H296  1  0.10682837  0.22740715  0.00028405  1
  H+  H297  1  0.16751993  0.34472675  0.60758977  1
  H+  H298  1  0.92089102  0.33158899  0.60180140  1
  H+  H299  1  0.27221907  0.38356121  -0.00161424  1
  H+  H300  1  0.55301598  0.37646187  0.77829240  1
  H+  H301  1  0.18191767  0.84832643  0.90124000  1
  H+  H302  1  0.60494273  0.40636558  0.43669268  1
  H+  H303  1  0.57439323  0.15920445  0.06929530  1
  H+  H304  1  0.51064983  0.89331250  0.67962825  1
  H+  H305  1  0.16420765  0.83117606  0.26933455  1
  H+  H306  1  0.11205867  0.47092230  0.67390009  1
  H+  H307  1  0.67048031  0.31875715  0.57325925  1
  H+  H308  1  0.79424196  0.32570132  0.05015512  1
  H+  H309  1  0.90162088  0.06286411  0.53205745  1
  H+  H310  1  0.81229838  0.92077732  0.75042392  1
  H+  H311  1  0.83749926  0.66990766  0.73067887  1
  H+  H312  1  0.59241954  0.92301749  0.44030555  1
  H+  H313  1  0.90364247  0.86985775  1.00022063  1
  H+  H314  1  0.89529883  0.03302544  0.32183160  1
  H+  H315  1  0.66603508  0.58508578  0.22440875  1
  H+  H316  1  0.57245795  0.14870924  0.40267626  1
  H+  H317  1  0.85642151  0.38331840  0.66953920  1
  H+  H318  1  0.66555095  0.83914112  0.93389992  1
  H+  H319  1  0.63943142  0.62331858  0.34832411  1
  H+  H320  1  0.26382930  0.65424407  0.01317535  1
  H+  H321  1  0.42018755  0.84012547  0.26715639  1
  H+  H322  1  0.83155849  0.17396292  0.42447942  1
  H+  H323  1  0.40088574  0.04871893  0.27274236  1
  H+  H324  1  0.40778412  0.58968826  0.89080904  1
  H+  H325  1  0.64233376  0.86973441  0.51101719  1
  H+  H326  1  0.06616058  0.39457074  0.75883138  1
  H+  H327  1  0.32018170  0.41043140  0.43304644  1
  H+  H328  1  0.42821441  0.09100763  0.89407347  1
  H+  H329  1  0.63437070  0.52538222  0.97784420  1
  H+  H330  1  0.95014698  0.81719100  0.90790361  1
  H+  H331  1  0.85752522  0.92663507  0.07401814  1
  H+  H332  1  0.92584862  0.09259684  0.24098584  1
  H+  H333  1  0.09796953  0.92271131  0.76745397  1
  H+  H334  1  0.37820240  0.31372077  0.60586934  1
  H+  H335  1  0.98605621  0.60564693  0.98849678  1
  H+  H336  1  0.92641458  0.83317142  0.56595405  1
  H+  H337  1  0.83714216  0.42357920  0.11208114  1
  H+  H338  1  0.38543900  0.01853879  0.51475073  1
  H+  H339  1  0.33710991  0.17234969  0.77233035  1
  H+  H340  1  0.66872932  0.60663475  0.60612442  1
  H+  H341  1  0.67557168  0.33107694  0.27759384  1
  H+  H342  1  0.40717244  0.32481900  0.23166350  1
  H+  H343  1  0.89444065  0.80902678  0.33672533  1
  H+  H344  1  0.33648184  0.19996659  0.02114147  1
  H+  H345  1  0.33010231  0.91079560  0.44454945  1
  H+  H346  1  0.08304222  0.90952986  0.43516829  1
  H+  H347  1  0.66503145  0.32525864  0.89752474  1
  H+  H348  1  0.58540116  0.92836976  0.76880481  1
  H+  H349  1  0.23538830  0.85402499  0.17507506  1
  H+  H350  1  0.53801302  0.89924294  0.01018039  1
  H+  H351  1  0.67526022  0.09340645  0.89784447  1
  H+  H352  1  0.33188214  0.91268134  0.06489327  1
  H+  H353  1  0.33191461  0.66802075  0.73335778  1
  H+  H354  1  0.06454835  0.16164986  0.09019469  1
  H+  H355  1  0.40947853  0.07887171  0.60176049  1
  H+  H356  1  0.66419312  0.83926806  0.57254746  1
  H+  H357  1  0.89338201  0.13479755  0.49656612  1
  H+  H358  1  0.92164180  0.58613967  0.23801109  1
  H+  H359  1  0.18337696  0.10171034  0.25287089  1
  H+  H360  1  0.17260838  0.83635131  0.59844934  1
  H+  H361  1  0.90253802  0.57409293  0.59657001  1
  H+  H362  1  0.82032049  0.41142280  0.75675134  1
  H+  H363  1  0.33843248  0.93046095  0.73378668  1
  H+  H364  1  0.36355261  0.49968577  0.82893144  1
  H+  H365  1  0.44013392  0.85665217  0.93207225  1
  H+  H366  1  0.56683581  0.66794859  0.73556228  1
  H+  H367  1  0.12363351  0.88699192  0.67296470  1
  H+  H368  1  0.14332130  0.05855651  0.25540016  1
  H+  H369  1  0.16072311  0.32761644  0.26619191  1
  H+  H370  1  0.34957021  0.16489093  0.43880697  1
  H+  H371  1  0.16301684  0.58071607  0.27318169  1
  H+  H372  1  0.92709851  0.36696465  0.92085980  1
  H+  H373  1  0.33102145  0.42077261  0.73936470  1
  H+  H374  1  0.32843666  0.40886349  0.09274158  1
  H+  H375  1  0.12765573  0.14584003  0.81549327  1
  H+  H376  1  0.43362294  0.60075531  0.26196296  1
  H+  H377  1  0.83000425  0.15962617  0.10844153  1
  H+  H378  1  0.59296293  0.16173664  0.75954342  1
  H+  H379  1  0.85129456  0.67602778  0.42682425  1
  H+  H380  1  0.35655032  0.15734186  0.11155823  1
  H+  H381  1  0.92061419  0.57032602  0.90044802  1
  H+  H382  1  0.11465203  0.68201533  0.72625170  1
  H+  H383  1  0.08683118  0.17532467  0.40701054  1
  O2-  O384  1  0.06709356  0.15761943  0.13597395  1
  O2-  O385  1  0.09480267  0.17477280  0.47789817  1
  O2-  O386  1  0.10089247  0.17681738  0.79633626  1
  O2-  O387  1  0.08108357  0.42082274  0.15757430  1
  O2-  O388  1  0.02356971  0.38481438  0.49993467  1
  O2-  O389  1  0.05672277  0.38277736  0.80456708  1
  O2-  O390  1  0.09053256  0.65809245  0.15460068  1
  O2-  O391  1  0.08653406  0.66649177  0.48003000  1
  O2-  O392  1  0.10132665  0.70778503  0.80713653  1
  O2-  O393  1  0.08353583  0.89224837  0.13686329  1
  O2-  O394  1  0.08653148  0.91059811  0.48067380  1
  O2-  O395  1  0.10353637  0.92896529  0.81274768  1
  O2-  O396  1  0.33692332  0.15681068  0.15287381  1
  O2-  O397  1  0.33523285  0.15718141  0.48272969  1
  O2-  O398  1  0.33809891  0.17441347  0.81707564  1
  O2-  O399  1  0.32332620  0.40696673  0.13808959  1
  O2-  O400  1  0.32208793  0.41568282  0.47965318  1
  O2-  O401  1  0.33027464  0.43320312  0.81578009  1
  O2-  O402  1  0.31431139  0.65258815  0.15094936  1
  O2-  O403  1  0.31215900  0.65448849  0.46461241  1
  O2-  O404  1  0.34330535  0.67626540  0.80923873  1
  O2-  O405  1  0.33491478  0.90304369  0.14374420  1
  O2-  O406  1  0.33506970  0.91836750  0.48951450  1
  O2-  O407  1  0.34510631  0.93493989  0.80128362  1
  O2-  O408  1  0.57510893  0.15507125  0.14885394  1
  O2-  O409  1  0.58230915  0.16202790  0.48284257  1
  O2-  O410  1  0.59045011  0.16141309  0.80856922  1
  O2-  O411  1  0.61605410  0.42750159  0.12935531  1
  O2-  O412  1  0.65364843  0.43326984  0.46420232  1
  O2-  O413  1  0.56804850  0.39939020  0.82192440  1
  O2-  O414  1  0.56664250  0.64992115  0.13320006  1
  O2-  O415  1  0.58194558  0.67297245  0.48145583  1
  O2-  O416  1  0.55994723  0.66459765  0.81232704  1
  O2-  O417  1  0.57570226  0.90192909  0.15183167  1
  O2-  O418  1  0.59297293  0.92194767  0.48580140  1
  O2-  O419  1  0.59207235  0.92750422  0.81397112  1
  O2-  O420  1  0.83584886  0.16142149  0.15365854  1
  O2-  O421  1  0.82990135  0.17659542  0.46984349  1
  O2-  O422  1  0.83652640  0.16481873  0.80557916  1
  O2-  O423  1  0.83332642  0.42271629  0.15679950  1
  O2-  O424  1  0.84355141  0.41695514  0.48385145  1
  O2-  O425  1  0.81790357  0.40984442  0.80317167  1
  O2-  O426  1  0.83638261  0.67434948  0.15038477  1
  O2-  O427  1  0.84584958  0.67452265  0.47152803  1
  O2-  O428  1  0.84323863  0.65684914  0.81109088  1
  O2-  O429  1  0.81885585  0.90539505  0.15238229  1
  O2-  O430  1  0.83929016  0.92020065  0.47663257  1
  O2-  O431  1  0.79447853  0.94183458  0.78545764  1
  O2-  O432  1  0.15271927  0.07435482  0.13732179  1
  O2-  O433  1  0.16567615  0.07408321  0.52282975  1
  O2-  O434  1  0.17331239  0.09242228  0.85350972  1
  O2-  O435  1  0.15943159  0.32738475  0.18341921  1
  O2-  O436  1  0.17604159  0.39853934  0.53608656  1
  O2-  O437  1  0.16991304  0.33551044  0.85474081  1
  O2-  O438  1  0.15949498  0.57396301  0.18664002  1
  O2-  O439  1  0.14705415  0.56034887  0.52221775  1
  O2-  O440  1  0.17834033  0.63194747  0.86129780  1
  O2-  O441  1  0.17494482  0.82545623  0.19098303  1
  O2-  O442  1  0.16841319  0.82978737  0.52261249  1
  O2-  O443  1  0.18808935  0.85539682  0.85601387  1
  O2-  O444  1  0.41231144  0.06404607  0.19476278  1
  O2-  O445  1  0.41599704  0.07895461  0.53185561  1
  O2-  O446  1  0.42954019  0.09476703  0.84921428  1
  O2-  O447  1  0.40876170  0.32359258  0.18534777  1
  O2-  O448  1  0.32484092  0.28801095  0.53299194  1
  O2-  O449  1  0.42555196  0.36915787  0.87900593  1
  O2-  O450  1  0.40416092  0.57641384  0.17932998  1
  O2-  O451  1  0.41391526  0.58666803  0.51765613  1
  O2-  O452  1  0.40797323  0.58815163  0.84602525  1
  O2-  O453  1  0.41128074  0.81917262  0.19079107  1
  O2-  O454  1  0.42951024  0.84607978  0.53808358  1
  O2-  O455  1  0.44757008  0.81852675  0.87390146  1
  O2-  O456  1  0.65859173  0.07434643  0.19062183  1
  O2-  O457  1  0.67087996  0.08704550  0.52504910  1
  O2-  O458  1  0.67904563  0.09496490  0.85300150  1
  O2-  O459  1  0.66616573  0.32113371  0.19458367  1
  O2-  O460  1  0.68123216  0.32176114  0.52781350  1
  O2-  O461  1  0.66057805  0.32727418  0.85270564  1
  O2-  O462  1  0.67116116  0.58195013  0.18044698  1
  O2-  O463  1  0.67379603  0.59320902  0.47495433  1
  O2-  O464  1  0.66350900  0.56658742  0.83497985  1
  O2-  O465  1  0.64776522  0.79897215  0.18363777  1
  O2-  O466  1  0.67006257  0.83734530  0.52792962  1
  O2-  O467  1  0.65987964  0.83071150  0.85239993  1
  O2-  O468  1  0.92348936  0.09079314  0.18983531  1
  O2-  O469  1  0.93486778  0.11974589  0.51417154  1
  O2-  O470  1  0.89521978  0.07991381  0.84576657  1
  O2-  O471  1  0.91186630  0.32628302  0.19104369  1
  O2-  O472  1  0.94311062  0.34413576  0.51885264  1
  O2-  O473  1  0.90129789  0.34157751  0.85857960  1
  O2-  O474  1  0.92129342  0.58756453  0.19233400  1
  O2-  O475  1  0.92125694  0.58473557  0.51646388  1
  O2-  O476  1  0.92164438  0.56946338  0.85477850  1
  O2-  O477  1  0.90477748  0.83280732  0.20114787  1
  O2-  O478  1  0.92439973  0.83597648  0.52058704  1
  O2-  O479  1  0.97207675  0.80320291  0.87077774  1
  O2-  O480  1  0.17530579  0.08714259  0.37232866  1
  O2-  O481  1  0.17059940  0.07947604  0.64570361  1
  O2-  O482  1  0.14796735  0.07413548  0.97234507  1
  O2-  O483  1  0.16076001  0.33177463  0.31112585  1
  O2-  O484  1  0.16472373  0.33255918  0.65173029  1
  O2-  O485  1  0.16874394  0.33322741  0.97632495  1
  O2-  O486  1  0.16015852  0.57758751  0.31780874  1
  O2-  O487  1  0.16577144  0.57006882  0.64487189  1
  O2-  O488  1  0.15321386  0.62508816  0.98275822  1
  O2-  O489  1  0.15886421  0.82909052  0.31457976  1
  O2-  O490  1  0.17306268  0.83700151  0.64415456  1
  O2-  O491  1  0.16783003  0.82495552  0.97728956  1
  O2-  O492  1  0.39940315  0.05052176  0.31802797  1
  O2-  O493  1  0.40607392  0.07857392  0.64863783  1
  O2-  O494  1  0.40940588  0.08456470  0.97727344  1
  O2-  O495  1  0.40343229  0.32166112  0.30512919  1
  O2-  O496  1  0.39388146  0.31725028  0.64946964  1
  O2-  O497  1  0.42163920  0.34561066  0.94319297  1
  O2-  O498  1  0.45130675  0.61318431  0.30484180  1
  O2-  O499  1  0.40573665  0.57913125  0.64465219  1
  O2-  O500  1  0.40174719  0.59061112  0.97899117  1
  O2-  O501  1  0.43167289  0.86830563  0.30824264  1
  O2-  O502  1  0.40993990  0.83834283  0.65465044  1
  O2-  O503  1  0.44945201  0.89560285  0.96973563  1
  O2-  O504  1  0.66716297  0.08336617  0.31150237  1
  O2-  O505  1  0.66547961  0.08195707  0.65212111  1
  O2-  O506  1  0.66500626  0.08018158  0.98331590  1
  O2-  O507  1  0.68774473  0.34176077  0.32142770  1
  O2-  O508  1  0.65418869  0.31101155  0.64788776  1
  O2-  O509  1  0.65757037  0.32401896  0.97836068  1
  O2-  O510  1  0.66149256  0.58024159  0.35072088  1
  O2-  O511  1  0.69480842  0.65492074  0.63410167  1
  O2-  O512  1  0.66915112  0.58713318  0.96694714  1
  O2-  O513  1  0.68187147  0.85563026  0.32345270  1
  O2-  O514  1  0.64907493  0.84066288  0.65673260  1
  O2-  O515  1  0.66634053  0.84089876  0.97910767  1
  O2-  O516  1  0.92363783  0.09284174  0.30154530  1
  O2-  O517  1  0.91191659  0.07234898  0.64749024  1
  O2-  O518  1  0.90638817  0.08138323  0.96892097  1
  O2-  O519  1  0.91564587  0.32644151  0.30913539  1
  O2-  O520  1  0.91373724  0.32842187  0.64654341  1
  O2-  O521  1  0.94347350  0.37776787  0.96773336  1
  O2-  O522  1  0.92193833  0.57565716  0.31518334  1
  O2-  O523  1  0.89089137  0.56432976  0.64075663  1
  O2-  O524  1  0.92371049  0.57957542  0.97760583  1
  O2-  O525  1  0.92762417  0.85840689  0.31066713  1
  O2-  O526  1  0.93495860  0.83778053  0.64431205  1
  O2-  O527  1  0.92258297  0.83004460  0.98224483  1
  O2-  O528  1  0.07090574  0.16632398  0.01396209  1
  O2-  O529  1  0.08923751  0.17345512  0.36027630  1
  O2-  O530  1  0.08277221  0.16573937  0.67910693  1
  O2-  O531  1  0.11559975  0.44783339  0.00387855  1
  O2-  O532  1  0.06908361  0.40653578  0.34890139  1
  O2-  O533  1  0.07783080  0.40955177  0.68848309  1
  O2-  O534  1  0.09497278  0.65597079  0.00196348  1
  O2-  O535  1  0.08103391  0.66501886  0.35726975  1
  O2-  O536  1  0.11050307  0.67175999  0.68225960  1
  O2-  O537  1  0.08414120  0.90700177  0.01809934  1
  O2-  O538  1  0.08541760  0.91661612  0.35707583  1
  O2-  O539  1  0.09492382  0.91822006  0.69005340  1
  O2-  O540  1  0.33175125  0.17900677  -0.02021565  1
  O2-  O541  1  0.39687698  0.18271780  0.36393439  1
  O2-  O542  1  0.33061988  0.15516844  0.68578424  1
  O2-  O543  1  0.33336726  0.41501131  0.01334390  1
  O2-  O544  1  0.31856231  0.40177586  0.36275235  1
  O2-  O545  1  0.33082839  0.41474725  0.69382544  1
  O2-  O546  1  0.31775050  0.66695202  0.03297110  1
  O2-  O547  1  0.32903798  0.62582736  0.36864035  1
  O2-  O548  1  0.32835424  0.66662525  0.68761593  1
  O2-  O549  1  0.32826362  0.91859439  0.01995831  1
  O2-  O550  1  0.31348681  0.89501430  0.36628542  1
  O2-  O551  1  0.33717786  0.92947820  0.68613559  1
  O2-  O552  1  0.57334165  0.15785357  0.02379459  1
  O2-  O553  1  0.56909968  0.14286645  0.35768065  1
  O2-  O554  1  0.59531432  0.16108334  0.69451851  1
  O2-  O555  1  0.57412607  0.41453618  0.00154387  1
  O2-  O556  1  0.57355820  0.41579494  0.32661725  1
  O2-  O557  1  0.53424631  0.33117463  0.71394377  1
  O2-  O558  1  0.57428901  0.66731451  0.01141303  1
  O2-  O559  1  0.60027302  0.68243622  0.35543710  1
  O2-  O560  1  0.56978618  0.67111078  0.68979097  1
  O2-  O561  1  0.59614631  0.92247468  0.02820317  1
  O2-  O562  1  0.59602100  0.92558028  0.36194704  1
  O2-  O563  1  0.57265547  0.92300192  0.69257968  1
  O2-  O564  1  0.81796962  0.15384831  0.02951402  1
  O2-  O565  1  0.83611575  0.16420736  0.34597376  1
  O2-  O566  1  0.82958483  0.15990377  0.68705524  1
  O2-  O567  1  0.82171837  0.38245103  0.03134369  1
  O2-  O568  1  0.84850525  0.41802315  0.35983093  1
  O2-  O569  1  0.82282219  0.40969430  0.68453485  1
  O2-  O570  1  0.82989336  0.66143641  0.02321452  1
  O2-  O571  1  0.83722464  0.65282227  0.34181728  1
  O2-  O572  1  0.83931020  0.67670603  0.68580674  1
  O2-  O573  1  0.89232017  0.94142824  0.03646526  1
  O2-  O574  1  0.85374710  0.94381938  0.35323926  1
  O2-  O575  1  0.83866926  0.91256644  0.66834482  1
