# generated using pymatgen
data_H2O
_symmetry_space_group_name_H-M   'P 1'
_cell_length_a   17.99331596
_cell_length_b   17.99351497
_cell_length_c   22.00093362
_cell_angle_alpha   90.01381846
_cell_angle_beta   90.05025749
_cell_angle_gamma   119.99854878
_symmetry_Int_Tables_number   1
_chemical_formula_structural   H2O
_chemical_formula_sum   'H384 O192'
_cell_volume   6168.86133441
_cell_formula_units_Z   192
loop_
 _symmetry_equiv_pos_site_id
 _symmetry_equiv_pos_as_xyz
  1  'x, y, z'
loop_
 _atom_type_symbol
 _atom_type_oxidation_number
  H+  1.0
  O2-  -2.0
loop_
 _atom_site_type_symbol
 _atom_site_label
 _atom_site_symmetry_multiplicity
 _atom_site_fract_x
 _atom_site_fract_y
 _atom_site_fract_z
 _atom_site_occupancy
  H+  H0  1  0.65792444  0.33393956  0.26796839  1
  H+  H1  1  0.14443302  0.90197992  0.48366608  1
  H+  H2  1  0.33478541  0.16191450  0.83827909  1
  H+  H3  1  0.09945671  0.24113983  0.81340985  1
  H+  H4  1  0.19821579  0.58616457  0.83654792  1
  H+  H5  1  0.94185403  0.12731402  0.61472932  1
  H+  H6  1  0.50930830  0.87500820  0.16782308  1
  H+  H7  1  0.61176902  0.22674798  0.67851032  1
  H+  H8  1  0.49220753  0.88207413  0.51883255  1
  H+  H9  1  0.61123294  0.88530798  0.30904150  1
  H+  H10  1  0.87979582  1.02476000  0.17051793  1
  H+  H11  1  0.57393830  0.43480659  0.83265551  1
  H+  H12  1  0.24788894  0.87031954  0.50313362  1
  H+  H13  1  0.09305098  0.45955231  -0.00594263  1
  H+  H14  1  0.41648340  0.09306706  0.26939774  1
  H+  H15  1  0.76778242  0.88399186  0.16456939  1
  H+  H16  1  0.77511786  0.63263301  0.14386459  1
  H+  H17  1  0.37290681  0.24538830  0.50200818  1
  H+  H18  1  0.65533395  0.89417504  0.67287243  1
  H+  H19  1  0.77834882  0.14593809  0.33623398  1
  H+  H20  1  0.96272056  0.10365814  0.99532224  1
  H+  H21  1  0.23876648  0.11943263  0.51303856  1
  H+  H22  1  0.88457009  0.59364329  0.51141317  1
  H+  H23  1  0.62541670  0.63632119  0.14983012  1
  H+  H24  1  0.52785063  0.63733352  0.81644653  1
  H+  H25  1  -0.02035331  0.59726783  0.00074771  1
  H+  H26  1  0.63940104  0.02858739  0.31606813  1
  H+  H27  1  0.85162403  0.21823130  0.99713780  1
  H+  H28  1  0.59779245  0.42518804  0.73951982  1
  H+  H29  1  0.87812922  0.09799279  0.85495464  1
  H+  H30  1  0.83753165  0.70619041  0.30421340  1
  H+  H31  1  0.86173349  0.35646058  0.68198625  1
  H+  H32  1  0.47212055  0.09768030  0.98575006  1
  H+  H33  1  0.59465431  0.85167951  0.82189012  1
  H+  H34  1  0.23689385  0.10901834  0.66302814  1
  H+  H35  1  0.84982008  0.46403841  0.19457572  1
  H+  H36  1  0.63573073  0.76866450  0.16757559  1
  H+  H37  1  1.00042453  0.85623849  0.16758723  1
  H+  H38  1  0.91446049  0.79221744  0.52868930  1
  H+  H39  1  0.03539851  0.38097436  0.77130918  1
  H+  H40  1  0.94813079  0.98350880  0.46310439  1
  H+  H41  1  0.37869249  0.51897958  0.03298897  1
  H+  H42  1  0.13144296  0.14437072  0.82665942  1
  H+  H43  1  0.03461467  0.89118930  0.83631140  1
  H+  H44  1  0.36461623  0.13314523  0.67588061  1
  H+  H45  1  0.86964154  0.11714729  0.51842198  1
  H+  H46  1  0.48578565  0.37261395  0.32782537  1
  H+  H47  1  0.95903606  0.34802279  0.97490217  1
  H+  H48  1  0.09606907  0.11320163  0.13955608  1
  H+  H49  1  0.07592126  0.22674966  0.65690044  1
  H+  H50  1  0.87038208  0.97919012  0.84324170  1
  H+  H51  1  0.10091244  0.50607611  0.83596550  1
  H+  H52  1  0.67399114  0.50765984  0.82519590  1
  H+  H53  1  0.04078616  0.64106583  0.67149541  1
  H+  H54  1  0.24285635  0.64379900  1.00526883  1
  H+  H55  1  0.22485986  0.86211277  0.32953902  1
  H+  H56  1  0.12435643  0.34341245  0.16059470  1
  H+  H57  1  0.60485839  0.21761238  0.00425118  1
  H+  H58  1  0.86371341  0.47794390  0.69636918  1
  H+  H59  1  0.13127318  0.84947028  0.17892976  1
  H+  H60  1  0.76674241  0.13434709  0.15636453  1
  H+  H61  1  0.03254462  0.88995330  0.68539896  1
  H+  H62  1  0.74134777  0.36652707  0.51503108  1
  H+  H63  1  0.35962479  0.22040542  0.68268241  1
  H+  H64  1  0.62477173  0.23422749  0.50321163  1
  H+  H65  1  0.98258629  0.62873811  0.84973079  1
  H+  H66  1  0.39700100  0.15554636  0.34637817  1
  H+  H67  1  0.87619543  0.85617899  0.17600519  1
  H+  H68  1  1.00382982  0.37956910  0.64438013  1
  H+  H69  1  0.37598758  0.85874263  0.17513351  1
  H+  H70  1  0.37586485  0.76509448  0.99089047  1
  H+  H71  1  0.87256781  0.34945488  -0.01384448  1
  H+  H72  1  0.56845403  0.44803755  0.02126858  1
  H+  H73  1  0.62679935  0.02189093  0.17717408  1
  H+  H74  1  0.10271600  0.63859658  0.83443376  1
  H+  H75  1  0.80128358  0.64845527  -0.00770291  1
  H+  H76  1  0.72669157  0.96591906  0.71221666  1
  H+  H77  1  0.36030790  -0.02407614  0.16932656  1
  H+  H78  1  0.47794349  0.61775878  0.34044682  1
  H+  H79  1  0.34175550  0.61830990  0.82592773  1
  H+  H80  1  0.85322066  0.97246981  0.32841591  1
  H+  H81  1  0.10820713  0.13729724  -0.00544657  1
  H+  H82  1  0.87439954  0.38375315  0.50718730  1
  H+  H83  1  0.18247073  0.09306502  0.82317119  1
  H+  H84  1  0.44506797  0.32826836  0.81193925  1
  H+  H85  1  0.72118193  0.85706554  0.32578839  1
  H+  H86  1  0.14348098  1.01490973  0.66193546  1
  H+  H87  1  0.86544025  0.23700528  0.50446935  1
  H+  H88  1  0.39987782  0.37262174  0.01872966  1
  H+  H89  1  0.61428104  0.39440324  0.34516246  1
  H+  H90  1  0.76364930  0.60784633  0.49456807  1
  H+  H91  1  0.72012270  0.10692242  0.99178964  1
  H+  H92  1  0.68029179  0.84802360  0.50129587  1
  H+  H93  1  0.38182452  0.90953857  0.83893058  1
  H+  H94  1  0.38168819  0.61461634  0.34014990  1
  H+  H95  1  0.21792537  0.35468581  0.49303405  1
  H+  H96  1  0.37314580  0.39886035  0.83023671  1
  H+  H97  1  0.90611805  0.61639509  0.66498020  1
  H+  H98  1  0.40721961  0.39312528  0.98792258  1
  H+  H99  1  0.35070426  0.93214557  0.42799687  1
  H+  H100  1  0.05223803  0.88838932  0.48453794  1
  H+  H101  1  0.08236292  0.67377966  0.43719504  1
  H+  H102  1  0.12646937  0.25522529  0.16682799  1
  H+  H103  1  0.22215779  0.12929402  0.35064037  1
  H+  H104  1  0.60969450  0.38280455  0.67949175  1
  H+  H105  1  0.79056009  0.37823241  0.35189455  1
  H+  H106  1  0.23950690  0.11937131  0.32261810  1
  H+  H107  1  0.60465687  0.62398474  0.49875295  1
  H+  H108  1  0.46525521  0.86082337  0.68408147  1
  H+  H109  1  0.87607959  0.78084219  0.69897722  1
  H+  H110  1  0.57681313  0.92179657  0.07130371  1
  H+  H111  1  0.18329323  0.70571142  0.03499798  1
  H+  H112  1  0.83957681  0.61882339  0.30707503  1
  H+  H113  1  0.47628498  0.83941336  0.99160518  1
  H+  H114  1  0.91146640  0.28646773  0.31951715  1
  H+  H115  1  0.35181978  0.50268229  1.00432189  1
  H+  H116  1  0.86745712  0.15426385  0.70306455  1
  H+  H117  1  0.86836450  0.27612054  0.13466268  1
  H+  H118  1  0.35729898  0.97005272  0.01661695  1
  H+  H119  1  1.05819405  0.14142792  0.38320634  1
  H+  H120  1  0.98344079  0.61401828  0.51247889  1
  H+  H121  1  0.53263287  0.38184664  0.50564759  1
  H+  H122  1  0.78081692  0.19428633  0.46665177  1
  H+  H123  1  0.65008827  0.51248823  0.17371901  1
  H+  H124  1  0.36970988  0.73084783  0.34459840  1
  H+  H125  1  0.18142642  0.34623066  0.25541224  1
  H+  H126  1  0.48638278  0.13193620  0.51163870  1
  H+  H127  1  0.85843426  0.13902996  0.15533321  1
  H+  H128  1  0.59657377  0.21403676  0.15994189  1
  H+  H129  1  0.47088765  0.35977160  0.67901288  1
  H+  H130  1  0.65829465  0.03269701  0.67483209  1
  H+  H131  1  0.63154212  0.35277545  0.17725590  1
  H+  H132  1  0.83159296  0.66033943  0.74616334  1
  H+  H133  1  0.13874139  0.63201802  0.33434757  1
  H+  H134  1  0.86379664  0.45814230  1.01598300  1
  H+  H135  1  0.39498401  0.53172716  0.83993559  1
  H+  H136  1  0.61549663  0.73825633  0.65452936  1
  H+  H137  1  0.87831108  0.47410176  0.50313247  1
  H+  H138  1  0.29586169  0.68182614  0.06755000  1
  H+  H139  1  0.75954348  0.85776165  0.70656934  1
  H+  H140  1  0.42551921  0.62161053  0.98801521  1
  H+  H141  1  0.13733987  0.52861225  0.50046006  1
  H+  H142  1  0.11453950  0.98076738  0.05150363  1
  H+  H143  1  0.28491377  0.39813697  0.32410450  1
  H+  H144  1  0.41171492  0.24368933  0.96157438  1
  H+  H145  1  0.36121251  0.64051649  0.14724222  1
  H+  H146  1  0.15466055  1.02582031  0.50831970  1
  H+  H147  1  0.27985745  0.64534843  0.35013116  1
  H+  H148  1  1.01387032  0.12426425  0.15441107  1
  H+  H149  1  -0.02573809  0.37354074  0.82448320  1
  H+  H150  1  0.92586006  0.57628869  0.60800645  1
  H+  H151  1  0.89018800  0.61185849  0.17064574  1
  H+  H152  1  0.36201699  0.97884341  0.33639457  1
  H+  H153  1  0.13437610  0.36283656  0.49502413  1
  H+  H154  1  0.89183467  0.52216058  0.32872886  1
  H+  H155  1  0.12755477  0.73402264  0.66505744  1
  H+  H156  1  0.39639321  0.04577829  0.50545907  1
  H+  H157  1  0.71835252  0.59153323  0.21937228  1
  H+  H158  1  0.33644635  0.93178345  0.74536944  1
  H+  H159  1  0.35755959  0.11756617  -0.00798564  1
  H+  H160  1  0.88485670  0.31377230  0.58638277  1
  H+  H161  1  0.08198061  -0.01853647  0.29833022  1
  H+  H162  1  0.73307165  0.85953186  0.84614383  1
  H+  H163  1  0.45447252  0.71498114  0.96208600  1
  H+  H164  1  0.77226908  0.13960622  0.69682329  1
  H+  H165  1  0.91996847  0.58167360  0.90794744  1
  H+  H166  1  0.00504256  0.14218685  0.48505445  1
  H+  H167  1  0.89039028  0.86824865  0.85323282  1
  H+  H168  1  0.12215744  0.50008372  0.15883374  1
  H+  H169  1  0.12051996  0.72296242  0.17226908  1
  H+  H170  1  0.35303246  0.46396873  0.48732645  1
  H+  H171  1  0.11509951  0.59491576  0.98676855  1
  H+  H172  1  0.23512738  0.62153675  0.65361336  1
  H+  H173  1  0.61279013  0.13935541  0.50453788  1
  H+  H174  1  0.37695002  0.10770440  0.17132811  1
  H+  H175  1  0.60158832  0.87715206  0.16632908  1
  H+  H176  1  0.38096089  0.39338061  0.16978953  1
  H+  H177  1  -0.00115780  0.89888541  -0.00406851  1
  H+  H178  1  0.23414133  0.87174191  0.66498417  1
  H+  H179  1  0.27944713  0.13845312  -0.01121951  1
  H+  H180  1  0.87472029  0.85249366  0.32503051  1
  H+  H181  1  0.12061746  0.90851353  0.00810776  1
  H+  H182  1  0.89823847  0.88599003  1.00138882  1
  H+  H183  1  -0.03983480  0.84466987  0.32689074  1
  H+  H184  1  0.11769478  0.64558298  0.49418965  1
  H+  H185  1  0.11316677  0.62913366  0.16680520  1
  H+  H186  1  0.47844906  0.11592582  0.66534088  1
  H+  H187  1  0.36283796  0.05585228  0.83334809  1
  H+  H188  1  0.40763343  0.04704448  0.93033833  1
  H+  H189  1  0.22870108  0.86438510  0.17875671  1
  H+  H190  1  0.89273890  0.59986331  0.99796969  1
  H+  H191  1  0.14309760  0.63292021  0.65350931  1
  H+  H192  1  0.87182993  0.90151527  0.49190810  1
  H+  H193  1  0.65567769  0.77040808  0.00122232  1
  H+  H194  1  0.49872393  0.32717906  0.97458641  1
  H+  H195  1  0.59084032  0.70658198  0.49672371  1
  H+  H196  1  0.37834013  0.35675959  0.67615230  1
  H+  H197  1  0.57985769  -0.08185470  0.25433553  1
  H+  H198  1  0.16541790  0.84418251  0.94612781  1
  H+  H199  1  1.04027630  0.39968711  0.32926757  1
  H+  H200  1  0.70912762  0.09190083  0.52216594  1
  H+  H201  1  0.72361497  0.36626594  0.67620353  1
  H+  H202  1  0.36275637  0.88930076  0.33685272  1
  H+  H203  1  0.35927860  0.71750063  0.50786578  1
  H+  H204  1  0.48800953  0.35466111  0.16600919  1
  H+  H205  1  0.48037323  0.11702112  0.32800029  1
  H+  H206  1  0.19972289  0.64635766  0.27882357  1
  H+  H207  1  0.35506313  0.21410064  0.14492661  1
  H+  H208  1  0.63431327  0.51688061  0.51254508  1
  H+  H209  1  0.09707950  0.21844202  0.47520959  1
  H+  H210  1  0.14526730  0.04333114  0.97155625  1
  H+  H211  1  0.72815880  0.41551854  0.29943973  1
  H+  H212  1  0.91092595  0.37320055  0.32582629  1
  H+  H213  1  0.35046291  0.37460271  0.48766891  1
  H+  H214  1  0.84832576  0.37743934  0.18122510  1
  H+  H215  1  0.57194510  0.65941300  0.40624266  1
  H+  H216  1  0.36614304  0.98307465  0.68208844  1
  H+  H217  1  0.19520181  0.33997828  0.99749815  1
  H+  H218  1  0.57543999  -0.11736974  0.49856787  1
  H+  H219  1  0.35518862  0.84006047  0.53301667  1
  H+  H220  1  0.23746269  0.87792580  0.85829698  1
  H+  H221  1  0.78720696  0.89143516  0.01766294  1
  H+  H222  1  0.33674832  0.15874786  0.08442798  1
  H+  H223  1  0.37656114  0.59657115  0.50822045  1
  H+  H224  1  0.10690846  0.72864996  0.34279285  1
  H+  H225  1  0.34127169  0.67180999  0.44200343  1
  H+  H226  1  0.88508429  1.03833340  0.52067206  1
  H+  H227  1  0.15563403  0.78365171  0.50312605  1
  H+  H228  1  0.26575730  0.62451373  0.15776047  1
  H+  H229  1  0.60437847  -0.02070882  1.00979433  1
  H+  H230  1  0.87296212  0.10385265  0.31944053  1
  H+  H231  1  0.61154187  0.13733153  0.68220873  1
  H+  H232  1  0.63807030  0.11581965  0.33035062  1
  H+  H233  1  0.10308875  0.87262187  0.33304120  1
  H+  H234  1  0.35547639  0.62913458  0.67178195  1
  H+  H235  1  0.87712030  0.35381105  0.09378909  1
  H+  H236  1  0.65898404  0.56928686  0.95860906  1
  H+  H237  1  0.62896075  0.51288905  0.66563663  1
  H+  H238  1  0.62942353  0.76975163  0.33032381  1
  H+  H239  1  0.46086510  0.59789063  0.66145074  1
  H+  H240  1  0.39349177  0.36701836  0.32073026  1
  H+  H241  1  0.65220862  0.36720546  0.51378267  1
  H+  H242  1  0.30293968  0.39065118  0.07755924  1
  H+  H243  1  0.97420931  0.35280509  0.56113716  1
  H+  H244  1  0.20831008  0.35232885  0.65389947  1
  H+  H245  1  0.87262523  1.10291101  0.00195716  1
  H+  H246  1  0.61900932  0.72175727  0.81781266  1
  H+  H247  1  0.59835424  0.63236784  0.34383743  1
  H+  H248  1  0.63520489  0.35687571  0.00141652  1
  H+  H249  1  0.67300062  0.66146942  0.97143416  1
  H+  H250  1  0.62573462  0.56548206  0.27248309  1
  H+  H251  1  0.64691041  0.89583206  0.99860550  1
  H+  H252  1  0.12573625  0.49362209  0.33150153  1
  H+  H253  1  0.56525404  0.68992155  -0.01003529  1
  H+  H254  1  0.91893107  0.57908503  0.26746179  1
  H+  H255  1  0.03227010  0.39844531  0.47530104  1
  H+  H256  1  0.86449451  0.26861351  0.68853931  1
  H+  H257  1  0.45327021  0.42312627  0.54749112  1
  H+  H258  1  0.13743500  0.37380297  0.84043845  1
  H+  H259  1  0.07014684  0.09874976  0.32103033  1
  H+  H260  1  0.63146514  0.10627943  0.98466593  1
  H+  H261  1  0.41868352  0.08804345  0.60578306  1
  H+  H262  1  0.85888808  0.72257639  0.15474060  1
  H+  H263  1  0.27962341  0.39252779  0.83197441  1
  H+  H264  1  0.77221744  0.37236840  0.01625574  1
  H+  H265  1  0.87114574  0.98522327  0.01864932  1
  H+  H266  1  0.13537417  0.78785129  1.00758594  1
  H+  H267  1  0.26282930  0.89207160  1.02165366  1
  H+  H268  1  0.38000844  0.86720693  0.68330155  1
  H+  H269  1  0.69912788  0.07397949  0.89388117  1
  H+  H270  1  0.35847806  0.72051700  0.68129812  1
  H+  H271  1  0.97019544  1.11401949  0.83417223  1
  H+  H272  1  0.34743256  0.46289433  0.67507251  1
  H+  H273  1  0.62636149  0.26599631  0.84761383  1
  H+  H274  1  0.00994347  0.37667131  0.13741857  1
  H+  H275  1  0.59431137  0.61783422  0.67156387  1
  H+  H276  1  0.61708325  0.23018957  0.34782945  1
  H+  H277  1  0.65179981  0.36538323  0.84582458  1
  H+  H278  1  0.16136517  0.38862052  0.31291581  1
  H+  H279  1  0.61199146  0.01396882  0.52310298  1
  H+  H280  1  0.39985046  0.25748789  0.34294866  1
  H+  H281  1  0.42173152  0.94436906  0.47444306  1
  H+  H282  1  0.22828746  0.61478610  0.50345397  1
  H+  H283  1  0.47048232  0.86159800  0.31513751  1
  H+  H284  1  0.85672405  0.89402316  0.69306104  1
  H+  H285  1  0.38427071  0.51821921  0.33414165  1
  H+  H286  1  0.84830648  0.67491133  0.46010305  1
  H+  H287  1  0.47333613  0.86740631  0.83278041  1
  H+  H288  1  0.89198191  0.77798153  0.85854540  1
  H+  H289  1  0.37089375  0.19593118  0.41209012  1
  H+  H290  1  0.07318123  0.15904827  0.05555002  1
  H+  H291  1  0.11104597  0.25720029  0.98039667  1
  H+  H292  1  0.21113861  0.32793726  0.09707017  1
  H+  H293  1  0.17975332  0.07599622  0.59450594  1
  H+  H294  1  0.95995131  0.09858269  0.31856234  1
  H+  H295  1  0.57021574  0.15354143  0.06037438  1
  H+  H296  1  0.37990772  0.15975376  0.50114927  1
  H+  H297  1  0.83542240  0.91600848  0.78621550  1
  H+  H298  1  0.04727373  0.85194842  0.10842459  1
  H+  H299  1  0.39855318  0.54032595  0.16623829  1
  H+  H300  1  0.80322806  0.14430358  0.79997410  1
  H+  H301  1  0.09421569  0.91688198  0.77804082  1
  H+  H302  1  0.84779300  0.66423544  0.05625100  1
  H+  H303  1  0.65959350  0.82126967  0.23063225  1
  H+  H304  1  0.43211095  0.32732751  0.22567130  1
  H+  H305  1  0.17144963  0.59134375  0.59046057  1
  H+  H306  1  0.83466324  0.91544045  0.10881244  1
  H+  H307  1  0.77303297  0.35990963  0.84632003  1
  H+  H308  1  0.76411086  0.68291182  0.75838747  1
  H+  H309  1  0.05647712  0.18085815  0.75428956  1
  H+  H310  1  0.90441259  0.82552584  0.63585396  1
  H+  H311  1  0.40063504  0.56538997  0.60237976  1
  H+  H312  1  0.66379430  0.57774335  0.57113725  1
  H+  H313  1  0.71112031  0.60704961  0.67236285  1
  H+  H314  1  0.68409578  0.44979579  0.12500214  1
  H+  H315  1  0.74029992  0.63869180  0.87958753  1
  H+  H316  1  0.48302432  0.62758850  0.15231811  1
  H+  H317  1  0.32061705  0.40871392  0.73604354  1
  H+  H318  1  0.51024506  0.11893636  0.82915137  1
  H+  H319  1  0.46282691  0.59153427  0.50782065  1
  H+  H320  1  -0.02131243  0.61133648  0.17523840  1
  H+  H321  1  0.09649381  0.43098732  0.41939019  1
  H+  H322  1  0.92948164  0.85322728  0.93490088  1
  H+  H323  1  0.08675764  0.37604180  0.62540622  1
  H+  H324  1  0.16727068  0.82876717  0.26899824  1
  H+  H325  1  0.66745341  0.08720536  0.61621338  1
  H+  H326  1  0.30358815  0.63953964  0.76864429  1
  H+  H327  1  0.14147199  0.56525079  0.92540788  1
  H+  H328  1  0.90931819  0.08505644  0.22769908  1
  H+  H329  1  0.97423900  0.75354412  0.52656880  1
  H+  H330  1  0.16248493  0.33322573  0.89457726  1
  H+  H331  1  0.83700773  0.92168386  0.39070053  1
  H+  H332  1  0.73020205  0.93769096  0.95743854  1
  H+  H333  1  0.14775039  0.54175692  0.22382060  1
  H+  H334  1  0.66397490  0.09008973  0.23153789  1
  H+  H335  1  0.87337055  0.33075144  0.88934737  1
  H+  H336  1  0.42003860  0.83786038  0.89469547  1
  H+  H337  1  0.10459305  0.67976748  0.07856655  1
  H+  H338  1  0.83172977  0.41644457  0.75586333  1
  H+  H339  1  0.67532044  0.33869063  0.61158213  1
  H+  H340  1  0.84339453  0.17575391  0.39227040  1
  H+  H341  1  0.59199698  0.90491532  0.76738100  1
  H+  H342  1  0.90049247  0.81920325  0.23468901  1
  H+  H343  1  0.01745915  0.63779971  0.34214440  1
  H+  H344  1  0.58741593  0.17254912  0.40725486  1
  H+  H345  1  0.42046032  0.34310142  0.58949145  1
  H+  H346  1  0.12041305  0.88753891  0.67453738  1
  H+  H347  1  0.20836859  0.08087738  0.12686304  1
  H+  H348  1  0.57392225  0.65819537  0.73101727  1
  H+  H349  1  0.71253899  0.34226481  0.19263280  1
  H+  H350  1  0.11422210  0.73159239  0.84497840  1
  H+  H351  1  0.39828848  0.82275448  0.26601009  1
  H+  H352  1  0.70665119  0.80028260  0.62323825  1
  H+  H353  1  0.60453056  0.47801380  0.34934203  1
  H+  H354  1  0.33648048  0.41428352  0.38855573  1
  H+  H355  1  0.32759714  0.91638423  0.10871296  1
  H+  H356  1  0.46670271  0.10945246  0.17430586  1
  H+  H357  1  0.82426222  0.16505249  0.06084688  1
  H+  H358  1  0.61087099  0.67799814  0.08935600  1
  H+  H359  1  0.08545000  0.91613041  0.38955139  1
  H+  H360  1  0.32451922  0.13408624  0.76919618  1
  H+  H361  1  0.70318000  0.60330672  0.31700623  1
  H+  H362  1  0.09350580  0.36997953  -0.00864505  1
  H+  H363  1  0.37086673  0.76615491  0.17135531  1
  H+  H364  1  0.12161574  0.99183634  0.14166743  1
  H+  H365  1  0.39351543  0.82050894  0.59244525  1
  H+  H366  1  0.85237643  0.41720466  0.40848648  1
  H+  H367  1  0.58567498  0.40683495  0.08016796  1
  H+  H368  1  0.43681140  0.61115128  0.88820791  1
  H+  H369  1  0.62853194  0.81012520  0.56197042  1
  H+  H370  1  0.59764758  0.12663286  0.15870942  1
  H+  H371  1  0.87651485  0.63438232  0.85151942  1
  H+  H372  1  0.58344254  0.41070948  0.44220859  1
  H+  H373  1  0.16185533  0.32700658  0.58823380  1
  H+  H374  1  0.07488952  0.40198403  0.08434339  1
  H+  H375  1  0.66589685  0.32863993  0.94175688  1
  H+  H376  1  0.66293806  0.82765729  0.89785712  1
  H+  H377  1  0.18406450  0.84601109  0.60066530  1
  H+  H378  1  0.45519882  0.33908162  0.88333730  1
  H+  H379  1  0.17333149  0.11467842  0.91833535  1
  H+  H380  1  0.13811013  0.05825659  0.25451928  1
  H+  H381  1  0.14683590  0.87318202  0.85349805  1
  H+  H382  1  0.56859454  0.16647229  0.77213813  1
  H+  H383  1  0.29313229  0.39269651  0.17873418  1
  O2-  O384  1  0.07337646  0.15322209  0.13685185  1
  O2-  O385  1  0.05786326  0.15859234  0.46205520  1
  O2-  O386  1  0.06639455  0.18071488  0.79881925  1
  O2-  O387  1  0.07279111  0.40152019  0.13022397  1
  O2-  O388  1  0.09329354  0.42939532  0.46554791  1
  O2-  O389  1  0.03618087  0.39518569  0.81411224  1
  O2-  O390  1  0.08656121  0.66373880  0.15445927  1
  O2-  O391  1  0.08791264  0.67800921  0.48269232  1
  O2-  O392  1  0.07619579  0.67467224  0.82670348  1
  O2-  O393  1  0.05935049  0.87591654  0.14938914  1
  O2-  O394  1  0.11084911  0.92964494  0.47024669  1
  O2-  O395  1  0.09502429  0.91934950  0.82280112  1
  O2-  O396  1  0.32730409  0.15443940  0.12964273  1
  O2-  O397  1  0.34929958  0.18879431  0.48264119  1
  O2-  O398  1  0.31841216  0.11278103  0.81174134  1
  O2-  O399  1  0.35255988  0.42824723  0.16481941  1
  O2-  O400  1  0.32564240  0.40575661  0.46722105  1
  O2-  O401  1  0.33901442  0.42452699  0.81501662  1
  O2-  O402  1  0.32215520  0.66536807  0.13990608  1
  O2-  O403  1  0.33450679  0.66109159  0.48677903  1
  O2-  O404  1  0.29645791  0.63084120  0.81291735  1
  O2-  O405  1  0.32910463  0.91485766  0.15543367  1
  O2-  O406  1  0.36487940  0.93913600  0.47313315  1
  O2-  O407  1  0.34640215  0.94040765  0.82431910  1
  O2-  O408  1  0.56515146  0.15431848  0.14299208  1
  O2-  O409  1  0.58914515  0.17428270  0.48652795  1
  O2-  O410  1  0.56445880  0.16953570  0.81689195  1
  O2-  O411  1  0.62753671  0.43005609  0.14302824  1
  O2-  O412  1  0.59056582  0.41163840  0.48747389  1
  O2-  O413  1  0.63003919  0.44800490  0.81489775  1
  O2-  O414  1  0.60072978  0.67071074  0.13381600  1
  O2-  O415  1  0.56764303  0.64655464  0.48204336  1
  O2-  O416  1  0.58703070  0.66383146  0.79898298  1
  O2-  O417  1  0.57258528  0.91184297  0.16001013  1
  O2-  O418  1  0.54730860  0.91773933  0.49717101  1
  O2-  O419  1  0.55518562  0.86434561  0.79861274  1
  O2-  O420  1  0.82532097  0.16563459  0.13846128  1
  O2-  O421  1  0.82626973  0.18339495  0.48005742  1
  O2-  O422  1  0.80173456  0.13462956  0.84487138  1
  O2-  O423  1  0.81787302  0.40212191  0.20407550  1
  O2-  O424  1  0.84697537  0.41392082  0.48715324  1
  O2-  O425  1  0.83569156  0.39363009  0.83454239  1
  O2-  O426  1  0.83730066  0.66468713  0.13555826  1
  O2-  O427  1  0.81695020  0.61581164  0.47467645  1
  O2-  O428  1  0.84792549  0.67491150  0.83453897  1
  O2-  O429  1  0.83027498  0.91433089  0.15428286  1
  O2-  O430  1  0.88610929  0.95406352  0.47006429  1
  O2-  O431  1  0.83807123  0.91447699  0.83129876  1
  O2-  O432  1  0.14567179  0.04646721  0.11873125  1
  O2-  O433  1  0.18213100  0.08112172  0.53155299  1
  O2-  O434  1  0.17632407  0.13570518  0.84664302  1
  O2-  O435  1  0.15968686  0.31854525  0.17527708  1
  O2-  O436  1  0.15893567  0.32749979  0.50993896  1
  O2-  O437  1  0.16813664  0.34268745  0.84915464  1
  O2-  O438  1  0.15268986  0.55739850  0.18098134  1
  O2-  O439  1  0.16709889  0.58848462  0.51721827  1
  O2-  O440  1  0.13806827  0.56462570  0.85251386  1
  O2-  O441  1  0.16830819  0.82710855  0.19490622  1
  O2-  O442  1  0.18859273  0.84472135  0.51804344  1
  O2-  O443  1  0.17711108  0.84437239  0.87219714  1
  O2-  O444  1  0.40804854  0.08282693  0.19366529  1
  O2-  O445  1  0.42427872  0.10364464  0.52432707  1
  O2-  O446  1  0.39707276  0.02881524  0.84847120  1
  O2-  O447  1  0.42868376  0.32708098  0.18070848  1
  O2-  O448  1  0.43034067  0.36113387  0.54476099  1
  O2-  O449  1  0.45752186  0.37057360  0.84378082  1
  O2-  O450  1  0.42393031  0.60359798  0.16748498  1
  O2-  O451  1  0.40163536  0.56059604  0.52169946  1
  O2-  O452  1  0.42626791  0.59541682  0.84462831  1
  O2-  O453  1  0.40351490  0.82492575  0.18990822  1
  O2-  O454  1  0.38858394  0.81389069  0.54693160  1
  O2-  O455  1  0.42054726  0.86004430  0.85350271  1
  O2-  O456  1  0.65937742  0.08446381  0.18637414  1
  O2-  O457  1  0.65148867  0.07558166  0.53682790  1
  O2-  O458  1  0.71452412  0.06115028  0.85324109  1
  O2-  O459  1  0.64783211  0.31140216  0.19710247  1
  O2-  O460  1  0.68095997  0.33651279  0.53061216  1
  O2-  O461  1  0.66813486  0.32498216  0.86365427  1
  O2-  O462  1  0.66967842  0.57465677  0.19147485  1
  O2-  O463  1  0.66252265  0.57832698  0.52563074  1
  O2-  O464  1  0.75370665  0.62523370  0.83835306  1
  O2-  O465  1  0.65915154  0.82741619  0.18551274  1
  O2-  O466  1  0.62197978  0.81259566  0.51663336  1
  O2-  O467  1  0.66952199  0.82273476  0.85397032  1
  O2-  O468  1  0.91162595  0.08678657  0.18185969  1
  O2-  O469  1  0.90565265  0.09647870  0.53685305  1
  O2-  O470  1  0.91680602  0.07377936  0.85621577  1
  O2-  O471  1  0.89753636  0.34002529  0.13156131  1
  O2-  O472  1  0.91297581  0.32456708  0.54515191  1
  O2-  O473  1  0.86692056  0.33255601  0.84378140  1
  O2-  O474  1  0.91832701  0.58258947  0.19032762  1
  O2-  O475  1  0.92544154  0.57775980  0.53107152  1
  O2-  O476  1  0.91966521  0.59584799  0.86424364  1
  O2-  O477  1  0.90229527  0.82053200  0.18897800  1
  O2-  O478  1  0.95786819  0.78972928  0.50373110  1
  O2-  O479  1  0.92349483  0.84052705  0.87017923  1
  O2-  O480  1  0.08072843  0.02541553  0.27153607  1
  O2-  O481  1  0.17682229  0.07548605  0.64385006  1
  O2-  O482  1  0.17553210  0.10594011  0.96365545  1
  O2-  O483  1  0.19755204  0.36507306  0.29805115  1
  O2-  O484  1  0.15183505  0.32555039  0.63314280  1
  O2-  O485  1  0.14572794  0.31948058  0.96845322  1
  O2-  O486  1  0.17939620  0.61352504  0.31644860  1
  O2-  O487  1  0.17411576  0.59742790  0.63650228  1
  O2-  O488  1  0.14318698  0.56354160  0.97168810  1
  O2-  O489  1  0.16446635  0.82855588  0.31494130  1
  O2-  O490  1  0.17595484  0.84156424  0.64550274  1
  O2-  O491  1  0.15861799  0.84729976  0.99159828  1
  O2-  O492  1  0.41909158  0.09263435  0.31554672  1
  O2-  O493  1  0.41658631  0.08473579  0.65089019  1
  O2-  O494  1  0.41018954  0.06310168  0.97365306  1
  O2-  O495  1  0.42609146  0.33668355  0.31020607  1
  O2-  O496  1  0.41100919  0.32740619  0.66235280  1
  O2-  O497  1  0.46265802  0.29104115  0.94081018  1
  O2-  O498  1  0.41434022  0.58487292  0.32562946  1
  O2-  O499  1  0.39951556  0.56855490  0.64757773  1
  O2-  O500  1  0.46774464  0.66607700  0.96125536  1
  O2-  O501  1  0.40648220  0.82842588  0.31168910  1
  O2-  O502  1  0.40689285  0.83264199  0.66799451  1
  O2-  O503  1  0.43092639  0.79173016  0.96734185  1
  O2-  O504  1  0.67209913  0.09233981  0.31147763  1
  O2-  O505  1  0.67210554  0.09094858  0.66132523  1
  O2-  O506  1  0.66072595  0.07337556  0.97394468  1
  O2-  O507  1  0.67817800  0.36042379  0.31044586  1
  O2-  O508  1  0.66588953  0.33522077  0.65639430  1
  O2-  O509  1  0.66568679  0.32686457  0.98732432  1
  O2-  O510  1  0.63791375  0.57397737  0.31672771  1
  O2-  O511  1  0.65672849  0.57352659  0.64955669  1
  O2-  O512  1  0.70067468  0.62990297  0.95332083  1
  O2-  O513  1  0.66071098  0.82652053  0.30986697  1
  O2-  O514  1  0.65288954  0.79804499  0.63384044  1
  O2-  O515  1  0.69041882  0.88379752  0.97769989  1
  O2-  O516  1  0.89686556  0.06860667  0.30300558  1
  O2-  O517  1  0.95054243  0.15085126  0.65668874  1
  O2-  O518  1  0.89906187  0.06659998  0.99363280  1
  O2-  O519  1  0.94384712  0.34784027  0.30826465  1
  O2-  O520  1  0.88518113  0.32167415  0.66370709  1
  O2-  O521  1  0.89726247  0.31869207  0.96249003  1
  O2-  O522  1  0.91561221  0.58161497  0.31302885  1
  O2-  O523  1  0.92962951  0.57993172  0.65374019  1
  O2-  O524  1  0.92044986  0.56406740  0.98640635  1
  O2-  O525  1  0.90012683  0.81718669  0.31102640  1
  O2-  O526  1  0.91559698  0.83745939  0.67909626  1
  O2-  O527  1  0.93566458  0.86263739  0.98281103  1
  O2-  O528  1  0.06988521  0.15869375  0.01029544  1
  O2-  O529  1  0.05203689  0.13819728  0.33821217  1
  O2-  O530  1  0.03661665  0.16748101  0.67392774  1
  O2-  O531  1  0.06179563  0.39831815  0.00811133  1
  O2-  O532  1  0.10231900  0.43388967  0.34496870  1
  O2-  O533  1  0.04986563  0.40002511  0.61360086  1
  O2-  O534  1  0.12184794  0.69084225  0.03462219  1
  O2-  O535  1  0.07759082  0.66828698  0.35913476  1
  O2-  O536  1  0.10398105  0.67294992  0.67740930  1
  O2-  O537  1  0.09395351  0.94640446  0.01331336  1
  O2-  O538  1  0.06829231  0.89902225  0.34666465  1
  O2-  O539  1  0.09547185  0.92205983  0.69178304  1
  O2-  O540  1  0.33800744  0.15807307  0.00580240  1
  O2-  O541  1  0.38952466  0.20272145  0.36763081  1
  O2-  O542  1  0.32873054  0.15752135  0.69227156  1
  O2-  O543  1  0.24877864  0.34441999  0.06120232  1
  O2-  O544  1  0.34591819  0.42471082  0.34382764  1
  O2-  O545  1  0.31857762  0.40267168  0.69074243  1
  O2-  O546  1  0.28025168  0.69784661  0.02794126  1
  O2-  O547  1  0.34112976  0.67135096  0.36293878  1
  O2-  O548  1  0.32250169  0.65733748  0.68585124  1
  O2-  O549  1  0.32178680  0.91442612  0.03789926  1
  O2-  O550  1  0.33364500  0.92003619  0.35400167  1
  O2-  O551  1  0.33430253  0.92399067  0.70002730  1
  O2-  O552  1  0.57377400  0.15522691  0.01515778  1
  O2-  O553  1  0.58429576  0.17044858  0.36161214  1
  O2-  O554  1  0.57716165  0.16558912  0.69158456  1
  O2-  O555  1  0.56885452  0.39660882  0.03417783  1
  O2-  O556  1  0.57875875  0.41703437  0.36392534  1
  O2-  O557  1  0.58048839  0.41402124  0.69570368  1
  O2-  O558  1  0.62363725  0.70786236  0.00732720  1
  O2-  O559  1  0.56996395  0.66416318  0.36072402  1
  O2-  O560  1  0.56578074  0.65098593  0.68396982  1
  O2-  O561  1  0.57751052  0.91882180  0.02647476  1
  O2-  O562  1  0.58114459  0.91830403  0.29909886  1
  O2-  O563  1  0.66806846  0.94491208  0.69768924  1
  O2-  O564  1  0.82193754  0.15940107  0.01552916  1
  O2-  O565  1  0.84040297  0.17411861  0.34758079  1
  O2-  O566  1  0.82594688  0.16830690  0.72156982  1
  O2-  O567  1  0.83346285  0.39667002  0.02860258  1
  O2-  O568  1  0.85061327  0.41734108  0.36291776  1
  O2-  O569  1  0.82424340  0.41904384  0.71096168  1
  O2-  O570  1  0.85546727  0.66074669  0.01189225  1
  O2-  O571  1  0.80245845  0.64331561  0.29631770  1
  O2-  O572  1  0.79777278  0.68087753  0.72362278  1
  O2-  O573  1  0.84673776  0.91982336  0.03291825  1
  O2-  O574  1  0.82628839  0.91213844  0.34670880  1
  O2-  O575  1  0.81503342  0.91054966  0.70804086  1
