# generated using pymatgen
data_H2O
_symmetry_space_group_name_H-M   'P 1'
_cell_length_a   17.98560211
_cell_length_b   17.98178246
_cell_length_c   21.99652168
_cell_angle_alpha   89.98927814
_cell_angle_beta   89.99646854
_cell_angle_gamma   119.99854247
_symmetry_Int_Tables_number   1
_chemical_formula_structural   H2O
_chemical_formula_sum   'H384 O192'
_cell_volume   6160.96479517
_cell_formula_units_Z   192
loop_
 _symmetry_equiv_pos_site_id
 _symmetry_equiv_pos_as_xyz
  1  'x, y, z'
loop_
 _atom_type_symbol
 _atom_type_oxidation_number
  H+  1.0
  O2-  -2.0
loop_
 _atom_site_type_symbol
 _atom_site_label
 _atom_site_symmetry_multiplicity
 _atom_site_fract_x
 _atom_site_fract_y
 _atom_site_fract_z
 _atom_site_occupancy
  H+  H0  1  0.54273534  0.38098599  -0.00843487  1
  H+  H1  1  0.63105566  0.61100862  0.33496183  1
  H+  H2  1  0.26358014  0.63054595  0.33017343  1
  H+  H3  1  0.12065034  0.12349872  0.49897273  1
  H+  H4  1  0.61542729  0.38611719  0.50286987  1
  H+  H5  1  0.24319877  0.86664537  0.01948487  1
  H+  H6  1  0.62972147  0.52835187  0.17921318  1
  H+  H7  1  0.49728786  0.86536165  0.33482506  1
  H+  H8  1  0.90458649  0.98835731  0.69630561  1
  H+  H9  1  0.12543292  -0.02224218  0.17006329  1
  H+  H10  1  0.12914403  0.15639228  0.15013379  1
  H+  H11  1  0.61822978  -0.01545057  0.16326982  1
  H+  H12  1  0.46651533  0.60929484  0.16726061  1
  H+  H13  1  0.66762335  0.83117343  0.56474970  1
  H+  H14  1  0.10097245  0.74046646  0.67236299  1
  H+  H15  1  0.86183843  0.88769607  0.79833004  1
  H+  H16  1  0.13325244  0.12063910  0.65878015  1
  H+  H17  1  0.85644762  0.48300116  0.67480052  1
  H+  H18  1  0.86950841  0.00447726  0.98427087  1
  H+  H19  1  0.17232863  0.62129720  0.89026210  1
  H+  H20  1  0.86466719  0.39978937  0.66868701  1
  H+  H21  1  0.70886762  0.62406834  0.18110175  1
  H+  H22  1  0.85922013  0.72395021  0.49287703  1
  H+  H23  1  0.14168273  0.26481088  0.51459436  1
  H+  H24  1  0.61908836  0.23341628  0.15917907  1
  H+  H25  1  0.11002006  0.71852013  0.24686279  1
  H+  H26  1  0.36207781  0.85385465  -0.00875998  1
  H+  H27  1  0.11173535  0.97094193  0.49119155  1
  H+  H28  1  0.27569668  0.80588438  0.78984830  1
  H+  H29  1  0.13943255  0.59861081  0.52677424  1
  H+  H30  1  0.13650983  0.33496551  0.03583386  1
  H+  H31  1  0.59549037  0.95585099  0.49180846  1
  H+  H32  1  0.39520079  0.28096692  0.16577386  1
  H+  H33  1  0.90316175  0.86481043  0.66697232  1
  H+  H34  1  0.15044637  0.12889544  0.32400994  1
  H+  H35  1  0.64427896  0.11544708  0.98986040  1
  H+  H36  1  0.88332314  0.85676729  0.49762473  1
  H+  H37  1  0.72748229  0.87492798  0.66265567  1
  H+  H38  1  0.03299517  0.65504408  0.29081645  1
  H+  H39  1  0.85475293  0.74203319  0.98853138  1
  H+  H40  1  0.89316813  0.52593464  0.32070489  1
  H+  H41  1  0.83415293  0.41951081  0.76538718  1
  H+  H42  1  0.15662087  0.32492859  0.57357522  1
  H+  H43  1  0.36199608  0.97434986  0.49371788  1
  H+  H44  1  0.13198949  0.24798629  0.01276658  1
  H+  H45  1  0.70858238  0.47446339  0.03133374  1
  H+  H46  1  0.64594547  0.37123799  0.17690322  1
  H+  H47  1  0.23460707  0.12639845  0.16862370  1
  H+  H48  1  0.63418085  0.86300789  0.66140673  1
  H+  H49  1  0.62117192  0.48691944  0.49938133  1
  H+  H50  1  0.56844555  0.90506323  0.73109763  1
  H+  H51  1  0.86486693  -0.02732288  0.15792253  1
  H+  H52  1  0.13457342  0.27862525  0.84053188  1
  H+  H53  1  0.62807507  0.86073981  0.32194780  1
  H+  H54  1  0.84009102  0.18084129  0.66595164  1
  H+  H55  1  0.33304952  0.42761932  0.47139251  1
  H+  H56  1  0.51981771  0.38878483  0.50482168  1
  H+  H57  1  0.64062867  0.86135493  0.84043591  1
  H+  H58  1  0.90873911  0.33466568  0.93483879  1
  H+  H59  1  0.72435993  0.36608421  0.65983060  1
  H+  H60  1  0.87638106  0.08622549  0.66769253  1
  H+  H61  1  -0.01729131  0.11877672  0.16635913  1
  H+  H62  1  0.27195145  0.88568154  0.49281155  1
  H+  H63  1  0.88539211  0.52768205  0.83635401  1
  H+  H64  1  0.27272997  0.37204737  0.01736943  1
  H+  H65  1  0.88392595  0.35784345  0.17140881  1
  H+  H66  1  0.35053193  0.46297518  -0.00674933  1
  H+  H67  1  0.08340647  0.65464717  0.46877338  1
  H+  H68  1  0.10716064  0.64783086  0.81999755  1
  H+  H69  1  0.11367823  0.37784176  0.49255632  1
  H+  H70  1  0.10456872  0.76477400  0.84931088  1
  H+  H71  1  0.36827370  0.24290414  0.81543365  1
  H+  H72  1  0.36319317  0.63877714  0.48931038  1
  H+  H73  1  0.84032613  0.64123372  0.15082069  1
  H+  H74  1  0.89810281  0.61820114  0.99168484  1
  H+  H75  1  0.10620827  0.98088834  0.82235882  1
  H+  H76  1  0.41463208  0.82854162  0.58757867  1
  H+  H77  1  0.56511778  0.96013774  0.35129762  1
  H+  H78  1  0.88318763  0.01611646  0.81534480  1
  H+  H79  1  0.78075259  0.38911799  0.34012149  1
  H+  H80  1  0.39282648  0.10194395  0.67126093  1
  H+  H81  1  0.32885159  0.65515209  0.10894093  1
  H+  H82  1  0.87788935  0.24190515  0.49250799  1
  H+  H83  1  0.77248347  0.63885949  0.66859580  1
  H+  H84  1  0.32925684  0.91074559  0.10613131  1
  H+  H85  1  0.03474060  0.89387378  0.16935714  1
  H+  H86  1  0.59535242  0.96514722  0.67097821  1
  H+  H87  1  0.77778258  0.39002729  0.49358032  1
  H+  H88  1  0.12582194  0.83820963  0.17983458  1
  H+  H89  1  0.13942150  0.36898205  0.84641481  1
  H+  H90  1  1.02208756  0.13420995  0.82380893  1
  H+  H91  1  0.36641325  0.48366263  0.17177385  1
  H+  H92  1  0.59836176  0.63997549  0.15631966  1
  H+  H93  1  0.26733774  0.62437505  0.16639881  1
  H+  H94  1  0.63784798  0.35005576  0.98863095  1
  H+  H95  1  0.66519192  0.58471340  0.88836429  1
  H+  H96  1  0.37191890  0.75918927  0.31658621  1
  H+  H97  1  0.60103700  0.63209684  0.83419896  1
  H+  H98  1  0.14249858  0.36743639  0.32879205  1
  H+  H99  1  0.46107879  0.34638528  0.97675130  1
  H+  H100  1  0.48125721  0.62140294  0.50876784  1
  H+  H101  1  0.30805964  0.96563001  0.02727069  1
  H+  H102  1  0.12546525  0.45407537  0.01838795  1
  H+  H103  1  0.86314107  0.97374022  0.33188631  1
  H+  H104  1  0.11387138  0.49249200  0.83374401  1
  H+  H105  1  -0.02556806  0.61365946  0.52189845  1
  H+  H106  1  0.36838446  -0.02188624  0.16200372  1
  H+  H107  1  0.89792953  0.28605857  0.83898356  1
  H+  H108  1  0.01597264  0.37419857  0.16642354  1
  H+  H109  1  0.54233188  0.63978600  0.67716607  1
  H+  H110  1  0.87402627  0.77668356  0.82820271  1
  H+  H111  1  0.14611339  0.28053228  0.17836186  1
  H+  H112  1  0.47916583  0.11369523  0.32372662  1
  H+  H113  1  0.80336590  0.62631114  0.02753201  1
  H+  H114  1  0.87793505  0.27067194  -0.00834034  1
  H+  H115  1  0.62481522  0.10638163  0.65846743  1
  H+  H116  1  0.23219671  0.60474151  1.00011971  1
  H+  H117  1  0.61564739  0.89293308  0.16302613  1
  H+  H118  1  0.37890226  0.85342941  0.31970244  1
  H+  H119  1  0.48053760  0.37231594  0.66388291  1
  H+  H120  1  0.48054320  0.11666261  0.16949263  1
  H+  H121  1  0.02279781  0.88220400  0.49074194  1
  H+  H122  1  0.98555757  0.37757041  0.84177495  1
  H+  H123  1  0.61259025  0.13967293  0.49417572  1
  H+  H124  1  0.11563193  0.22866508  0.34676829  1
  H+  H125  1  0.39259745  0.53811130  0.52560529  1
  H+  H126  1  0.37375104  -0.02324985  0.33660423  1
  H+  H127  1  0.08487667  0.87920772  1.02162105  1
  H+  H128  1  0.12106732  0.74452534  0.01466587  1
  H+  H129  1  0.37031739  0.14364011  0.15518677  1
  H+  H130  1  0.58362999  0.41613788  0.73240857  1
  H+  H131  1  0.47600856  0.36558084  0.83305536  1
  H+  H132  1  0.39158304  0.26516512  0.32394485  1
  H+  H133  1  0.52267901  0.87637481  0.82509563  1
  H+  H134  1  1.01160101  0.63795322  0.82418724  1
  H+  H135  1  0.61598321  0.47752071  0.67291598  1
  H+  H136  1  0.88731322  0.61111946  0.31740943  1
  H+  H137  1  0.32303884  0.66063367  0.39048348  1
  H+  H138  1  0.63554289  0.60661408  0.50005028  1
  H+  H139  1  0.67400307  0.03610151  0.31214826  1
  H+  H140  1  0.13824194  0.87286322  0.66160334  1
  H+  H141  1  0.36910327  0.97022257  0.66310423  1
  H+  H142  1  0.03033768  0.13718037  0.34369120  1
  H+  H143  1  0.51341322  0.63499192  0.83537526  1
  H+  H144  1  0.62150480  0.13884129  0.33867810  1
  H+  H145  1  0.13769756  0.62011974  0.30594526  1
  H+  H146  1  0.39902767  0.53950018  0.66648444  1
  H+  H147  1  0.48972182  0.87952208  0.17166231  1
  H+  H148  1  0.85570275  0.38199860  0.00305488  1
  H+  H149  1  0.10300717  -0.03667592  0.98903227  1
  H+  H150  1  0.10600270  0.61754967  0.01005202  1
  H+  H151  1  0.64383813  0.36371944  0.32801655  1
  H+  H152  1  0.13638071  0.79594796  0.32543878  1
  H+  H153  1  0.01431439  0.90383138  0.33404522  1
  H+  H154  1  0.37279227  0.35343460  0.98029323  1
  H+  H155  1  0.34959929  0.71876958  0.01234891  1
  H+  H156  1  0.77068151  0.88776710  0.33092446  1
  H+  H157  1  0.60662991  0.96955370  0.82163236  1
  H+  H158  1  0.87007791  0.39003295  0.34093763  1
  H+  H159  1  0.34640081  0.16533491  0.63154815  1
  H+  H160  1  0.36057325  0.39774985  0.66893180  1
  H+  H161  1  0.35476689  0.38652593  0.81907886  1
  H+  H162  1  0.22621981  0.60178799  0.50802050  1
  H+  H163  1  0.78477247  0.39581930  0.15955108  1
  H+  H164  1  0.94158723  0.62177043  0.15670619  1
  H+  H165  1  0.88067299  0.10192284  0.82709846  1
  H+  H166  1  0.62533675  0.23472935  0.82578012  1
  H+  H167  1  0.37153051  0.61124376  0.82017558  1
  H+  H168  1  0.26319227  0.38305997  0.82352820  1
  H+  H169  1  0.61712058  0.72048588  0.49496517  1
  H+  H170  1  0.27161579  0.12858650  0.50149890  1
  H+  H171  1  0.18345427  0.84855779  0.87719076  1
  H+  H172  1  0.35142248  0.72015022  0.48851162  1
  H+  H173  1  0.08922914  0.62974665  0.15962662  1
  H+  H174  1  0.09208130  0.88641109  0.83095526  1
  H+  H175  1  0.36808695  0.38258636  0.30697992  1
  H+  H176  1  0.39075534  0.88007864  0.16862546  1
  H+  H177  1  0.39787740  0.85337246  0.83865827  1
  H+  H178  1  0.77425658  0.13363763  0.00067212  1
  H+  H179  1  0.35929149  0.63451716  0.00798820  1
  H+  H180  1  0.88589553  0.52512018  0.51088121  1
  H+  H181  1  0.29268851  0.89427279  0.81617204  1
  H+  H182  1  0.86426106  0.72891523  0.66851900  1
  H+  H183  1  0.61258242  0.38266363  0.82555028  1
  H+  H184  1  0.62677659  0.10640414  0.84078166  1
  H+  H185  1  0.36160262  0.22184174  0.49431205  1
  H+  H186  1  0.78639005  0.15904202  0.48837589  1
  H+  H187  1  0.86202254  0.64143154  0.82399727  1
  H+  H188  1  0.86041441  0.63538150  0.49649748  1
  H+  H189  1  0.11515587  0.48103158  0.33547513  1
  H+  H190  1  0.38391887  0.85929009  0.65129601  1
  H+  H191  1  0.11634055  -0.01472016  0.67180327  1
  H+  H192  1  0.11445047  0.72553438  0.51852922  1
  H+  H193  1  0.27067075  0.38523211  0.17680717  1
  H+  H194  1  0.23035063  0.36323156  0.31655822  1
  H+  H195  1  0.25905484  0.14222160  0.66350094  1
  H+  H196  1  0.61652176  0.22948280  0.67131742  1
  H+  H197  1  0.35426023  0.22169790  -0.00269828  1
  H+  H198  1  0.72343189  0.60849293  0.82942296  1
  H+  H199  1  0.32473736  0.41925324  0.72866882  1
  H+  H200  1  1.05981260  0.43728142  0.67658285  1
  H+  H201  1  0.13510599  0.86011973  0.50308058  1
  H+  H202  1  0.37711777  0.85983145  0.50741532  1
  H+  H203  1  0.37259164  0.60338785  0.17266192  1
  H+  H204  1  0.38656044  0.28699051  0.66072730  1
  H+  H205  1  0.36519887  0.13934013  1.00032383  1
  H+  H206  1  0.89539728  0.11549119  0.32309375  1
  H+  H207  1  0.02301906  0.13872507  0.67583705  1
  H+  H208  1  0.61387366  0.47557436  0.34227523  1
  H+  H209  1  0.61050410  0.72618433  0.33916356  1
  H+  H210  1  0.48586502  0.11304076  0.66450969  1
  H+  H211  1  0.22509645  0.87501039  0.33868904  1
  H+  H212  1  0.77170865  0.87378082  0.48541178  1
  H+  H213  1  1.00123072  0.10037695  0.99005841  1
  H+  H214  1  0.83157488  0.86010101  1.00255296  1
  H+  H215  1  0.13221318  0.27694851  0.66603339  1
  H+  H216  1  0.87802746  0.85443464  0.31901783  1
  H+  H217  1  0.73286848  0.67674041  0.96455093  1
  H+  H218  1  0.64347920  0.27455730  0.32667381  1
  H+  H219  1  0.98733248  0.37066992  0.50206669  1
  H+  H220  1  0.71505151  0.04569668  0.52525729  1
  H+  H221  1  0.53132783  0.15321811  0.82190965  1
  H+  H222  1  0.77736253  0.13561466  0.15327295  1
  H+  H223  1  0.64226417  0.12199637  0.16861488  1
  H+  H224  1  0.90330364  0.12488482  0.51569208  1
  H+  H225  1  0.10940197  0.38391092  0.16855907  1
  H+  H226  1  0.48150579  0.35446562  0.32487209  1
  H+  H227  1  0.38726201  0.11483724  0.50506859  1
  H+  H228  1  0.52294542  0.13743624  0.49347053  1
  H+  H229  1  0.23534912  0.64506472  0.68380540  1
  H+  H230  1  0.38746744  0.76203490  0.84015279  1
  H+  H231  1  0.22952137  0.63685769  0.82860742  1
  H+  H232  1  0.88173139  0.26702340  0.17198730  1
  H+  H233  1  0.86870874  0.39332753  0.82513478  1
  H+  H234  1  0.36871456  0.47262255  0.30791991  1
  H+  H235  1  0.39217617  0.14139028  0.82629358  1
  H+  H236  1  0.38458387  0.61183876  0.32249578  1
  H+  H237  1  0.62788156  0.84921376  0.50550297  1
  H+  H238  1  0.74771609  0.13673410  0.82311762  1
  H+  H239  1  0.39574369  0.05445067  0.82868387  1
  H+  H240  1  0.63463945  0.77167058  0.85178939  1
  H+  H241  1  0.62805724  0.22879817  0.00540918  1
  H+  H242  1  0.36997770  0.70507562  0.72583893  1
  H+  H243  1  1.00058678  0.64467227  0.67254830  1
  H+  H244  1  0.39863069  0.37321692  0.51754913  1
  H+  H245  1  0.98632680  0.11495050  0.51762660  1
  H+  H246  1  0.90836761  0.78016083  0.16332185  1
  H+  H247  1  0.36738549  0.38806107  0.17152379  1
  H+  H248  1  0.11976516  0.39595719  0.68201297  1
  H+  H249  1  0.73358326  0.36722068  0.83689945  1
  H+  H250  1  0.60559343  0.43763288  0.01437440  1
  H+  H251  1  0.27496911  0.13448400  0.33651954  1
  H+  H252  1  1.01874613  0.61896064  1.00532256  1
  H+  H253  1  0.60474456  0.64839131  0.99880379  1
  H+  H254  1  0.83764168  0.42096997  0.43411501  1
  H+  H255  1  0.27314942  0.38312835  0.52596661  1
  H+  H256  1  0.11919546  0.46946614  0.49541516  1
  H+  H257  1  0.87796405  0.61786212  0.66272182  1
  H+  H258  1  0.95940584  0.86720425  0.83444505  1
  H+  H259  1  0.88136667  0.47886794  0.15411066  1
  H+  H260  1  0.86230659  0.88226258  0.15787386  1
  H+  H261  1  0.22760400  0.11889650  0.82657591  1
  H+  H262  1  0.93874517  0.32668911  0.65910006  1
  H+  H263  1  0.63224159  0.77711784  0.16735023  1
  H+  H264  1  0.43450212  0.60608027  0.61267841  1
  H+  H265  1  0.89233363  0.11439028  0.16697010  1
  H+  H266  1  0.59965680  0.73326522  0.00335682  1
  H+  H267  1  0.63371158  0.36333156  0.66066976  1
  H+  H268  1  0.11378792  0.13964456  0.82397173  1
  H+  H269  1  0.73550920  0.36419199  -0.00542063  1
  H+  H270  1  0.61845577  0.89680399  0.00487602  1
  H+  H271  1  0.87601397  0.23626578  0.33642341  1
  H+  H272  1  0.46394177  0.85260504  0.50434839  1
  H+  H273  1  0.46675762  0.61303307  0.98411982  1
  H+  H274  1  0.83393782  0.66206185  0.39768854  1
  H+  H275  1  0.64329556  0.61432534  0.65973991  1
  H+  H276  1  0.98551815  0.86061425  0.65474760  1
  H+  H277  1  0.67932128  0.57926255  0.99088787  1
  H+  H278  1  0.71504108  0.86042531  -0.00505103  1
  H+  H279  1  -0.01778284  0.36799937  0.32395478  1
  H+  H280  1  0.86071188  0.13002108  -0.00091239  1
  H+  H281  1  0.13583539  1.03623078  0.32140292  1
  H+  H282  1  0.47819884  0.85886136  0.65508326  1
  H+  H283  1  0.22635871  0.10726468  -0.01656948  1
  H+  H284  1  0.22147820  0.36711997  0.66125232  1
  H+  H285  1  0.74932504  0.12961811  0.32514075  1
  H+  H286  1  0.63161636  0.72583916  0.67294007  1
  H+  H287  1  0.20503829  0.82453059  0.17847838  1
  H+  H288  1  0.94002088  0.57928979  0.21941712  1
  H+  H289  1  0.52090865  0.63791023  0.33922688  1
  H+  H290  1  0.41432043  0.03760253  0.97174173  1
  H+  H291  1  0.08182915  0.39807503  0.07627658  1
  H+  H292  1  0.08409438  0.17068092  0.73441896  1
  H+  H293  1  0.33910034  0.17181589  0.09558929  1
  H+  H294  1  0.66013889  0.83596424  0.93295268  1
  H+  H295  1  0.19608736  0.60230023  0.62083453  1
  H+  H296  1  0.07929639  0.93012178  0.38870301  1
  H+  H297  1  0.40790989  0.58667132  0.92462863  1
  H+  H298  1  0.09147861  0.15703013  0.44150036  1
  H+  H299  1  0.89861615  0.06145253  0.92305537  1
  H+  H300  1  0.65653429  0.06281448  0.56875816  1
  H+  H301  1  0.06588444  0.67875772  0.73750351  1
  H+  H302  1  0.91358502  0.82784404  0.22634987  1
  H+  H303  1  0.33240258  0.90027346  0.71687229  1
  H+  H304  1  0.16838540  0.08879424  0.59844976  1
  H+  H305  1  0.60864168  0.44194590  0.11050998  1
  H+  H306  1  0.53070925  0.39575315  0.15999406  1
  H+  H307  1  0.82984720  0.90338600  0.42576993  1
  H+  H308  1  0.41684209  0.83503689  0.22911627  1
  H+  H309  1  0.72565717  0.86291517  0.17003922  1
  H+  H310  1  0.53680129  0.14478166  0.00218226  1
  H+  H311  1  0.89786568  0.37339441  0.50297433  1
  H+  H312  1  0.41978559  0.08590418  0.22829211  1
  H+  H313  1  0.77096631  0.63212360  0.34100510  1
  H+  H314  1  0.85699969  0.79471717  0.92760494  1
  H+  H315  1  0.61358652  0.47252083  0.82397709  1
  H+  H316  1  0.93510298  0.36141731  0.59342880  1
  H+  H317  1  0.43164371  0.34206878  0.57249732  1
  H+  H318  1  0.88598978  0.68033913  0.08499597  1
  H+  H319  1  0.58418065  0.66382113  0.43411431  1
  H+  H320  1  0.09025427  0.43067516  0.77675431  1
  H+  H321  1  0.80726073  0.14322553  0.73147110  1
  H+  H322  1  0.22171751  0.86033429  0.65688785  1
  H+  H323  1  0.42038226  0.58934218  0.26311704  1
  H+  H324  1  0.59112386  0.17273251  0.73274488  1
  H+  H325  1  0.84718966  0.17658880  0.39610426  1
  H+  H326  1  0.05317949  0.11112184  0.05052942  1
  H+  H327  1  0.65708580  0.58154456  0.27480320  1
  H+  H328  1  0.11759234  0.68134764  0.39529055  1
  H+  H329  1  0.16630836  0.83972923  0.56609069  1
  H+  H330  1  0.83784718  0.16507338  0.09434644  1
  H+  H331  1  0.91557064  0.83236740  0.55922040  1
  H+  H332  1  0.08884410  0.42117101  0.39568262  1
  H+  H333  1  0.33939544  0.18140955  0.75557710  1
  H+  H334  1  0.17974283  0.53932913  0.94676933  1
  H+  H335  1  0.59034638  0.17295532  0.09962694  1
  H+  H336  1  0.67529931  0.33339684  0.89701562  1
  H+  H337  1  0.78428216  0.22224215  0.78584463  1
  H+  H338  1  0.12963415  0.81097624  0.96306120  1
  H+  H339  1  0.38833162  0.11027219  0.32502544  1
  H+  H340  1  0.19678256  0.02738099  0.54540640  1
  H+  H341  1  0.65980241  0.83271243  0.26268528  1
  H+  H342  1  0.92077726  0.07626856  0.60715559  1
  H+  H343  1  0.34364046  0.91684256  0.39623242  1
  H+  H344  1  0.37138633  0.52175460  0.82254976  1
  H+  H345  1  0.83253855  0.41722968  0.06384903  1
  H+  H346  1  0.30141595  0.46509946  0.40581099  1
  H+  H347  1  0.17482249  0.10111860  0.22745043  1
  H+  H348  1  0.58821195  0.16642198  0.39728760  1
  H+  H349  1  0.57207997  0.67009731  0.09452326  1
  H+  H350  1  0.08406563  0.92320396  0.73077567  1
  H+  H351  1  0.82760883  0.90857943  0.06348061  1
  H+  H352  1  0.66183104  0.07755681  0.89904995  1
  H+  H353  1  0.91600779  0.58578559  0.89695670  1
  H+  H354  1  0.56160390  0.89459316  0.43309241  1
  H+  H355  1  0.92549653  0.08600878  0.26410428  1
  H+  H356  1  0.40757442  0.32949852  0.88874350  1
  H+  H357  1  0.66888715  0.57937950  0.59959881  1
  H+  H358  1  0.72740357  0.60767961  0.50022860  1
  H+  H359  1  0.28725297  0.41786097  0.40360048  1
  H+  H360  1  0.17291107  0.08619701  0.88837995  1
  H+  H361  1  0.88305211  0.76794791  0.32238496  1
  H+  H362  1  0.42525570  0.33236462  0.22865731  1
  H+  H363  1  0.16965019  0.33494032  0.24057158  1
  H+  H364  1  0.88664752  0.52198880  0.98632891  1
  H+  H365  1  0.66469645  0.33562888  0.56801993  1
  H+  H366  1  0.90921356  0.58470365  0.60440223  1
  H+  H367  1  0.91667270  0.33362143  0.26672079  1
  H+  H368  1  0.41968000  0.08476645  0.56374771  1
  H+  H369  1  0.58522199  0.41338226  0.39971762  1
  H+  H370  1  0.67873337  0.09827023  0.22754560  1
  H+  H371  1  0.83203237  0.66829815  0.76306200  1
  H+  H372  1  0.43288531  0.10636331  0.92085355  1
  H+  H373  1  0.67583574  0.33709768  0.23330824  1
  H+  H374  1  0.64360061  0.02533904  0.99135314  1
  H+  H375  1  0.70521587  0.09059010  0.66034872  1
  H+  H376  1  0.13130055  0.09504540  0.97855217  1
  H+  H377  1  0.12327517  0.22419674  0.10194123  1
  H+  H378  1  0.33171084  0.15957352  0.39765537  1
  H+  H379  1  0.16569767  0.57783786  0.25727680  1
  H+  H380  1  0.63400868  0.27726075  0.50731354  1
  H+  H381  1  0.39952745  0.82205602  0.93769597  1
  H+  H382  1  0.08013872  0.63580567  0.39277499  1
  H+  H383  1  0.59497597  0.93163375  0.06448005  1
  O2-  O384  1  0.09571589  0.18517355  0.13782273  1
  O2-  O385  1  0.09303790  0.15680713  0.48701635  1
  O2-  O386  1  0.08243511  0.16965418  0.81005132  1
  O2-  O387  1  0.07426663  0.40465893  0.14851553  1
  O2-  O388  1  0.08633295  0.41039670  0.47650018  1
  O2-  O389  1  0.08532925  0.43084689  0.82253781  1
  O2-  O390  1  0.15170562  0.65534728  0.16737453  1
  O2-  O391  1  0.08178617  0.66103262  0.51298084  1
  O2-  O392  1  0.07207337  0.67513651  0.80701941  1
  O2-  O393  1  0.09677674  0.91527723  0.16367565  1
  O2-  O394  1  0.08434888  0.91006381  0.47808458  1
  O2-  O395  1  0.07107290  0.91994077  0.80819034  1
  O2-  O396  1  0.34336220  0.17739852  0.14085630  1
  O2-  O397  1  0.33357195  0.16161446  0.48095809  1
  O2-  O398  1  0.33982850  0.18034438  0.80032415  1
  O2-  O399  1  0.33374647  0.41763588  0.16003896  1
  O2-  O400  1  0.33643095  0.41997354  0.51523489  1
  O2-  O401  1  0.32223060  0.41371626  0.80348799  1
  O2-  O402  1  0.32898654  0.64979107  0.15391011  1
  O2-  O403  1  0.32678378  0.66126871  0.47180673  1
  O2-  O404  1  0.31879435  0.67394196  0.80635266  1
  O2-  O405  1  0.34128511  0.91570798  0.15085576  1
  O2-  O406  1  0.33361157  0.91369759  0.47948387  1
  O2-  O407  1  0.31740448  0.86756020  0.79106935  1
  O2-  O408  1  0.58811293  0.17224804  0.14518027  1
  O2-  O409  1  0.58448015  0.17060505  0.47895881  1
  O2-  O410  1  0.59180502  0.17392036  0.80944750  1
  O2-  O411  1  0.59473713  0.43060405  0.15438804  1
  O2-  O412  1  0.58478101  0.41877802  0.48792450  1
  O2-  O413  1  0.58101798  0.41075119  0.80926318  1
  O2-  O414  1  0.57043616  0.67156323  0.14047408  1
  O2-  O415  1  0.58612317  0.65972627  0.47955336  1
  O2-  O416  1  0.57575798  0.66807660  0.84393562  1
  O2-  O417  1  0.58386811  0.92300348  0.15018050  1
  O2-  O418  1  0.56324794  0.89480777  0.47853707  1
  O2-  O419  1  0.57910093  0.91104908  0.80351295  1
  O2-  O420  1  0.83852357  0.16514599  0.14008744  1
  O2-  O421  1  0.84629092  0.18113234  0.47661668  1
  O2-  O422  1  0.80071755  0.18038523  0.79860709  1
  O2-  O423  1  0.84192402  0.41771633  0.14025334  1
  O2-  O424  1  0.83840662  0.42098610  0.48002276  1
  O2-  O425  1  0.83471395  0.42046034  0.81085072  1
  O2-  O426  1  0.89567712  0.68391669  0.13455785  1
  O2-  O427  1  0.82776630  0.66188571  0.47906521  1
  O2-  O428  1  0.83020932  0.66985852  0.80841528  1
  O2-  O429  1  0.83026681  0.91207312  0.14406628  1
  O2-  O430  1  0.83139500  0.89959328  0.47074145  1
  O2-  O431  1  0.84796735  0.92586703  0.77158546  1
  O2-  O432  1  0.17389165  0.10099490  0.18183047  1
  O2-  O433  1  0.18753435  0.07410362  0.53234976  1
  O2-  O434  1  0.16813146  0.08769129  0.84245408  1
  O2-  O435  1  0.17824773  0.34025492  0.19499159  1
  O2-  O436  1  0.16627397  0.32570400  0.52827108  1
  O2-  O437  1  0.17061022  0.33807518  0.85567881  1
  O2-  O438  1  0.16326536  0.58767258  0.18258766  1
  O2-  O439  1  0.16975225  0.56553390  0.52847870  1
  O2-  O440  1  0.16635895  0.60954420  0.84647201  1
  O2-  O441  1  0.14302589  0.79368975  0.18477921  1
  O2-  O442  1  0.16814738  0.83337370  0.52124375  1
  O2-  O443  1  0.12140355  0.81895196  0.87289029  1
  O2-  O444  1  0.41910235  0.08505488  0.18275816  1
  O2-  O445  1  0.41999328  0.08506904  0.51880596  1
  O2-  O446  1  0.42546355  0.11315995  0.84397890  1
  O2-  O447  1  0.42480161  0.34067895  0.18343868  1
  O2-  O448  1  0.43317424  0.34429817  0.52624070  1
  O2-  O449  1  0.41318902  0.33461237  0.84299113  1
  O2-  O450  1  0.40875496  0.57480616  0.18668492  1
  O2-  O451  1  0.42315148  0.60165678  0.52649378  1
  O2-  O452  1  0.40074640  0.58202445  0.83801098  1
  O2-  O453  1  0.42574056  0.84898872  0.18397530  1
  O2-  O454  1  0.40481149  0.82610083  0.52286216  1
  O2-  O455  1  0.42454211  0.82272710  0.85710883  1
  O2-  O456  1  0.67249343  0.09081571  0.18280365  1
  O2-  O457  1  0.66828197  0.05853353  0.52417814  1
  O2-  O458  1  0.65809820  0.07588913  0.85264352  1
  O2-  O459  1  0.67533560  0.33867912  0.18779235  1
  O2-  O460  1  0.66299364  0.33795638  0.52209239  1
  O2-  O461  1  0.67242441  0.33375900  0.85163918  1
  O2-  O462  1  0.64989771  0.58853272  0.19496081  1
  O2-  O463  1  0.66502651  0.57403803  0.51428488  1
  O2-  O464  1  0.66284529  0.57295915  0.84387771  1
  O2-  O465  1  0.66484919  0.83616928  0.18519156  1
  O2-  O466  1  0.66274616  0.82395016  0.51976078  1
  O2-  O467  1  0.66931176  0.83469292  0.86188865  1
  O2-  O468  1  0.92371129  0.08543195  0.18290861  1
  O2-  O469  1  0.92951602  0.09558563  0.53684106  1
  O2-  O470  1  0.90817228  0.06998376  0.84072964  1
  O2-  O471  1  0.90886878  0.32513227  0.19121982  1
  O2-  O472  1  0.92714113  0.34281614  0.51952530  1
  O2-  O473  1  0.92216385  0.34536675  0.85326869  1
  O2-  O474  1  0.95341159  0.57820090  0.17573340  1
  O2-  O475  1  0.91074926  0.58351535  0.52941118  1
  O2-  O476  1  0.91553793  0.58850809  0.85054815  1
  O2-  O477  1  0.91783857  0.83539822  0.18110070  1
  O2-  O478  1  0.91501818  0.82717213  0.51435137  1
  O2-  O479  1  0.89657170  0.83700434  0.84263118  1
  O2-  O480  1  0.17716445  0.09682535  0.30608972  1
  O2-  O481  1  0.16485774  0.09040198  0.64582392  1
  O2-  O482  1  0.17079792  0.07626778  0.96129412  1
  O2-  O483  1  0.16567159  0.33018066  0.31470706  1
  O2-  O484  1  0.15946391  0.33639270  0.64857769  1
  O2-  O485  1  0.16307533  0.29633328  1.04102384  1
  O2-  O486  1  0.16394720  0.58239230  0.30320680  1
  O2-  O487  1  0.20005887  0.64522504  0.64990573  1
  O2-  O488  1  0.17284077  0.57038315  0.98047192  1
  O2-  O489  1  0.16355993  0.85357507  0.34391428  1
  O2-  O490  1  0.16008529  0.83410949  0.64595528  1
  O2-  O491  1  0.14826107  0.80863603  1.00457724  1
  O2-  O492  1  0.41953547  0.08165143  0.30783244  1
  O2-  O493  1  0.42439773  0.07878720  0.64952807  1
  O2-  O494  1  0.43493673  0.09868267  0.96587467  1
  O2-  O495  1  0.42371364  0.32416096  0.30576076  1
  O2-  O496  1  0.42148022  0.34662542  0.64529841  1
  O2-  O497  1  0.39797063  0.31693023  0.96332140  1
  O2-  O498  1  0.42147762  0.58810051  0.30875864  1
  O2-  O499  1  0.43884371  0.60088075  0.65698436  1
  O2-  O500  1  0.40596285  0.58213038  0.96964076  1
  O2-  O501  1  0.40635680  0.82088682  0.30197554  1
  O2-  O502  1  0.41706860  0.83020645  0.63605373  1
  O2-  O503  1  0.38397922  0.81525244  0.98129026  1
  O2-  O504  1  0.68770087  0.09569042  0.30886996  1
  O2-  O505  1  0.64630338  0.06783409  0.64304316  1
  O2-  O506  1  0.67308188  0.08571487  0.97161144  1
  O2-  O507  1  0.67522113  0.33517349  0.31198835  1
  O2-  O508  1  0.66382712  0.33300257  0.64422963  1
  O2-  O509  1  0.67477775  0.32751242  0.97533445  1
  O2-  O510  1  0.65997442  0.57899674  0.31987009  1
  O2-  O511  1  0.67141741  0.57941708  0.64444301  1
  O2-  O512  1  0.67640064  0.62120065  0.96349244  1
  O2-  O513  1  0.65988219  0.83226173  0.30841961  1
  O2-  O514  1  0.67080770  0.84068312  0.64452079  1
  O2-  O515  1  0.65495828  0.83370850  0.97951860  1
  O2-  O516  1  0.92367031  0.08297646  0.30948421  1
  O2-  O517  1  0.91843345  0.07011783  0.65342844  1
  O2-  O518  1  0.90108309  0.06489381  0.96806011  1
  O2-  O519  1  0.91993364  0.33613357  0.31255531  1
  O2-  O520  1  0.93792775  0.37409241  0.63844229  1
  O2-  O521  1  0.89699749  0.33050305  0.97890671  1
  O2-  O522  1  0.91690376  0.58204922  0.29957946  1
  O2-  O523  1  0.91131466  0.58791351  0.65028742  1
  O2-  O524  1  0.92076050  0.58113401  0.96985472  1
  O2-  O525  1  0.90974787  0.82593147  0.30353015  1
  O2-  O526  1  0.92358385  0.83173536  0.64294891  1
  O2-  O527  1  0.82769217  0.77315203  0.96695890  1
  O2-  O528  1  0.06085594  0.12267355  0.00686766  1
  O2-  O529  1  0.08893770  0.16819708  0.36168375  1
  O2-  O530  1  0.08449505  0.17254977  0.68856055  1
  O2-  O531  1  0.09543673  0.39424554  0.03217128  1
  O2-  O532  1  0.08740200  0.42016818  0.35036759  1
  O2-  O533  1  0.10128950  0.43324728  0.70302163  1
  O2-  O534  1  0.07549934  0.64566164  0.02640132  1
  O2-  O535  1  0.09619449  0.68811711  0.28681427  1
  O2-  O536  1  0.06238354  0.68080538  0.69068139  1
  O2-  O537  1  0.05609731  0.90686079  0.00209540  1
  O2-  O538  1  0.06190919  0.95362214  0.35480294  1
  O2-  O539  1  0.08992346  0.92388447  0.68528452  1
  O2-  O540  1  0.32992337  0.16284592  0.01638759  1
  O2-  O541  1  0.33577583  0.16134132  0.35251325  1
  O2-  O542  1  0.32548066  0.17332123  0.67054604  1
  O2-  O543  1  0.33522417  0.40541879  0.00857774  1
  O2-  O544  1  0.33392015  0.41065944  0.29806760  1
  O2-  O545  1  0.32672818  0.42425462  0.68284319  1
  O2-  O546  1  0.32627313  0.65870610  0.02829182  1
  O2-  O547  1  0.32507873  0.66142467  0.34517813  1
  O2-  O548  1  0.32080643  0.70621334  0.74397124  1
  O2-  O549  1  0.30682906  0.91093507  0.02963028  1
  O2-  O550  1  0.34771338  0.91624935  0.35126532  1
  O2-  O551  1  0.33511691  0.90708483  0.67185093  1
  O2-  O552  1  0.59409824  0.16874964  0.02160291  1
  O2-  O553  1  0.58881504  0.16688199  0.35204832  1
  O2-  O554  1  0.58702703  0.16881435  0.68700356  1
  O2-  O555  1  0.66127987  0.48562514  0.03802191  1
  O2-  O556  1  0.58740494  0.41358146  0.35505471  1
  O2-  O557  1  0.58313350  0.41586052  0.68659059  1
  O2-  O558  1  0.57020566  0.67147391  0.01795783  1
  O2-  O559  1  0.58110107  0.66673793  0.35608370  1
  O2-  O560  1  0.60517929  0.66573211  0.68628316  1
  O2-  O561  1  0.59808671  0.93633204  0.01987680  1
  O2-  O562  1  0.55653181  0.90221043  0.35442380  1
  O2-  O563  1  0.56684975  0.90378031  0.68446713  1
  O2-  O564  1  0.83452854  0.16254345  0.01687399  1
  O2-  O565  1  0.84466060  0.17442172  0.35082671  1
  O2-  O566  1  0.80667017  0.12654567  0.68739495  1
  O2-  O567  1  0.82633356  0.41519135  0.01830621  1
  O2-  O568  1  0.84023038  0.42040880  0.35708308  1
  O2-  O569  1  0.82776365  0.42096950  0.68684363  1
  O2-  O570  1  0.86408391  0.66795634  0.02367424  1
  O2-  O571  1  0.83276926  0.66135382  0.35240135  1
  O2-  O572  1  0.83307039  0.66867851  0.68480179  1
  O2-  O573  1  0.82191170  0.90694711  0.01832716  1
  O2-  O574  1  0.83078573  0.91252791  0.34531652  1
  O2-  O575  1  0.90663448  0.94173206  0.72046770  1
