# generated using pymatgen
data_H2O
_symmetry_space_group_name_H-M   'P 1'
_cell_length_a   17.97773140
_cell_length_b   17.98265937
_cell_length_c   21.98612648
_cell_angle_alpha   90.03103293
_cell_angle_beta   90.00357345
_cell_angle_gamma   120.00434825
_symmetry_Int_Tables_number   1
_chemical_formula_structural   H2O
_chemical_formula_sum   'H384 O192'
_cell_volume   6155.29727846
_cell_formula_units_Z   192
loop_
 _symmetry_equiv_pos_site_id
 _symmetry_equiv_pos_as_xyz
  1  'x, y, z'
loop_
 _atom_type_symbol
 _atom_type_oxidation_number
  H+  1.0
  O2-  -2.0
loop_
 _atom_site_type_symbol
 _atom_site_label
 _atom_site_symmetry_multiplicity
 _atom_site_fract_x
 _atom_site_fract_y
 _atom_site_fract_z
 _atom_site_occupancy
  H+  H0  1  0.87994198  0.02046456  0.50640283  1
  H+  H1  1  0.66973646  0.08573078  0.93360042  1
  H+  H2  1  0.46123551  0.32097183  0.94799467  1
  H+  H3  1  0.19895863  0.96954198  0.11511818  1
  H+  H4  1  0.46687002  0.60448080  0.50324261  1
  H+  H5  1  0.61315744  0.27090933  0.63757135  1
  H+  H6  1  0.48819837  0.61744419  0.82575946  1
  H+  H7  1  0.14367398  0.77202441  0.17636262  1
  H+  H8  1  0.88315443  1.02439743  -0.00294365  1
  H+  H9  1  0.75476163  0.11903148  0.49613748  1
  H+  H10  1  0.90886867  0.61554468  0.84330815  1
  H+  H11  1  0.33269557  0.88409069  0.68005805  1
  H+  H12  1  0.78420055  0.40231963  0.17189372  1
  H+  H13  1  0.92454694  0.58699796  0.27289440  1
  H+  H14  1  0.66283108  0.10506004  0.66644834  1
  H+  H15  1  0.64652234  0.87007823  0.17016270  1
  H+  H16  1  0.15384368  0.03881173  0.17152012  1
  H+  H17  1  0.55560402  0.63518498  0.67345550  1
  H+  H18  1  0.65256310  0.12594998  0.16674487  1
  H+  H19  1  0.35697495  0.39335664  0.82250336  1
  H+  H20  1  0.85883787  0.22774186  0.82513667  1
  H+  H21  1  0.38400464  0.10708639  0.17851356  1
  H+  H22  1  0.50795214  0.88169631  0.83324391  1
  H+  H23  1  0.01457582  0.88474476  0.78436814  1
  H+  H24  1  1.01589610  0.13733715  0.67355165  1
  H+  H25  1  0.85566868  0.96917414  0.33882412  1
  H+  H26  1  0.10568807  0.47746961  0.68647047  1
  H+  H27  1  0.37564711  0.51079258  0.50109148  1
  H+  H28  1  0.59696135  0.43336611  0.43133008  1
  H+  H29  1  0.62541533  0.35254277  0.84820232  1
  H+  H30  1  0.23379939  0.62407049  0.83497601  1
  H+  H31  1  0.62204720  0.11098609  0.49639596  1
  H+  H32  1  0.88427696  0.86132003  0.33422102  1
  H+  H33  1  0.90965474  0.08405032  0.89999828  1
  H+  H34  1  0.86385675  0.22918425  0.00802475  1
  H+  H35  1  0.75185701  0.89089885  0.68019381  1
  H+  H36  1  0.39404633  0.62299555  0.17786512  1
  H+  H37  1  0.76055342  0.37150586  0.82434078  1
  H+  H38  1  0.10921951  0.09445669  0.66445932  1
  H+  H39  1  0.94545465  0.59457667  0.63532590  1
  H+  H40  1  0.60970884  0.37298050  0.67607185  1
  H+  H41  1  0.34604776  0.17463929  0.42665373  1
  H+  H42  1  0.62696368  -0.01432510  0.15658285  1
  H+  H43  1  1.02075154  0.12642158  0.48810762  1
  H+  H44  1  0.11581303  0.36089605  0.31864338  1
  H+  H45  1  0.29367400  0.28197656  0.68892408  1
  H+  H46  1  0.17524831  0.50084921  0.19862120  1
  H+  H47  1  0.76869831  0.87645402  0.33712825  1
  H+  H48  1  0.71658294  0.60882517  0.97780947  1
  H+  H49  1  0.61715856  0.39340289  0.32293545  1
  H+  H50  1  0.09714923  0.87905201  0.68130708  1
  H+  H51  1  -0.00039302  0.34829337  0.14293574  1
  H+  H52  1  1.02720637  0.62761842  0.81675574  1
  H+  H53  1  0.68723089  0.97215819  0.37112040  1
  H+  H54  1  0.40269448  0.27403317  0.16983561  1
  H+  H55  1  0.56259638  0.50320325  0.61758677  1
  H+  H56  1  0.63416468  0.76365917  0.66819634  1
  H+  H57  1  0.98803774  0.59974710  0.70018953  1
  H+  H58  1  0.39239011  0.02300450  0.99322125  1
  H+  H59  1  0.89059160  1.02279217  0.17312023  1
  H+  H60  1  0.62080796  0.73260754  0.15846529  1
  H+  H61  1  0.23711041  0.90932209  0.87056409  1
  H+  H62  1  0.37482808  0.70142947  0.68376624  1
  H+  H63  1  0.24529808  0.18036850  0.67400662  1
  H+  H64  1  0.85999693  0.13920513  0.82430501  1
  H+  H65  1  0.63030768  0.76047442  0.32500031  1
  H+  H66  1  0.26466880  0.89483303  0.35415582  1
  H+  H67  1  0.54359182  0.10203236  0.63807488  1
  H+  H68  1  0.26935782  0.64194441  1.00483146  1
  H+  H69  1  0.89490819  0.62560023  0.52212325  1
  H+  H70  1  0.14068830  0.12073168  0.17097443  1
  H+  H71  1  0.87795553  0.85997337  -0.01617495  1
  H+  H72  1  0.15745099  0.27097197  0.16761388  1
  H+  H73  1  0.88935736  0.87015847  0.82753588  1
  H+  H74  1  0.36786991  0.61329979  0.50658777  1
  H+  H75  1  0.88731289  0.28011642  0.64437876  1
  H+  H76  1  0.13912548  0.45795986  0.18861289  1
  H+  H77  1  0.39019986  0.24410680  0.48717684  1
  H+  H78  1  0.84568983  0.78472221  0.64409010  1
  H+  H79  1  0.27185269  0.88604298  0.01393955  1
  H+  H80  1  0.36057769  0.64217807  0.82579967  1
  H+  H81  1  0.58637285  0.05857293  0.55461633  1
  H+  H82  1  0.01181856  0.13908752  0.00379995  1
  H+  H83  1  0.37293653  0.38949001  0.49269076  1
  H+  H84  1  0.37593822  0.76949803  0.83620473  1
  H+  H85  1  0.72542527  0.11106020  0.83579450  1
  H+  H86  1  0.38350156  0.01822235  0.17942792  1
  H+  H87  1  0.91758955  0.84326513  0.92195847  1
  H+  H88  1  0.20015224  0.86539868  0.67641409  1
  H+  H89  1  0.86880474  0.73274096  0.17503089  1
  H+  H90  1  0.18143864  0.87145231  0.93129205  1
  H+  H91  1  0.89893670  0.52504256  0.99316167  1
  H+  H92  1  0.13730728  0.86956403  0.51152134  1
  H+  H93  1  0.26718016  0.13864839  0.81284938  1
  H+  H94  1  0.49276439  0.37046067  0.49705493  1
  H+  H95  1  0.72898341  0.36838109  0.29049636  1
  H+  H96  1  0.03721534  0.96754381  0.04087772  1
  H+  H97  1  0.37753296  0.38555282  1.00268114  1
  H+  H98  1  0.77361413  0.13403742  0.16225081  1
  H+  H99  1  0.62555092  0.39946016  0.48830993  1
  H+  H100  1  0.28518948  0.12372027  -0.00621150  1
  H+  H101  1  -0.02185772  0.86853043  0.33428635  1
  H+  H102  1  0.38463703  0.37610942  0.15837900  1
  H+  H103  1  0.17596782  0.59139734  0.58326279  1
  H+  H104  1  0.86651379  0.63646024  0.34198662  1
  H+  H105  1  1.01935938  0.88616782  0.49181386  1
  H+  H106  1  0.88546063  0.36325672  0.99710694  1
  H+  H107  1  0.39454092  0.03383827  0.50231193  1
  H+  H108  1  0.63927224  0.62044095  0.17579132  1
  H+  H109  1  0.85646513  0.72107761  -0.03012224  1
  H+  H110  1  0.61208744  0.89060767  1.00374694  1
  H+  H111  1  0.62891226  0.03231489  0.32110822  1
  H+  H112  1  0.11291249  0.89440638  0.34290243  1
  H+  H113  1  0.53468653  0.38911728  0.02317010  1
  H+  H114  1  0.48136256  0.62196585  0.18144924  1
  H+  H115  1  0.84336538  0.45743905  0.46104476  1
  H+  H116  1  0.85779471  0.35604614  0.47885518  1
  H+  H117  1  0.38310332  0.11558546  0.33076687  1
  H+  H118  1  0.89809592  0.62004671  0.18065628  1
  H+  H119  1  0.13960982  0.54126592  0.98748514  1
  H+  H120  1  0.35947144  -0.02250435  0.83086726  1
  H+  H121  1  0.82126471  0.33617584  0.66879612  1
  H+  H122  1  0.89908422  0.53211774  0.17805115  1
  H+  H123  1  0.52289262  0.13390482  0.82688543  1
  H+  H124  1  0.88950374  0.77558772  0.50546123  1
  H+  H125  1  0.48672325  0.12341765  0.49230576  1
  H+  H126  1  0.97425017  0.36525179  0.98633008  1
  H+  H127  1  0.14425155  0.63299756  0.99800416  1
  H+  H128  1  0.59639690  0.96439890  0.49447575  1
  H+  H129  1  0.11525752  0.10041803  0.50963976  1
  H+  H130  1  0.15398256  0.86577511  0.17848159  1
  H+  H131  1  0.37955560  0.80382281  0.24863233  1
  H+  H132  1  0.98007630  0.86399152  0.18812514  1
  H+  H133  1  0.22742026  0.87373886  0.51967455  1
  H+  H134  1  -0.03160693  0.36071803  0.84857933  1
  H+  H135  1  0.11842706  0.01105499  0.66642653  1
  H+  H136  1  0.10567183  0.47459591  0.84659749  1
  H+  H137  1  0.20570293  -0.00459745  0.92581219  1
  H+  H138  1  0.85459808  0.46756001  0.32910856  1
  H+  H139  1  0.97425426  0.61082797  0.33689447  1
  H+  H140  1  0.63726622  0.24433734  0.16396170  1
  H+  H141  1  0.40215201  0.86982756  0.16334832  1
  H+  H142  1  0.85245690  0.21651405  0.34886094  1
  H+  H143  1  0.26395584  0.62820815  0.35245884  1
  H+  H144  1  0.45480418  0.94680823  0.62704064  1
  H+  H145  1  0.62561449  0.51384198  0.83833847  1
  H+  H146  1  0.66877894  0.83176295  0.22969070  1
  H+  H147  1  0.61160414  0.97947981  0.00331740  1
  H+  H148  1  0.83124872  0.65309508  -0.08151106  1
  H+  H149  1  0.84550541  0.90505949  0.67271522  1
  H+  H150  1  0.86128560  0.98063072  0.82574820  1
  H+  H151  1  0.63486460  0.02159416  0.83993922  1
  H+  H152  1  0.28464282  0.37044225  0.15963969  1
  H+  H153  1  0.14796083  0.01173377  0.97116328  1
  H+  H154  1  0.72838150  0.61960506  0.17993649  1
  H+  H155  1  0.33936505  0.44335671  0.67085036  1
  H+  H156  1  0.60835454  0.15142482  0.33343314  1
  H+  H157  1  0.48247119  0.31981799  0.64808363  1
  H+  H158  1  0.61601970  0.23498985  0.48354256  1
  H+  H159  1  0.13268358  0.84854150  1.02039735  1
  H+  H160  1  0.37933030  0.73541781  0.15058195  1
  H+  H161  1  0.70673604  0.33864850  0.65654080  1
  H+  H162  1  0.10870764  0.48261778  0.49875564  1
  H+  H163  1  0.88767361  0.62372219  0.70135456  1
  H+  H164  1  0.25309313  0.70596303  0.23566943  1
  H+  H165  1  0.36850534  0.26856153  0.83413985  1
  H+  H166  1  0.35993051  0.60182647  0.99123226  1
  H+  H167  1  0.86878513  0.72732487  0.34401753  1
  H+  H168  1  0.10265373  0.14441815  -0.00119647  1
  H+  H169  1  0.59681341  0.53372571  0.63944048  1
  H+  H170  1  0.09910702  0.22425265  0.33811228  1
  H+  H171  1  0.14881280  0.62342462  0.52259393  1
  H+  H172  1  0.10925569  0.22349793  0.82776105  1
  H+  H173  1  1.00245236  0.88232941  1.00488076  1
  H+  H174  1  0.65068426  0.53974250  0.51344405  1
  H+  H175  1  0.62670111  0.60469635  0.83125817  1
  H+  H176  1  0.34344787  0.74785409  0.30882588  1
  H+  H177  1  0.03410450  0.64689749  0.51076215  1
  H+  H178  1  0.88580678  0.77908947  0.83507934  1
  H+  H179  1  0.91009967  0.72008007  0.71072413  1
  H+  H180  1  0.91370273  0.16483799  0.64810687  1
  H+  H181  1  0.77305311  0.88738616  0.01038854  1
  H+  H182  1  0.01262598  0.40381075  0.67588136  1
  H+  H183  1  0.37466557  0.13126657  0.00555338  1
  H+  H184  1  0.84610448  0.12306476  0.49133278  1
  H+  H185  1  0.86462730  0.13530483  0.16251617  1
  H+  H186  1  0.12542298  0.24648365  0.65591544  1
  H+  H187  1  0.72959105  0.61763486  0.33188197  1
  H+  H188  1  0.60304645  0.16435283  0.73786747  1
  H+  H189  1  0.62227758  0.48749945  0.17141245  1
  H+  H190  1  0.90875804  0.33226269  0.40326407  1
  H+  H191  1  0.75037826  0.85663132  0.84482448  1
  H+  H192  1  0.41122285  0.83726858  0.56632289  1
  H+  H193  1  0.15507320  0.61585005  0.68364818  1
  H+  H194  1  0.38460156  0.77179762  0.99460670  1
  H+  H195  1  0.26959202  0.62734173  0.51314345  1
  H+  H196  1  0.88136384  0.11383396  0.99736247  1
  H+  H197  1  0.85667455  0.88296944  0.49413480  1
  H+  H198  1  0.49297195  0.36596486  0.17536858  1
  H+  H199  1  0.13665674  0.28038417  0.99338452  1
  H+  H200  1  0.23177405  0.36016002  0.99392354  1
  H+  H201  1  0.35860490  0.89106216  0.49947830  1
  H+  H202  1  0.11539461  0.40150227  0.99011805  1
  H+  H203  1  0.28836399  0.65582503  0.16359006  1
  H+  H204  1  0.56653366  0.83662102  0.67933769  1
  H+  H205  1  0.48168368  0.36421850  0.32648513  1
  H+  H206  1  0.60632796  0.63287737  0.00184509  1
  H+  H207  1  0.82394692  0.91108962  0.43619478  1
  H+  H208  1  0.46555699  0.84880223  0.50563077  1
  H+  H209  1  0.84839831  0.18113560  0.72889575  1
  H+  H210  1  0.72776754  0.11509750  0.99402546  1
  H+  H211  1  0.13664345  0.75706869  1.01452066  1
  H+  H212  1  0.72792967  0.36571848  0.48586804  1
  H+  H213  1  0.61731962  0.23041827  0.00598767  1
  H+  H214  1  0.28099425  0.14931683  0.15921742  1
  H+  H215  1  0.32165346  0.52789086  0.94318683  1
  H+  H216  1  0.51041919  0.37712620  0.83301105  1
  H+  H217  1  0.39394289  0.25858491  -0.00290149  1
  H+  H218  1  0.02457057  0.13735155  0.16060741  1
  H+  H219  1  0.27196996  0.14500585  0.34367047  1
  H+  H220  1  0.64658581  0.36957935  1.00132199  1
  H+  H221  1  0.36317128  0.48549861  0.82008925  1
  H+  H222  1  0.38571944  0.14503983  0.48898200  1
  H+  H223  1  0.04262530  0.64551524  0.01658427  1
  H+  H224  1  0.02153630  0.39207787  0.34978418  1
  H+  H225  1  0.64929457  0.38123728  0.19147174  1
  H+  H226  1  0.78195559  0.64385302  0.49430765  1
  H+  H227  1  0.49319032  0.87182753  0.16653634  1
  H+  H228  1  0.16365035  0.30235406  0.56010288  1
  H+  H229  1  0.36380939  0.71761869  0.50924505  1
  H+  H230  1  0.61849436  0.48137015  0.33384816  1
  H+  H231  1  0.59471113  0.87849724  0.83283057  1
  H+  H232  1  0.76367105  0.62895812  0.83649548  1
  H+  H233  1  0.36464741  0.46874260  0.00492348  1
  H+  H234  1  0.36294308  0.38330611  0.34309376  1
  H+  H235  1  0.34885176  0.08586348  0.69162951  1
  H+  H236  1  0.97110201  0.11359881  0.84177324  1
  H+  H237  1  0.96980107  0.10786088  0.32922780  1
  H+  H238  1  0.19880338  0.34163821  0.65426680  1
  H+  H239  1  0.13035752  0.52816964  0.33348420  1
  H+  H240  1  0.10479932  0.38598325  0.84724456  1
  H+  H241  1  0.28166254  0.88052776  0.16441675  1
  H+  H242  1  0.08449115  0.92403926  0.43420219  1
  H+  H243  1  0.13342710  0.02130653  0.80667918  1
  H+  H244  1  0.08111070  0.16424368  0.39809687  1
  H+  H245  1  0.71613546  0.85408842  0.50795969  1
  H+  H246  1  0.57108181  0.65705314  0.43491395  1
  H+  H247  1  0.10276318  0.92634899  0.09656284  1
  H+  H248  1  0.60466785  0.87855285  0.49591282  1
  H+  H249  1  0.12552682  0.62910723  0.81765307  1
  H+  H250  1  0.86669484  0.39282803  0.16532900  1
  H+  H251  1  0.52054160  0.63791454  1.00554600  1
  H+  H252  1  0.61694997  0.14108464  0.00600545  1
  H+  H253  1  0.11589897  -0.01397524  0.34193119  1
  H+  H254  1  0.86618579  0.88800566  0.16439893  1
  H+  H255  1  0.40253050  0.56275977  0.61104406  1
  H+  H256  1  0.06562542  0.29132355  0.26934910  1
  H+  H257  1  0.68156128  0.22542366  0.69549299  1
  H+  H258  1  0.11785178  1.00608289  0.51119503  1
  H+  H259  1  0.69403868  0.67552282  0.65977417  1
  H+  H260  1  0.87556947  0.26412346  0.17628323  1
  H+  H261  1  0.84411078  0.66787821  0.43689397  1
  H+  H262  1  0.03821929  0.64649778  0.16201335  1
  H+  H263  1  0.63896248  0.85364209  0.32571532  1
  H+  H264  1  0.10908551  0.64226110  0.35272156  1
  H+  H265  1  0.79049007  0.14074635  0.66901000  1
  H+  H266  1  0.87915186  0.10564780  0.32729912  1
  H+  H267  1  0.63562417  0.77670584  0.99866293  1
  H+  H268  1  0.77214176  0.65537251  0.66412727  1
  H+  H269  1  0.16918988  0.66209865  0.18993844  1
  H+  H270  1  0.37600866  0.58742987  0.67342194  1
  H+  H271  1  0.94429486  0.85536072  0.66419638  1
  H+  H272  1  0.22838708  0.33775897  0.50249068  1
  H+  H273  1  0.46043284  0.86987787  0.65953805  1
  H+  H274  1  0.71807185  0.11725576  0.32229532  1
  H+  H275  1  0.62958900  0.26544980  0.84767868  1
  H+  H276  1  0.12859259  0.77634474  0.33627975  1
  H+  H277  1  0.36467729  0.23285360  0.34070854  1
  H+  H278  1  0.60486222  0.63349110  0.49558912  1
  H+  H279  1  0.36108145  0.88651240  0.00726174  1
  H+  H280  1  0.22241397  0.36364160  0.83523919  1
  H+  H281  1  0.38038742  0.60522984  0.33405662  1
  H+  H282  1  0.36442998  0.08380931  0.66028540  1
  H+  H283  1  0.89444567  0.54112628  0.54314786  1
  H+  H284  1  0.13706007  0.12117052  0.32703595  1
  H+  H285  1  0.35950046  0.46958339  0.34378364  1
  H+  H286  1  0.60655696  0.18844329  0.10205845  1
  H+  H287  1  0.62584231  0.76600489  0.50715721  1
  H+  H288  1  0.11857587  0.21203403  0.49185365  1
  H+  H289  1  0.83763200  0.91465001  0.06686253  1
  H+  H290  1  0.40898935  0.07845196  0.27327281  1
  H+  H291  1  0.58498610  0.17680614  0.42196573  1
  H+  H292  1  0.17233099  0.09437601  0.26901602  1
  H+  H293  1  0.67032729  0.59125651  0.27194081  1
  H+  H294  1  0.38781380  0.11976433  0.83654699  1
  H+  H295  1  0.59849450  0.66574165  0.75176392  1
  H+  H296  1  0.16746622  0.06091434  0.87316188  1
  H+  H297  1  0.94835627  0.58990509  0.89855537  1
  H+  H298  1  0.17335525  0.60530721  0.89597334  1
  H+  H299  1  0.67702814  0.83328616  0.94000949  1
  H+  H300  1  0.87549540  0.35663854  0.34455253  1
  H+  H301  1  0.82426506  0.92305539  0.76368723  1
  H+  H302  1  0.07303107  0.40703717  0.05073785  1
  H+  H303  1  0.78952892  0.35383809  0.73568051  1
  H+  H304  1  0.14747980  0.84651866  0.61332309  1
  H+  H305  1  0.84859735  0.37132928  0.82012255  1
  H+  H306  1  0.69412157  0.61650977  0.56497746  1
  H+  H307  1  0.10611427  0.13203491  0.82422792  1
  H+  H308  1  0.24416069  0.61391646  0.67378456  1
  H+  H309  1  0.72320952  0.77228350  0.88201446  1
  H+  H310  1  0.33692076  0.16646083  0.09841167  1
  H+  H311  1  0.84242040  0.67866139  0.11430521  1
  H+  H312  1  0.32946293  0.65800184  0.75941122  1
  H+  H313  1  0.48321813  0.11288117  0.99357401  1
  H+  H314  1  0.57108404  0.39665455  0.77535812  1
  H+  H315  1  0.53813686  0.86930008  0.73689441  1
  H+  H316  1  0.47779958  0.07863115  0.58175698  1
  H+  H317  1  0.77913583  0.39143660  0.01070261  1
  H+  H318  1  1.00356388  0.21592730  0.61388075  1
  H+  H319  1  0.61953417  0.71537347  0.82003727  1
  H+  H320  1  0.83365259  0.16883693  0.06790364  1
  H+  H321  1  0.89642513  0.61082560  0.98086298  1
  H+  H322  1  0.66908283  0.08814064  0.22776833  1
  H+  H323  1  0.34905350  0.40587085  0.09570129  1
  H+  H324  1  0.47269563  0.86228563  0.99286814  1
  H+  H325  1  0.91834746  0.83674298  0.24614954  1
  H+  H326  1  0.65183255  0.82441683  0.60878446  1
  H+  H327  1  0.07954811  0.16612094  0.09860641  1
  H+  H328  1  0.12080496  0.73610200  0.50736128  1
  H+  H329  1  0.33136215  0.66537020  0.06474087  1
  H+  H330  1  0.16919133  0.32984984  0.89681351  1
  H+  H331  1  0.17204167  0.60359669  0.28188221  1
  H+  H332  1  0.61699323  0.48118891  0.01264245  1
  H+  H333  1  0.86479780  0.26796729  0.48934881  1
  H+  H334  1  0.77681837  0.88739449  0.16146146  1
  H+  H335  1  0.40482045  0.82526432  0.89869900  1
  H+  H336  1  0.59457616  0.92416239  0.09762602  1
  H+  H337  1  0.91623333  0.32967729  0.23202606  1
  H+  H338  1  0.32977697  0.66172788  0.40755132  1
  H+  H339  1  0.61198714  0.13236924  0.83192962  1
  H+  H340  1  0.01738987  0.28581391  0.10497749  1
  H+  H341  1  0.33579056  0.91598390  0.10181848  1
  H+  H342  1  0.43157478  0.59277596  0.88696497  1
  H+  H343  1  0.35441624  0.98276671  0.35326863  1
  H+  H344  1  0.83901076  0.42358058  0.06989290  1
  H+  H345  1  0.60606436  0.63069576  0.34298904  1
  H+  H346  1  0.37863127  0.32392237  0.89397379  1
  H+  H347  1  0.81205216  0.14549713  0.39892549  1
  H+  H348  1  0.41396884  0.58293154  0.27261859  1
  H+  H349  1  0.34985577  0.88432701  0.83613154  1
  H+  H350  1  0.30161890  0.90012011  0.74470674  1
  H+  H351  1  0.51439304  0.62799429  0.34176344  1
  H+  H352  1  0.32625956  0.19389574  0.75906364  1
  H+  H353  1  0.66941345  0.33604546  0.93976406  1
  H+  H354  1  0.18683713  0.33630507  0.22368848  1
  H+  H355  1  0.58552188  0.66781812  0.10199295  1
  H+  H356  1  0.38315906  0.25703828  0.64238125  1
  H+  H357  1  0.59876584  0.91955302  0.40329824  1
  H+  H358  1  0.67205382  0.34325891  0.55097493  1
  H+  H359  1  0.83883822  0.65748756  0.78743095  1
  H+  H360  1  0.06591154  0.15152980  0.73897230  1
  H+  H361  1  0.51764047  0.14488023  0.33932739  1
  H+  H362  1  0.09866314  0.67627480  0.09963002  1
  H+  H363  1  0.33677152  0.41304629  0.43261815  1
  H+  H364  1  0.01767549  0.39944577  0.48671450  1
  H+  H365  1  0.43532621  0.31976985  0.55599678  1
  H+  H366  1  0.42209493  0.33258846  0.26780242  1
  H+  H367  1  0.32609255  0.92466018  0.44335429  1
  H+  H368  1  0.89791445  0.32397637  0.89886089  1
  H+  H369  1  0.58545109  0.44618962  0.68277520  1
  H+  H370  1  0.16476540  0.83237581  0.27546715  1
  H+  H371  1  0.90141549  0.33484494  0.58358188  1
  H+  H372  1  0.92180615  0.10000134  0.55558497  1
  H+  H373  1  0.68744159  0.08262042  0.60316175  1
  H+  H374  1  0.08080376  0.67298728  0.41196852  1
  H+  H375  1  0.91822732  0.08089491  0.23329934  1
  H+  H376  1  0.41667085  0.09027477  0.89730429  1
  H+  H377  1  0.91435774  0.84068826  0.56227848  1
  H+  H378  1  0.64461092  0.57107727  0.92886172  1
  H+  H379  1  0.30371465  0.39978612  0.73347717  1
  H+  H380  1  0.80601764  0.39878487  0.38246219  1
  H+  H381  1  0.09010576  0.42736442  0.40207009  1
  H+  H382  1  0.60169634  0.42792361  0.11232839  1
  H+  H383  1  0.13913975  0.06520583  0.57883920  1
  O2-  O384  1  0.08458494  0.16675490  0.14371288  1
  O2-  O385  1  0.08154905  0.14795720  0.47564695  1
  O2-  O386  1  0.07335756  0.16183743  0.81453792  1
  O2-  O387  1  0.04289621  0.34602371  0.11620896  1
  O2-  O388  1  0.07883750  0.42889877  0.47499547  1
  O2-  O389  1  0.07215159  0.41423967  0.85948728  1
  O2-  O390  1  0.09834346  0.68014250  0.14760091  1
  O2-  O391  1  0.09255892  0.67521415  0.49258944  1
  O2-  O392  1  0.08906136  0.65548347  0.79635747  1
  O2-  O393  1  0.14153960  0.94517021  0.13269769  1
  O2-  O394  1  0.08187435  0.92043423  0.48006766  1
  O2-  O395  1  0.07250671  0.91750838  0.76542775  1
  O2-  O396  1  0.34073723  0.17395128  0.14334337  1
  O2-  O397  1  0.35664912  0.17932211  0.47338395  1
  O2-  O398  1  0.32920994  0.17783858  0.80206098  1
  O2-  O399  1  0.34899489  0.40301195  0.14170915  1
  O2-  O400  1  0.33858120  0.41598354  0.47943519  1
  O2-  O401  1  0.32558103  0.42309239  0.80988401  1
  O2-  O402  1  0.34223994  0.67282969  0.13996192  1
  O2-  O403  1  0.33175706  0.65434648  0.49593277  1
  O2-  O404  1  0.32787332  0.66833917  0.80950227  1
  O2-  O405  1  0.34064001  0.91531233  0.14716904  1
  O2-  O406  1  0.33216409  0.92651368  0.49015410  1
  O2-  O407  1  0.31916661  0.91540496  0.82394642  1
  O2-  O408  1  0.61931741  0.18794106  0.14581240  1
  O2-  O409  1  0.58597778  0.17392752  0.46884323  1
  O2-  O410  1  0.58469703  0.16465468  0.81462519  1
  O2-  O411  1  0.59747110  0.42602153  0.15770452  1
  O2-  O412  1  0.59687442  0.43398103  0.47645282  1
  O2-  O413  1  0.57156180  0.40382730  0.82062273  1
  O2-  O414  1  0.59046863  0.67035028  0.14692740  1
  O2-  O415  1  0.56769618  0.65648277  0.48070799  1
  O2-  O416  1  0.58671798  0.65755841  0.80223745  1
  O2-  O417  1  0.59918174  0.92417883  0.14299947  1
  O2-  O418  1  0.57241521  0.90534043  0.47731461  1
  O2-  O419  1  0.56956154  0.91208262  0.81799377  1
  O2-  O420  1  0.83591161  0.16710130  0.14763337  1
  O2-  O421  1  0.81127791  0.14922423  0.47635064  1
  O2-  O422  1  0.82932766  0.16782862  0.80722263  1
  O2-  O423  1  0.84140573  0.42825726  0.15174603  1
  O2-  O424  1  0.80875126  0.39620792  0.45312157  1
  O2-  O425  1  0.81260064  0.39133115  0.79906810  1
  O2-  O426  1  0.83819748  0.67252121  0.15840506  1
  O2-  O427  1  0.84396162  0.67059259  0.48250619  1
  O2-  O428  1  0.82786500  0.66244207  0.83217669  1
  O2-  O429  1  0.83805476  0.91805526  0.14603547  1
  O2-  O430  1  0.82381766  0.91190497  0.48154184  1
  O2-  O431  1  0.83363429  0.92038988  0.80990020  1
  O2-  O432  1  0.17612451  0.09715884  0.18865465  1
  O2-  O433  1  0.14173098  0.06638280  0.53100766  1
  O2-  O434  1  0.16174885  0.07577543  0.83016923  1
  O2-  O435  1  0.20064388  0.32999534  0.18115290  1
  O2-  O436  1  0.16824563  0.29821276  0.51469959  1
  O2-  O437  1  0.16332990  0.32594419  0.85172420  1
  O2-  O438  1  0.21030103  0.65132071  0.21357414  1
  O2-  O439  1  0.17708283  0.59094443  0.53684157  1
  O2-  O440  1  0.17171180  0.59790537  0.85067121  1
  O2-  O441  1  0.17725675  0.83142452  0.19620088  1
  O2-  O442  1  0.16568712  0.84158812  0.53272513  1
  O2-  O443  1  0.19377562  0.91238310  0.89696530  1
  O2-  O444  1  0.40761238  0.07515110  0.19951326  1
  O2-  O445  1  0.42846217  0.09675680  0.51317312  1
  O2-  O446  1  0.41739651  0.08968298  0.85181673  1
  O2-  O447  1  0.43012346  0.33437181  0.18631678  1
  O2-  O448  1  0.43159723  0.33317583  0.51110536  1
  O2-  O449  1  0.39871466  0.32939763  0.85207444  1
  O2-  O450  1  0.42259439  0.59447735  0.19817250  1
  O2-  O451  1  0.40436793  0.57351644  0.51690234  1
  O2-  O452  1  0.42731105  0.58960950  0.84249952  1
  O2-  O453  1  0.43083031  0.83695313  0.17642301  1
  O2-  O454  1  0.40598778  0.81844299  0.52234676  1
  O2-  O455  1  0.40603119  0.82991702  0.85340850  1
  O2-  O456  1  0.67596157  0.08831050  0.18257778  1
  O2-  O457  1  0.62993709  0.06880824  0.52230598  1
  O2-  O458  1  0.66666089  0.08207655  0.85478454  1
  O2-  O459  1  0.68205570  0.35229426  0.20605125  1
  O2-  O460  1  0.66642163  0.34037752  0.50615205  1
  O2-  O461  1  0.65805215  0.32537396  0.86424786  1
  O2-  O462  1  0.66770602  0.58924412  0.19387131  1
  O2-  O463  1  0.67893919  0.60270216  0.52121634  1
  O2-  O464  1  0.65506445  0.57459031  0.85285744  1
  O2-  O465  1  0.67464444  0.83677233  0.18438507  1
  O2-  O466  1  0.65533082  0.82632285  0.52219717  1
  O2-  O467  1  0.70055916  0.80917057  0.86948692  1
  O2-  O468  1  0.92142016  0.08378071  0.18777192  1
  O2-  O469  1  0.91157993  0.08426639  0.51145683  1
  O2-  O470  1  0.90936134  0.08351583  0.85478623  1
  O2-  O471  1  0.90786216  0.32720010  0.18814022  1
  O2-  O472  1  0.89761312  0.33133208  0.49186071  1
  O2-  O473  1  0.90371402  0.32584421  0.85377389  1
  O2-  O474  1  0.93065852  0.59214780  0.19444190  1
  O2-  O475  1  0.92925323  0.60345627  0.54368207  1
  O2-  O476  1  0.94870245  0.59493917  0.85312979  1
  O2-  O477  1  0.91950042  0.83579243  0.19935042  1
  O2-  O478  1  0.91792038  0.83798948  0.51682013  1
  O2-  O479  1  0.92223525  0.84193284  0.84237119  1
  O2-  O480  1  0.17025235  0.09253728  0.31436581  1
  O2-  O481  1  0.14372322  0.06890260  0.64655372  1
  O2-  O482  1  0.19799341  0.04424941  0.94465668  1
  O2-  O483  1  0.11880153  0.31572018  0.29290694  1
  O2-  O484  1  0.14468619  0.30049293  0.63304799  1
  O2-  O485  1  0.17381439  0.33876181  0.97648663  1
  O2-  O486  1  0.16192415  0.59166561  0.32677170  1
  O2-  O487  1  0.18224602  0.59167458  0.65718929  1
  O2-  O488  1  0.17341576  0.60268362  0.97562922  1
  O2-  O489  1  0.15727780  0.83627753  0.32015512  1
  O2-  O490  1  0.14048264  0.84554334  0.65822170  1
  O2-  O491  1  0.16766818  0.82762817  1.00165248  1
  O2-  O492  1  0.41222510  0.08324514  0.31928901  1
  O2-  O493  1  0.51233704  0.05966458  0.60547254  1
  O2-  O494  1  0.42268512  0.08354734  0.97741563  1
  O2-  O495  1  0.42014632  0.33191998  0.31297125  1
  O2-  O496  1  0.43795085  0.28072304  0.61914122  1
  O2-  O497  1  0.42935155  0.32144015  0.98383746  1
  O2-  O498  1  0.41248943  0.57709881  0.31851376  1
  O2-  O499  1  0.40321809  0.55417655  0.65492283  1
  O2-  O500  1  0.37242639  0.55871898  0.96899103  1
  O2-  O501  1  0.33039700  0.77835715  0.27714817  1
  O2-  O502  1  0.42206173  0.88400642  0.63402032  1
  O2-  O503  1  0.41193385  0.83172054  0.97831464  1
  O2-  O504  1  0.65891174  0.09130880  0.30479072  1
  O2-  O505  1  0.69413455  0.07872167  0.64709943  1
  O2-  O506  1  0.66715913  0.08500917  0.97912267  1
  O2-  O507  1  0.67016331  0.34880008  0.27239669  1
  O2-  O508  1  0.65380037  0.33243643  0.63316056  1
  O2-  O509  1  0.67430142  0.33756621  0.98545678  1
  O2-  O510  1  0.66869639  0.58781728  0.31739427  1
  O2-  O511  1  0.74524262  0.67855431  0.63666006  1
  O2-  O512  1  0.65245552  0.57729271  0.97453854  1
  O2-  O513  1  0.66464717  0.82048361  0.30825181  1
  O2-  O514  1  0.65057917  0.82518809  0.65365405  1
  O2-  O515  1  0.66855178  0.83747821  0.98461385  1
  O2-  O516  1  0.91002045  0.07587931  0.31227732  1
  O2-  O517  1  0.95699153  0.15741247  0.62217857  1
  O2-  O518  1  0.91331534  0.08479015  0.98169789  1
  O2-  O519  1  0.90850214  0.32751112  0.35826096  1
  O2-  O520  1  0.90239834  0.33788169  0.62838142  1
  O2-  O521  1  0.91073482  0.32931128  0.97974599  1
  O2-  O522  1  0.91557288  0.58095899  0.31799011  1
  O2-  O523  1  0.93104470  0.57754862  0.67793016  1
  O2-  O524  1  0.93270166  0.58424994  0.97601248  1
  O2-  O525  1  0.91782215  0.83428758  0.31815536  1
  O2-  O526  1  0.89510045  0.84379553  0.63770014  1
  O2-  O527  1  0.90999707  0.83211934  0.96701581  1
  O2-  O528  1  0.07401548  0.17169028  0.01874558  1
  O2-  O529  1  0.07614730  0.16414347  0.35261975  1
  O2-  O530  1  0.06941578  0.14588325  0.69374227  1
  O2-  O531  1  0.08267537  0.42708526  0.00757851  1
  O2-  O532  1  0.08499324  0.42280701  0.35579112  1
  O2-  O533  1  0.06125662  0.42252610  0.70379799  1
  O2-  O534  1  0.10208431  0.67598858  0.03194905  1
  O2-  O535  1  0.07653985  0.67112464  0.36663218  1
  O2-  O536  1  0.08223938  0.63879468  0.73077747  1
  O2-  O537  1  0.05458413  0.92639145  0.02841308  1
  O2-  O538  1  0.08346207  0.92611934  0.35826585  1
  O2-  O539  1  0.05620848  0.90786885  0.69844982  1
  O2-  O540  1  0.33913793  0.15895447  0.01727036  1
  O2-  O541  1  0.33276761  0.17333739  0.35881703  1
  O2-  O542  1  0.29838212  0.22890653  0.69057653  1
  O2-  O543  1  0.34437808  0.40983231  0.02169609  1
  O2-  O544  1  0.33208109  0.41059825  0.36129844  1
  O2-  O545  1  0.29993657  0.38565376  0.68935096  1
  O2-  O546  1  0.33110114  0.66502418  0.01878562  1
  O2-  O547  1  0.32668654  0.65663209  0.36296417  1
  O2-  O548  1  0.33417224  0.64406764  0.69872534  1
  O2-  O549  1  0.33544503  0.92062917  0.02346670  1
  O2-  O550  1  0.32166905  0.92600799  0.37390051  1
  O2-  O551  1  0.29331393  0.89982637  0.69999953  1
  O2-  O552  1  0.58513857  0.16983166  0.02102022  1
  O2-  O553  1  0.57901120  0.17944780  0.35257710  1
  O2-  O554  1  0.62347917  0.17162094  0.69465601  1
  O2-  O555  1  0.59610488  0.42469908  0.03384668  1
  O2-  O556  1  0.58891305  0.41939395  0.34638013  1
  O2-  O557  1  0.57090607  0.38969372  0.69857398  1
  O2-  O558  1  0.58009953  0.66634560  0.01944752  1
  O2-  O559  1  0.57550035  0.66095093  0.35758410  1
  O2-  O560  1  0.61193214  0.67425145  0.69115606  1
  O2-  O561  1  0.58031294  0.91904308  0.01903560  1
  O2-  O562  1  0.62645377  0.93530231  0.36168687  1
  O2-  O563  1  0.51700695  0.83924345  0.69783624  1
  O2-  O564  1  0.83380861  0.16769095  0.02247053  1
  O2-  O565  1  0.81927851  0.15253771  0.35360840  1
  O2-  O566  1  0.85076507  0.18332233  0.68338704  1
  O2-  O567  1  0.84037624  0.42187054  0.02468929  1
  O2-  O568  1  0.81714260  0.40453906  0.33578678  1
  O2-  O569  1  0.76971630  0.32483803  0.69333763  1
  O2-  O570  1  0.82690391  0.65762648  -0.03704686  1
  O2-  O571  1  0.83660507  0.66675016  0.35861890  1
  O2-  O572  1  0.86197911  0.66194626  0.71573401  1
  O2-  O573  1  0.83556147  0.91586415  0.02133405  1
  O2-  O574  1  0.82784947  0.90921929  0.35509873  1
  O2-  O575  1  0.81277983  0.92731087  0.69454635  1
