# generated using pymatgen
data_H2O
_symmetry_space_group_name_H-M   'P 1'
_cell_length_a   17.99817341
_cell_length_b   18.00010576
_cell_length_c   22.00460322
_cell_angle_alpha   90.01048014
_cell_angle_beta   89.99962990
_cell_angle_gamma   120.00267736
_symmetry_Int_Tables_number   1
_chemical_formula_structural   H2O
_chemical_formula_sum   'H384 O192'
_cell_volume   6173.56372611
_cell_formula_units_Z   192
loop_
 _symmetry_equiv_pos_site_id
 _symmetry_equiv_pos_as_xyz
  1  'x, y, z'
loop_
 _atom_type_symbol
 _atom_type_oxidation_number
  H+  1.0
  O2-  -2.0
loop_
 _atom_site_type_symbol
 _atom_site_label
 _atom_site_symmetry_multiplicity
 _atom_site_fract_x
 _atom_site_fract_y
 _atom_site_fract_z
 _atom_site_occupancy
  H+  H0  1  0.13257432  0.86244699  0.46588168  1
  H+  H1  1  0.27517665  0.64090389  0.00426109  1
  H+  H2  1  0.27745383  0.89722019  0.33575985  1
  H+  H3  1  0.12010450  0.03005650  0.66495151  1
  H+  H4  1  0.52262479  0.38637396  0.49780168  1
  H+  H5  1  0.27827878  0.38206335  0.49237005  1
  H+  H6  1  0.65181044  0.54476370  0.64159748  1
  H+  H7  1  0.37225686  0.14023377  0.49860984  1
  H+  H8  1  0.62218938  0.85119305  0.84857301  1
  H+  H9  1  0.77454871  0.64738100  0.15716150  1
  H+  H10  1  0.89808251  0.85827958  0.32704891  1
  H+  H11  1  0.69101481  0.09017152  0.22673600  1
  H+  H12  1  0.01807354  0.64285756  0.16201430  1
  H+  H13  1  0.12009030  1.01861745  0.84079962  1
  H+  H14  1  0.21876679  0.37777500  1.00294634  1
  H+  H15  1  0.13758426  0.52817172  0.99424613  1
  H+  H16  1  0.39703166  1.03273104  0.50422852  1
  H+  H17  1  0.86495087  0.38838745  0.68271618  1
  H+  H18  1  0.90296032  0.77455398  0.31985528  1
  H+  H19  1  0.08997065  0.47880755  0.83212524  1
  H+  H20  1  0.36566654  0.62593579  0.68380851  1
  H+  H21  1  0.60713614  0.88412546  0.16789636  1
  H+  H22  1  0.34648000  0.72678490  0.33319469  1
  H+  H23  1  0.96886168  0.35513508  0.84347672  1
  H+  H24  1  0.71248420  0.87779451  0.66504299  1
  H+  H25  1  0.39073869  0.49654486  0.66849111  1
  H+  H26  1  0.08598317  0.45650964  0.67140924  1
  H+  H27  1  0.85905949  0.88908458  0.14893632  1
  H+  H28  1  0.77303874  0.89197213  0.49947490  1
  H+  H29  1  0.08363691  0.67278869  0.44372724  1
  H+  H30  1  0.01061725  0.62385922  0.67392064  1
  H+  H31  1  0.88300346  0.78119430  0.17101396  1
  H+  H32  1  0.37277907  0.77693298  0.48098764  1
  H+  H33  1  0.67158828  0.33015228  0.91643228  1
  H+  H34  1  0.17282363  0.89822260  0.72666213  1
  H+  H35  1  0.03310939  0.81038381  0.11386325  1
  H+  H36  1  0.47712018  0.36519667  0.17472226  1
  H+  H37  1  0.80193319  0.65204407  0.83507247  1
  H+  H38  1  0.85563419  0.09692776  -0.00829444  1
  H+  H39  1  0.27450485  0.63045565  0.15478523  1
  H+  H40  1  0.93276967  0.22455040  0.45507548  1
  H+  H41  1  1.00298737  0.38418021  0.33972647  1
  H+  H42  1  0.86384474  0.00081453  0.86899160  1
  H+  H43  1  0.59237506  0.17974897  0.43280559  1
  H+  H44  1  0.20251526  0.61162292  0.50386640  1
  H+  H45  1  0.68249934  0.18204617  0.51051526  1
  H+  H46  1  0.76760713  0.36755444  0.84255584  1
  H+  H47  1  0.39731225  0.63329751  0.17409886  1
  H+  H48  1  0.63734345  0.27105763  0.00525040  1
  H+  H49  1  0.72480189  0.86750843  0.17205907  1
  H+  H50  1  0.23063980  0.86396537  0.17361945  1
  H+  H51  1  0.48874362  0.61176789  0.66934319  1
  H+  H52  1  0.62240315  0.01411491  0.47313139  1
  H+  H53  1  0.27894606  0.90104598  0.47933316  1
  H+  H54  1  0.25766280  0.12186747  0.67062620  1
  H+  H55  1  0.63316738  0.78054536  0.66012272  1
  H+  H56  1  0.62481459  0.48023989  0.85110421  1
  H+  H57  1  0.28151323  0.14332554  0.35826877  1
  H+  H58  1  0.11333640  0.21892635  0.34477158  1
  H+  H59  1  0.38354654  0.62336867  0.33078046  1
  H+  H60  1  0.38803338  0.26328222  0.50887298  1
  H+  H61  1  0.13240732  0.07353248  0.17347025  1
  H+  H62  1  0.11438975  0.89253891  -0.00201882  1
  H+  H63  1  0.97576625  0.61985052  0.51055736  1
  H+  H64  1  0.60737480  0.13904972  0.01994986  1
  H+  H65  1  0.63534640  0.82847175  0.33508434  1
  H+  H66  1  0.36516135  0.09672468  0.99766124  1
  H+  H67  1  0.36683202  0.76743935  0.84398687  1
  H+  H68  1  0.67637668  0.05812733  0.62727853  1
  H+  H69  1  0.04240833  0.15490510  0.66615670  1
  H+  H70  1  0.71033585  0.87361960  1.00039514  1
  H+  H71  1  0.12710173  0.77223559  -0.00818756  1
  H+  H72  1  0.36788791  0.89856688  0.47876975  1
  H+  H73  1  0.18246919  0.32552543  0.18026529  1
  H+  H74  1  0.63818562  0.28013007  0.50116886  1
  H+  H75  1  0.90768865  0.83179624  0.89993386  1
  H+  H76  1  0.59674692  0.43378876  0.57943993  1
  H+  H77  1  0.72091761  0.36268716  0.16974508  1
  H+  H78  1  0.68848674  0.66040465  0.85451860  1
  H+  H79  1  0.62450152  0.65029105  0.67090720  1
  H+  H80  1  0.62897320  0.27634939  0.65660361  1
  H+  H81  1  0.21744473  0.85941617  0.99427640  1
  H+  H82  1  0.30797541  0.42640204  0.17425833  1
  H+  H83  1  0.15296298  0.39223594  0.18791353  1
  H+  H84  1  0.65628681  0.37628253  0.85930317  1
  H+  H85  1  0.03316377  0.64579801  0.35421202  1
  H+  H86  1  0.59360675  0.12917627  0.18034583  1
  H+  H87  1  0.95318508  0.58453948  0.87435991  1
  H+  H88  1  0.88039703  0.28002398  0.16573923  1
  H+  H89  1  0.37127584  0.51987925  0.84583513  1
  H+  H90  1  0.98085580  0.51563843  -0.05866401  1
  H+  H91  1  0.44319677  0.62226296  0.83438478  1
  H+  H92  1  0.21041655  0.10639071  0.83752305  1
  H+  H93  1  0.62610159  0.13948821  0.82039115  1
  H+  H94  1  0.47454167  0.62408427  0.33281203  1
  H+  H95  1  0.78086438  0.14741198  0.14187166  1
  H+  H96  1  0.34809841  0.21013749  0.67084543  1
  H+  H97  1  0.88721184  0.02671319  0.51315236  1
  H+  H98  1  0.50325440  0.88439496  0.01191026  1
  H+  H99  1  0.20286995  0.61224633  0.84099144  1
  H+  H100  1  0.85126485  0.88198177  0.83545058  1
  H+  H101  1  0.01222913  0.86900508  0.15355906  1
  H+  H102  1  0.47651625  0.86899977  0.17773587  1
  H+  H103  1  0.53100025  0.15343064  0.34403375  1
  H+  H104  1  0.12799831  0.24526864  0.65690457  1
  H+  H105  1  0.78372848  0.64136481  0.33293509  1
  H+  H106  1  0.89301681  0.11753855  0.50710494  1
  H+  H107  1  0.13881376  0.26431205  0.50384891  1
  H+  H108  1  0.40922709  0.83306417  0.93641261  1
  H+  H109  1  0.78217436  0.14941986  0.68532276  1
  H+  H110  1  0.13469329  0.89529683  0.71049989  1
  H+  H111  1  0.63673261  0.61519398  1.00316903  1
  H+  H112  1  0.61446798  0.00977992  0.19334976  1
  H+  H113  1  0.22485219  0.11291278  0.50843372  1
  H+  H114  1  0.46035159  0.84793454  0.67244646  1
  H+  H115  1  0.36635572  0.64344396  1.00404682  1
  H+  H116  1  0.92097782  0.84408177  0.22827876  1
  H+  H117  1  0.39316103  0.03829225  0.32928988  1
  H+  H118  1  0.04967639  0.32663321  0.12499821  1
  H+  H119  1  0.86414159  -0.00670710  0.97140531  1
  H+  H120  1  0.61616537  0.24383544  0.34390027  1
  H+  H121  1  0.02249344  0.38346687  0.49359295  1
  H+  H122  1  0.11169188  0.61016552  0.84416914  1
  H+  H123  1  0.10980656  0.17787645  0.16972504  1
  H+  H124  1  0.80473149  0.87529250  -0.02584829  1
  H+  H125  1  0.13833833  0.03534908  0.98884182  1
  H+  H126  1  0.62929212  0.22931185  0.82763613  1
  H+  H127  1  0.76691409  0.17388549  0.50622920  1
  H+  H128  1  0.36949550  0.15360346  0.15123210  1
  H+  H129  1  0.51433775  0.84497050  0.44610804  1
  H+  H130  1  0.10841307  0.69848957  0.67903055  1
  H+  H131  1  0.11809290  0.15282760  -0.00130516  1
  H+  H132  1  0.49773629  0.38097242  0.64739926  1
  H+  H133  1  0.89766260  0.62441525  0.32901985  1
  H+  H134  1  0.92593001  0.47249624  0.71756714  1
  H+  H135  1  0.14166048  0.10957749  0.35470126  1
  H+  H136  1  0.87934368  0.82986840  0.42787552  1
  H+  H137  1  0.38613611  0.39441125  0.67518391  1
  H+  H138  1  0.36899422  0.23555676  0.34707660  1
  H+  H139  1  0.36629801  0.97362140  0.15336273  1
  H+  H140  1  0.72567551  0.37788455  0.32491910  1
  H+  H141  1  0.57796968  0.90842800  0.36835583  1
  H+  H142  1  0.90188892  0.12523873  0.66765664  1
  H+  H143  1  0.60622437  0.85581385  0.45888072  1
  H+  H144  1  0.87601239  0.01775320  0.16479233  1
  H+  H145  1  0.16783288  0.33766944  0.28552283  1
  H+  H146  1  -0.00931746  0.91191910  0.67735861  1
  H+  H147  1  0.40994694  0.62966007  0.48883038  1
  H+  H148  1  0.41662391  0.50226361  0.52091220  1
  H+  H149  1  0.54493504  0.58227234  0.36089683  1
  H+  H150  1  0.88165066  0.77965703  0.64922470  1
  H+  H151  1  0.65044472  0.62719843  0.32519243  1
  H+  H152  1  0.12930860  0.52289533  0.33074687  1
  H+  H153  1  0.61977521  0.73203223  0.16077929  1
  H+  H154  1  0.39106708  0.51256853  0.16145532  1
  H+  H155  1  0.52131331  0.27360596  0.77515013  1
  H+  H156  1  0.37662028  0.10426768  0.66068553  1
  H+  H157  1  0.59057116  0.97425093  0.01475761  1
  H+  H158  1  0.11222879  0.39070054  0.00256176  1
  H+  H159  1  0.40023597  0.07233314  -0.06095789  1
  H+  H160  1  0.25821983  0.63265876  0.33617996  1
  H+  H161  1  0.63757769  0.77233086  0.50220993  1
  H+  H162  1  0.85521948  0.47931471  0.15295601  1
  H+  H163  1  0.39100165  0.26783195  0.98519747  1
  H+  H164  1  0.45505964  0.33016100  0.70584239  1
  H+  H165  1  0.13265409  0.28327624  0.99648635  1
  H+  H166  1  0.22993275  0.35748492  0.34007684  1
  H+  H167  1  0.87280631  0.52709662  0.65785269  1
  H+  H168  1  0.99540271  0.59650193  0.97723552  1
  H+  H169  1  0.66151915  1.03375804  0.45311852  1
  H+  H170  1  0.39067361  0.03617812  0.84626881  1
  H+  H171  1  0.11080681  0.46873890  0.49294733  1
  H+  H172  1  0.27069882  0.40380127  0.83768617  1
  H+  H173  1  0.41234659  0.64930193  0.51981750  1
  H+  H174  1  0.35407331  0.70742377  0.68646494  1
  H+  H175  1  0.95953987  0.35279451  0.65582925  1
  H+  H176  1  0.39332529  0.12808871  0.33232364  1
  H+  H177  1  0.86048513  0.23028760  0.71731634  1
  H+  H178  1  0.86053662  0.39819237  0.48682999  1
  H+  H179  1  0.64238742  0.49419167  0.81937862  1
  H+  H180  1  0.86053953  0.48675029  0.49066523  1
  H+  H181  1  0.86416488  0.89596049  0.49262238  1
  H+  H182  1  0.86522038  0.72593545  0.47576558  1
  H+  H183  1  1.00724744  0.37207886  0.15970879  1
  H+  H184  1  0.65772484  0.83596294  0.55920844  1
  H+  H185  1  0.61822968  0.72875395  0.83594116  1
  H+  H186  1  0.76110195  0.88038351  0.84202462  1
  H+  H187  1  0.88503252  0.28842126  0.49608898  1
  H+  H188  1  0.35542717  0.88565438  0.68690335  1
  H+  H189  1  0.85309470  0.12188875  0.85462895  1
  H+  H190  1  0.52889306  0.64702345  0.16535755  1
  H+  H191  1  0.11343234  0.60403227  0.51245316  1
  H+  H192  1  0.46795811  0.10784210  0.66252342  1
  H+  H193  1  0.34482092  0.17350495  0.43934735  1
  H+  H194  1  0.60879674  0.72766882  1.01271969  1
  H+  H195  1  0.29546433  0.39563870  0.65967122  1
  H+  H196  1  0.72937275  0.35981902  0.99991024  1
  H+  H197  1  0.13735267  0.37873011  0.84573760  1
  H+  H198  1  0.46078720  0.85123344  0.84329928  1
  H+  H199  1  0.61099433  0.14319232  0.66544312  1
  H+  H200  1  0.47929792  0.37438712  0.33101945  1
  H+  H201  1  0.07829009  0.36317178  0.68786622  1
  H+  H202  1  0.13214036  0.60944146  0.15950836  1
  H+  H203  1  0.30489947  0.67574975  0.41930524  1
  H+  H204  1  0.97253158  0.11364808  0.32808997  1
  H+  H205  1  0.13766257  0.61462362  0.33747633  1
  H+  H206  1  0.61731935  0.40264731  0.34053763  1
  H+  H207  1  0.34723148  0.48776020  1.01248870  1
  H+  H208  1  0.92839573  0.83629510  0.59192968  1
  H+  H209  1  0.63972172  0.61866150  0.17045253  1
  H+  H210  1  0.85583218  0.12940456  0.33654918  1
  H+  H211  1  0.11701444  0.64113718  0.00840149  1
  H+  H212  1  0.35729680  0.39852648  0.83692673  1
  H+  H213  1  0.23162368  0.11688749  0.17564465  1
  H+  H214  1  0.86261672  0.37841935  1.00840169  1
  H+  H215  1  0.32728518  0.64799914  0.48162796  1
  H+  H216  1  0.88141814  0.25689314  0.84780365  1
  H+  H217  1  0.12324854  0.73300252  0.35038710  1
  H+  H218  1  0.16824164  0.35195798  0.90500967  1
  H+  H219  1  0.97580707  0.36536849  0.99764404  1
  H+  H220  1  0.13198964  0.52284789  0.15117142  1
  H+  H221  1  0.04735579  0.93793701  0.73929485  1
  H+  H222  1  0.38382971  0.87178199  0.16820337  1
  H+  H223  1  0.87481204  0.62240288  0.16452504  1
  H+  H224  1  0.02972831  0.88012750  0.34803122  1
  H+  H225  1  0.72620810  0.37187107  0.50117969  1
  H+  H226  1  0.59948984  0.87286292  0.67395740  1
  H+  H227  1  0.38104958  0.77244485  0.99570024  1
  H+  H228  1  0.22640093  0.83726705  0.66330429  1
  H+  H229  1  0.62588543  0.64904564  0.48640940  1
  H+  H230  1  0.97168213  0.85129738  0.45230568  1
  H+  H231  1  0.88519751  0.11079896  0.16787761  1
  H+  H232  1  0.14756847  0.02502918  0.36699651  1
  H+  H233  1  0.61587696  0.86261158  0.00327623  1
  H+  H234  1  0.76538738  0.84169127  0.35055310  1
  H+  H235  1  0.84046281  0.67856621  0.72945827  1
  H+  H236  1  0.50512099  0.59311636  0.51790610  1
  H+  H237  1  0.73453194  0.10652017  0.99124851  1
  H+  H238  1  0.86690997  0.48185937  0.33713329  1
  H+  H239  1  0.32937223  0.05005341  0.19901187  1
  H+  H240  1  0.64936946  0.53882372  0.32503269  1
  H+  H241  1  0.35592841  0.89219947  0.83409619  1
  H+  H242  1  0.10074465  0.89045277  0.82695021  1
  H+  H243  1  0.33257535  0.62848435  0.84057486  1
  H+  H244  1  1.01134555  0.11582624  0.15675462  1
  H+  H245  1  0.84409217  0.21264314  0.33574312  1
  H+  H246  1  0.44727639  0.33995855  0.82969079  1
  H+  H247  1  0.86541055  0.74017436  1.00961636  1
  H+  H248  1  0.35060252  0.88102112  0.00573391  1
  H+  H249  1  0.84604961  0.17167861  0.41634540  1
  H+  H250  1  0.58829719  0.95542038  0.68786015  1
  H+  H251  1  0.63066363  0.27508839  0.17665557  1
  H+  H252  1  0.22059876  0.88053973  0.84170524  1
  H+  H253  1  0.86443091  0.64660413  0.66866087  1
  H+  H254  1  0.36370703  0.37560877  0.49362733  1
  H+  H255  1  0.88672136  0.64724867  0.81641675  1
  H+  H256  1  0.35289981  -0.02732185  0.67651072  1
  H+  H257  1  0.19229859  0.41216639  0.63361334  1
  H+  H258  1  0.88545594  0.61719500  0.50508317  1
  H+  H259  1  0.73869031  0.63382364  0.65603234  1
  H+  H260  1  0.14087237  0.86127155  0.33511836  1
  H+  H261  1  0.57352969  0.91570134  0.11036169  1
  H+  H262  1  0.62784940  0.73974230  0.32440505  1
  H+  H263  1  0.51046251  0.13642956  0.16992822  1
  H+  H264  1  0.91059281  0.32412191  0.94295384  1
  H+  H265  1  0.14773871  0.12686975  0.65262230  1
  H+  H266  1  0.53711918  0.14547526  0.49549050  1
  H+  H267  1  0.13823402  0.35466218  0.50046557  1
  H+  H268  1  0.37930900  0.87335688  0.32076119  1
  H+  H269  1  0.61800683  0.38968735  1.00517181  1
  H+  H270  1  0.11245643  0.73492413  0.49975720  1
  H+  H271  1  0.36569816  0.48735466  0.34234164  1
  H+  H272  1  0.90191803  0.88374095  0.99521221  1
  H+  H273  1  0.88082969  0.36922919  0.16881217  1
  H+  H274  1  0.26998055  0.14185428  0.00041718  1
  H+  H275  1  -0.00149972  0.11833549  0.84790260  1
  H+  H276  1  0.11697739  0.13353653  0.49856537  1
  H+  H277  1  0.84598874  0.99041582  0.68484932  1
  H+  H278  1  0.71725043  0.09302559  0.84215142  1
  H+  H279  1  0.86628912  0.35421027  0.32574973  1
  H+  H280  1  0.55868713  0.62544117  0.83591470  1
  H+  H281  1  0.11076435  0.72793959  0.16323013  1
  H+  H282  1  0.08219585  0.12370400  0.82529873  1
  H+  H283  1  0.61310302  0.39275475  0.15629943  1
  H+  H284  1  0.47750152  0.61902825  -0.00248326  1
  H+  H285  1  0.77821905  0.64970077  1.01218277  1
  H+  H286  1  0.86144670  0.35468262  0.84059866  1
  H+  H287  1  0.33976180  0.21876684  0.82687795  1
  H+  H288  1  0.42173225  0.33324887  0.23608354  1
  H+  H289  1  0.16539604  0.08135823  0.56703339  1
  H+  H290  1  0.64108348  0.52777376  0.99686960  1
  H+  H291  1  0.07517407  0.66575645  0.06387194  1
  H+  H292  1  0.88514749  0.77310072  0.83964164  1
  H+  H293  1  0.44254554  0.56941586  0.60519659  1
  H+  H294  1  0.42146497  0.08385403  0.56753001  1
  H+  H295  1  0.48001343  0.35738206  0.98322345  1
  H+  H296  1  0.42791360  0.60748933  0.23695564  1
  H+  H297  1  0.34174490  0.93171296  0.39253525  1
  H+  H298  1  0.57734776  0.37313644  0.76685096  1
  H+  H299  1  0.16143148  0.58842063  0.93581696  1
  H+  H300  1  0.64965879  0.82510939  0.91095268  1
  H+  H301  1  0.58124981  0.66513700  0.42847271  1
  H+  H302  1  0.62382477  0.39682957  0.63551053  1
  H+  H303  1  0.13684458  0.55295375  0.59994660  1
  H+  H304  1  0.40726744  0.32495779  0.89722028  1
  H+  H305  1  0.82923271  0.41676861  0.09577579  1
  H+  H306  1  0.15700017  0.84278185  0.89714970  1
  H+  H307  1  0.71315544  0.14826531  0.59565859  1
  H+  H308  1  0.91450947  0.08313758  0.26873308  1
  H+  H309  1  0.83953370  0.66363891  0.39428617  1
  H+  H310  1  0.59998412  0.95930767  0.83115318  1
  H+  H311  1  0.67389790  0.59118858  0.22847552  1
  H+  H312  1  0.58879176  0.17130919  0.72756808  1
  H+  H313  1  0.58362242  0.17111522  0.08016924  1
  H+  H314  1  0.86616133  0.46729180  -0.00127458  1
  H+  H315  1  0.82918286  0.42481335  0.39660452  1
  H+  H316  1  0.04721903  0.64539657  0.77144394  1
  H+  H317  1  0.31737785  0.15665840  0.76868753  1
  H+  H318  1  0.83423726  0.14605435  0.78796980  1
  H+  H319  1  0.86716679  0.56434666  0.22054403  1
  H+  H320  1  0.56745533  0.89360202  0.77496472  1
  H+  H321  1  0.77635120  0.63685311  0.48673633  1
  H+  H322  1  0.07687251  0.15962742  0.40300287  1
  H+  H323  1  0.34706799  0.97070834  0.00508218  1
  H+  H324  1  0.44530238  0.84515326  0.52599103  1
  H+  H325  1  0.67970995  0.60350583  0.55890085  1
  H+  H326  1  0.32906027  0.92499198  0.77526105  1
  H+  H327  1  0.16989901  0.83501753  0.27269181  1
  H+  H328  1  0.59012024  0.43349861  0.40065373  1
  H+  H329  1  0.13989109  0.86048764  0.17423847  1
  H+  H330  1  0.98587174  0.87570709  0.98948420  1
  H+  H331  1  0.84305519  0.16148560  0.08857797  1
  H+  H332  1  0.83660675  0.68156842  0.09709535  1
  H+  H333  1  0.83362864  0.40163460  0.78059993  1
  H+  H334  1  0.90911562  0.34468095  0.55639982  1
  H+  H335  1  0.66889730  0.82971326  0.23371596  1
  H+  H336  1  0.33793693  0.66515576  0.09902178  1
  H+  H337  1  0.13723248  0.81751050  0.63833121  1
  H+  H338  1  0.06036866  0.41598639  0.77337752  1
  H+  H339  1  0.92095903  0.09033867  0.60635233  1
  H+  H340  1  0.64216745  0.53407413  0.50457668  1
  H+  H341  1  0.71435440  0.17364893  0.96234274  1
  H+  H342  1  0.36755476  0.23975508  0.15884296  1
  H+  H343  1  0.61451025  0.38909103  0.49565252  1
  H+  H344  1  0.06898412  0.40971249  0.39464432  1
  H+  H345  1  0.18951555  0.34666930  0.58403822  1
  H+  H346  1  0.40737606  0.84214994  0.23943635  1
  H+  H347  1  0.38192038  0.11835666  0.84829344  1
  H+  H348  1  0.66350597  0.34591949  0.26679328  1
  H+  H349  1  0.08559299  0.17104136  0.06005430  1
  H+  H350  1  0.41378919  0.32340588  0.56786823  1
  H+  H351  1  0.39010261  0.37281046  0.32980763  1
  H+  H352  1  0.65510243  0.07055436  0.89714915  1
  H+  H353  1  0.82610834  0.90203266  0.40384513  1
  H+  H354  1  0.59312118  0.03599232  0.29693074  1
  H+  H355  1  0.08091030  0.42283191  0.06061594  1
  H+  H356  1  0.89715342  0.32588134  0.26674508  1
  H+  H357  1  0.61577151  0.48274777  0.15523118  1
  H+  H358  1  0.70546331  0.62445240  0.91730069  1
  H+  H359  1  0.90871035  0.58349656  0.59665882  1
  H+  H360  1  0.34436337  0.42758757  0.40191413  1
  H+  H361  1  0.59659998  0.67498986  0.73376497  1
  H+  H362  1  0.58166411  0.66763642  0.07136086  1
  H+  H363  1  0.82465027  0.91368297  0.08865400  1
  H+  H364  1  0.16303146  0.08984606  0.92763525  1
  H+  H365  1  0.95621687  0.61444133  0.27798691  1
  H+  H366  1  1.00884949  0.88655919  0.83146873  1
  H+  H367  1  0.41665468  0.59164811  0.93757884  1
  H+  H368  1  0.10992491  0.57920550  0.66234749  1
  H+  H369  1  0.66949720  0.33153683  0.59682072  1
  H+  H370  1  0.87323394  0.26862119  0.63524310  1
  H+  H371  1  0.32879152  0.17303306  0.06075027  1
  H+  H372  1  0.40733483  0.08463134  0.24387835  1
  H+  H373  1  0.33168178  0.91270907  0.09248519  1
  H+  H374  1  0.16797481  0.87325580  0.53394686  1
  H+  H375  1  0.02778646  0.13547080  0.50129240  1
  H+  H376  1  0.38720241  0.81520581  0.62142385  1
  H+  H377  1  0.80940062  0.93345695  0.74479076  1
  H+  H378  1  0.46605432  0.86738041  0.31559892  1
  H+  H379  1  0.08324054  0.91946903  0.05701752  1
  H+  H380  1  0.32513283  0.43721359  0.07496592  1
  H+  H381  1  0.58341190  0.41933360  0.06144363  1
  H+  H382  1  0.78835766  0.04080465  0.04006747  1
  H+  H383  1  0.31358083  0.65404806  0.77619292  1
  O2-  O384  1  0.07049857  0.13747438  0.13994117  1
  O2-  O385  1  0.08671812  0.16585278  0.48397977  1
  O2-  O386  1  0.03797927  0.13807697  0.81346785  1
  O2-  O387  1  0.06310393  0.38271460  0.14066976  1
  O2-  O388  1  0.08323065  0.40731816  0.48061698  1
  O2-  O389  1  0.06046399  0.41710378  0.81848356  1
  O2-  O390  1  0.07599842  0.67018576  0.14410785  1
  O2-  O391  1  0.07887962  0.67279911  0.48948366  1
  O2-  O392  1  0.04441607  0.64770091  0.81720007  1
  O2-  O393  1  0.06073220  0.86797771  0.13117703  1
  O2-  O394  1  0.06241529  0.86947025  0.43143328  1
  O2-  O395  1  0.06774348  0.91971110  0.81418230  1
  O2-  O396  1  0.33604828  0.18029230  0.13868231  1
  O2-  O397  1  0.34158362  0.17092918  0.48520348  1
  O2-  O398  1  0.31587781  0.15772432  0.81375048  1
  O2-  O399  1  0.35760435  0.45205955  0.14698764  1
  O2-  O400  1  0.34025083  0.41295050  0.48064091  1
  O2-  O401  1  0.33328896  0.43523002  0.82421224  1
  O2-  O402  1  0.33644873  0.66170174  0.14399546  1
  O2-  O403  1  0.29974631  0.67941966  0.46627841  1
  O2-  O404  1  0.30603691  0.65987424  0.82105360  1
  O2-  O405  1  0.33667498  0.91319366  0.13957447  1
  O2-  O406  1  0.34142030  0.93384958  0.46817254  1
  O2-  O407  1  0.33155049  0.92820090  0.82045410  1
  O2-  O408  1  0.57171894  0.16368203  0.15984342  1
  O2-  O409  1  0.59638897  0.18076291  0.47919513  1
  O2-  O410  1  0.62145473  0.18492624  0.79827714  1
  O2-  O411  1  0.58396887  0.42284642  0.13936994  1
  O2-  O412  1  0.58507735  0.42391632  0.48848243  1
  O2-  O413  1  0.51840688  0.32567890  0.76845707  1
  O2-  O414  1  0.58881044  0.67110901  0.14725560  1
  O2-  O415  1  0.58773856  0.67231060  0.47548887  1
  O2-  O416  1  0.60445807  0.67354802  0.81397940  1
  O2-  O417  1  0.57487069  0.91430830  0.15576601  1
  O2-  O418  1  0.56622502  0.85132657  0.42606115  1
  O2-  O419  1  0.56816647  0.89676017  0.82009787  1
  O2-  O420  1  0.84188511  0.17692807  0.13219483  1
  O2-  O421  1  0.87111556  0.19009938  0.46256868  1
  O2-  O422  1  0.82782706  0.15288793  0.83201806  1
  O2-  O423  1  0.82757237  0.41768288  0.14149813  1
  O2-  O424  1  0.82839965  0.42723476  0.47324267  1
  O2-  O425  1  0.82838883  0.38978779  0.82591951  1
  O2-  O426  1  0.83651121  0.67930244  0.14423643  1
  O2-  O427  1  0.83653783  0.66171665  0.47064212  1
  O2-  O428  1  0.85247211  0.67451444  0.80619775  1
  O2-  O429  1  0.82533866  0.91582377  0.13383792  1
  O2-  O430  1  0.83388764  0.92841439  0.48546397  1
  O2-  O431  1  0.82194585  0.91670320  0.82903971  1
  O2-  O432  1  0.17894425  0.07405926  0.19674798  1
  O2-  O433  1  0.16448096  0.08501648  0.52169410  1
  O2-  O434  1  0.15175383  0.07985139  0.85543078  1
  O2-  O435  1  0.19164261  0.37381757  0.20556851  1
  O2-  O436  1  0.17196980  0.32791288  0.51550563  1
  O2-  O437  1  0.17482941  0.35733617  0.85996420  1
  O2-  O438  1  0.16515576  0.58030328  0.16789487  1
  O2-  O439  1  0.14528658  0.57302324  0.52211018  1
  O2-  O440  1  0.14277538  0.58040225  0.85806030  1
  O2-  O441  1  0.17255687  0.83473867  0.19249192  1
  O2-  O442  1  0.17213761  0.85083424  0.49457943  1
  O2-  O443  1  0.15875315  0.84933574  0.85243523  1
  O2-  O444  1  0.39120558  0.07136168  0.19855566  1
  O2-  O445  1  0.42876619  0.09133968  0.52246282  1
  O2-  O446  1  0.41820520  0.09515711  0.86335726  1
  O2-  O447  1  0.41942705  0.32638354  0.19136365  1
  O2-  O448  1  0.41809821  0.32619975  0.52359199  1
  O2-  O449  1  0.39383766  0.32373422  0.85140894  1
  O2-  O450  1  0.43635815  0.61273296  0.19203228  1
  O2-  O451  1  0.46511169  0.54599130  0.54576946  1
  O2-  O452  1  0.39637160  0.58527533  0.86135448  1
  O2-  O453  1  0.41433807  0.84422411  0.19092806  1
  O2-  O454  1  0.42063033  0.83896149  0.48566822  1
  O2-  O455  1  0.40121430  0.82794123  0.85889460  1
  O2-  O456  1  0.63062174  0.06441499  0.21594655  1
  O2-  O457  1  0.73499235  0.19133175  0.53319498  1
  O2-  O458  1  0.65477930  0.06383722  0.85238201  1
  O2-  O459  1  0.66217506  0.33713506  0.18739274  1
  O2-  O460  1  0.66623497  0.34081727  0.51759974  1
  O2-  O461  1  0.67601018  0.33611878  0.86921861  1
  O2-  O462  1  0.67261198  0.58953443  0.18309302  1
  O2-  O463  1  0.67796596  0.59648742  0.51364519  1
  O2-  O464  1  0.73034286  0.65142059  0.87718130  1
  O2-  O465  1  0.66548137  0.83807810  0.18913838  1
  O2-  O466  1  0.66568051  0.83476367  0.51472659  1
  O2-  O467  1  0.65365399  0.82276396  0.86556475  1
  O2-  O468  1  0.91037798  0.07650071  0.18270986  1
  O2-  O469  1  0.91940607  0.08773564  0.52815333  1
  O2-  O470  1  0.88740649  0.06181637  0.88661120  1
  O2-  O471  1  0.90969141  0.33765338  0.18485455  1
  O2-  O472  1  0.91514211  0.34843482  0.51145645  1
  O2-  O473  1  0.90698279  0.31931423  0.85944532  1
  O2-  O474  1  0.89844990  0.58512665  0.18234002  1
  O2-  O475  1  0.91367432  0.58582604  0.52296592  1
  O2-  O476  1  0.95189336  0.59338186  0.82944808  1
  O2-  O477  1  0.91559158  0.84347696  0.18299413  1
  O2-  O478  1  0.90917386  0.83055646  0.46569038  1
  O2-  O479  1  0.90463746  0.83239485  0.85475809  1
  O2-  O480  1  0.18176820  0.08701040  0.35952648  1
  O2-  O481  1  0.16756263  0.08425088  0.64432687  1
  O2-  O482  1  0.16821553  0.09523165  0.97370054  1
  O2-  O483  1  0.16897977  0.32157883  0.32809266  1
  O2-  O484  1  0.19964006  0.36233030  0.62971695  1
  O2-  O485  1  0.15888192  0.34557896  0.98366146  1
  O2-  O486  1  0.16602162  0.58489640  0.31941760  1
  O2-  O487  1  0.13066157  0.54197995  0.64466318  1
  O2-  O488  1  0.16744874  0.58998821  0.98105404  1
  O2-  O489  1  0.17344593  0.83413937  0.31788557  1
  O2-  O490  1  0.17365980  0.79203093  0.64223685  1
  O2-  O491  1  0.15721347  0.83322969  0.97838492  1
  O2-  O492  1  0.42354679  0.09861533  0.31387388  1
  O2-  O493  1  0.40826529  0.07477909  0.64615479  1
  O2-  O494  1  0.38865313  0.05974856  0.98356543  1
  O2-  O495  1  0.41888826  0.33979213  0.31714271  1
  O2-  O496  1  0.43878226  0.34421285  0.66621216  1
  O2-  O497  1  0.42183159  0.32550116  0.96554244  1
  O2-  O498  1  0.41457191  0.59420525  0.31541174  1
  O2-  O499  1  0.42968394  0.57573926  0.65084718  1
  O2-  O500  1  0.41711462  0.59378184  0.98283829  1
  O2-  O501  1  0.40362950  0.83738308  0.30336653  1
  O2-  O502  1  0.39655147  0.81941112  0.66506965  1
  O2-  O503  1  0.41098106  0.83472956  0.98202124  1
  O2-  O504  1  0.57618724  0.00960196  0.33777275  1
  O2-  O505  1  0.69689938  0.11793451  0.63764898  1
  O2-  O506  1  0.68661317  0.11289900  0.97292437  1
  O2-  O507  1  0.66412273  0.34948852  0.31209648  1
  O2-  O508  1  0.66363252  0.33619561  0.64153998  1
  O2-  O509  1  0.66856617  0.32958818  0.98469442  1
  O2-  O510  1  0.68209830  0.59848235  0.30819416  1
  O2-  O511  1  0.67949867  0.60812437  0.63723538  1
  O2-  O512  1  0.67261030  0.59095243  0.98818957  1
  O2-  O513  1  0.66283709  0.80196685  0.31255001  1
  O2-  O514  1  0.65432512  0.84000330  0.64481512  1
  O2-  O515  1  0.64865109  0.83511511  0.98827909  1
  O2-  O516  1  0.91212947  0.08688702  0.31324522  1
  O2-  O517  1  0.92638797  0.09119325  0.65162224  1
  O2-  O518  1  0.90372709  0.06129674  0.95197744  1
  O2-  O519  1  0.89287130  0.32014127  0.31159862  1
  O2-  O520  1  0.90092507  0.33118961  0.63644747  1
  O2-  O521  1  0.91302454  0.33179559  0.98745694  1
  O2-  O522  1  0.93196504  0.59474451  0.31839008  1
  O2-  O523  1  0.90834484  0.58601195  0.64277650  1
  O2-  O524  1  0.95309746  0.54937967  0.94947750  1
  O2-  O525  1  0.93357827  0.83621087  0.30748647  1
  O2-  O526  1  0.90475060  0.83785239  0.63135523  1
  O2-  O527  1  0.92273069  0.84637340  0.97881712  1
  O2-  O528  1  0.08984243  0.18354050  0.01620544  1
  O2-  O529  1  0.07720720  0.15707850  0.35782775  1
  O2-  O530  1  0.10572782  0.18577851  0.66942378  1
  O2-  O531  1  0.08134307  0.42452113  0.01582885  1
  O2-  O532  1  0.06345321  0.42189756  0.35179513  1
  O2-  O533  1  0.04956810  0.39649867  0.69337893  1
  O2-  O534  1  0.07914040  0.66573263  0.01868666  1
  O2-  O535  1  0.09301893  0.67483376  0.36966210  1
  O2-  O536  1  0.06563929  0.64026982  0.69537905  1
  O2-  O537  1  0.08567064  0.92537101  0.01221942  1
  O2-  O538  1  0.08668455  0.90399283  0.36917070  1
  O2-  O539  1  0.04153398  0.95787381  0.69846394  1
  O2-  O540  1  0.33037281  0.16680623  0.01577962  1
  O2-  O541  1  0.34657084  0.17669037  0.36408366  1
  O2-  O542  1  0.32045861  0.15147512  0.68655814  1
  O2-  O543  1  0.30904557  0.43109636  0.03082166  1
  O2-  O544  1  0.34159521  0.42692219  0.35665973  1
  O2-  O545  1  0.35281158  0.42573675  0.68118156  1
  O2-  O546  1  0.33572933  0.67432697  0.01857913  1
  O2-  O547  1  0.32120535  0.66949751  0.35242691  1
  O2-  O548  1  0.33159411  0.64886116  0.70246548  1
  O2-  O549  1  0.31871797  0.90815961  0.02320958  1
  O2-  O550  1  0.34010235  0.92990386  0.34678910  1
  O2-  O551  1  0.32203029  0.91449786  0.69599941  1
  O2-  O552  1  0.58923384  0.17842795  0.03544340  1
  O2-  O553  1  0.59013095  0.18484588  0.36059321  1
  O2-  O554  1  0.57626527  0.16658933  0.68263756  1
  O2-  O555  1  0.58763912  0.42123075  0.01594824  1
  O2-  O556  1  0.58976336  0.43598504  0.35579154  1
  O2-  O557  1  0.59708670  0.43390106  0.62423231  1
  O2-  O558  1  0.58111754  0.66658299  0.02557827  1
  O2-  O559  1  0.57318640  0.64468485  0.35898451  1
  O2-  O560  1  0.58993139  0.67493555  0.68886560  1
  O2-  O561  1  0.56359122  0.91593844  0.03079654  1
  O2-  O562  1  0.57164768  0.92704596  0.32572577  1
  O2-  O563  1  0.56157215  0.89403811  0.69526783  1
  O2-  O564  1  0.81426179  0.09891903  0.02341976  1
  O2-  O565  1  0.82183728  0.15512040  0.35472558  1
  O2-  O566  1  0.83828068  0.17012346  0.70715676  1
  O2-  O567  1  0.83241663  0.41180932  0.02017323  1
  O2-  O568  1  0.82895054  0.42206637  0.35091991  1
  O2-  O569  1  0.86506025  0.43195979  0.71071225  1
  O2-  O570  1  0.83815309  0.68205435  0.02797284  1
  O2-  O571  1  0.84437553  0.66819046  0.34862003  1
  O2-  O572  1  0.83601687  0.67840847  0.68399669  1
  O2-  O573  1  0.82001366  0.92167393  0.00330469  1
  O2-  O574  1  0.82319855  0.86561750  0.36913785  1
  O2-  O575  1  0.79373351  0.94285356  0.70370645  1
