# generated using pymatgen
data_H2O
_symmetry_space_group_name_H-M   'P 1'
_cell_length_a   17.98971392
_cell_length_b   17.98884016
_cell_length_c   21.98034374
_cell_angle_alpha   90.00103885
_cell_angle_beta   89.99012817
_cell_angle_gamma   119.98875753
_symmetry_Int_Tables_number   1
_chemical_formula_structural   H2O
_chemical_formula_sum   'H384 O192'
_cell_volume   6160.86528358
_cell_formula_units_Z   192
loop_
 _symmetry_equiv_pos_site_id
 _symmetry_equiv_pos_as_xyz
  1  'x, y, z'
loop_
 _atom_type_symbol
 _atom_type_oxidation_number
  H+  1.0
  O2-  -2.0
loop_
 _atom_site_type_symbol
 _atom_site_label
 _atom_site_symmetry_multiplicity
 _atom_site_fract_x
 _atom_site_fract_y
 _atom_site_fract_z
 _atom_site_occupancy
  H+  H0  1  0.94249538  0.72039480  0.78124886  1
  H+  H1  1  0.13874098  0.02328982  0.32907426  1
  H+  H2  1  0.18868197  0.53086659  0.60573167  1
  H+  H3  1  0.37543103  0.27407962  0.18200362  1
  H+  H4  1  0.64206110  0.77647162  0.33129206  1
  H+  H5  1  0.21365570  1.09550234  0.14708478  1
  H+  H6  1  0.63348827  0.26440202  0.31088068  1
  H+  H7  1  0.97553505  0.60868059  0.32788760  1
  H+  H8  1  0.86001320  0.49515225  0.00941437  1
  H+  H9  1  0.88391273  0.85878643  0.32800100  1
  H+  H10  1  0.88250003  0.11398485  0.18210128  1
  H+  H11  1  0.52931606  0.88882864  0.01117403  1
  H+  H12  1  0.39407191  0.61792716  0.64790719  1
  H+  H13  1  0.64133259  0.61701389  0.33115011  1
  H+  H14  1  0.64541758  0.27541804  0.66067675  1
  H+  H15  1  0.36366419  0.64259098  0.17221258  1
  H+  H16  1  0.52802482  0.39240010  0.81459235  1
  H+  H17  1  0.42363370  0.31838611  0.62219488  1
  H+  H18  1  0.13101887  1.03668708  0.84388420  1
  H+  H19  1  0.63510233  0.02323055  0.64245880  1
  H+  H20  1  0.52511600  0.88638315  0.16192812  1
  H+  H21  1  0.10319312  0.90241664  0.83788817  1
  H+  H22  1  0.77284216  0.88302512  0.48790297  1
  H+  H23  1  0.14198804  0.11253186  0.33767116  1
  H+  H24  1  0.72724940  0.86551564  0.17668715  1
  H+  H25  1  0.61425520  0.72789919  0.66591733  1
  H+  H26  1  0.27475367  0.87781717  0.82850282  1
  H+  H27  1  0.52582895  0.63931628  0.66619659  1
  H+  H28  1  0.62540077  0.48038994  0.67121204  1
  H+  H29  1  0.63919776  0.77924102  0.99250145  1
  H+  H30  1  0.88134795  0.26991884  0.48968609  1
  H+  H31  1  0.53355138  0.14094903  0.81361798  1
  H+  H32  1  0.03744797  0.41220832  0.01775068  1
  H+  H33  1  0.53189082  0.13858011  0.67488484  1
  H+  H34  1  0.01952947  0.89382895  -0.00561435  1
  H+  H35  1  0.77866244  0.14370546  0.82566794  1
  H+  H36  1  0.13365377  0.59037229  0.83738153  1
  H+  H37  1  0.13478287  0.35853059  0.18331417  1
  H+  H38  1  1.02036956  0.13939884  1.01485721  1
  H+  H39  1  0.64292755  0.12478033  0.49112131  1
  H+  H40  1  0.40002781  0.63393301  0.29775720  1
  H+  H41  1  0.13714542  0.61708713  0.17265221  1
  H+  H42  1  0.11525107  0.38043518  0.82090844  1
  H+  H43  1  0.28647113  0.41023772  0.48963699  1
  H+  H44  1  0.11700172  0.61075022  0.65650102  1
  H+  H45  1  0.39320493  0.61869890  0.83565483  1
  H+  H46  1  0.38593021  0.11289809  1.02741290  1
  H+  H47  1  0.98139449  0.11262324  0.49994490  1
  H+  H48  1  0.76975729  0.12091919  0.66837256  1
  H+  H49  1  0.11429956  0.63832793  0.34098702  1
  H+  H50  1  0.59276936  0.42537358  0.09443360  1
  H+  H51  1  1.01865244  0.86781054  0.16398800  1
  H+  H52  1  0.27671696  0.40041425  0.98771719  1
  H+  H53  1  0.39045588  0.86754665  1.01053525  1
  H+  H54  1  0.87160115  0.46498231  0.67805635  1
  H+  H55  1  0.36294153  0.22399224  0.68097703  1
  H+  H56  1  0.36159537  0.88307834  0.17596625  1
  H+  H57  1  0.68179570  0.09899952  0.54909616  1
  H+  H58  1  0.97782194  0.61738053  0.17252426  1
  H+  H59  1  0.34883248  0.08993758  0.50355037  1
  H+  H60  1  -0.02060030  0.60724926  0.50568313  1
  H+  H61  1  0.36381988  0.48020087  0.65299604  1
  H+  H62  1  0.22571902  0.11746939  0.64586811  1
  H+  H63  1  0.14215151  0.75142917  0.65613389  1
  H+  H64  1  0.84238258  0.22547593  0.02140090  1
  H+  H65  1  0.65783594  0.55316693  1.00590197  1
  H+  H66  1  0.88128951  0.11402065  0.83018174  1
  H+  H67  1  0.13722187  0.35830858  0.64917262  1
  H+  H68  1  0.77628514  0.89308019  0.00291182  1
  H+  H69  1  0.60744059  0.37351358  0.50033538  1
  H+  H70  1  0.63953454  0.01802717  0.18013938  1
  H+  H71  1  0.41234880  0.33250784  0.75414881  1
  H+  H72  1  0.87214989  0.11438991  1.00312006  1
  H+  H73  1  0.52788784  0.64862778  1.00823277  1
  H+  H74  1  0.14677889  0.27163315  0.33469770  1
  H+  H75  1  0.64177407  0.03770797  0.83917247  1
  H+  H76  1  0.88519497  0.60434010  0.83718818  1
  H+  H77  1  0.47864046  0.63487897  0.49352989  1
  H+  H78  1  0.13913835  0.81131364  0.80162685  1
  H+  H79  1  0.82091883  0.16795338  0.08131868  1
  H+  H80  1  0.18524524  0.60984042  0.55873112  1
  H+  H81  1  0.62475017  0.48540885  0.15435065  1
  H+  H82  1  0.39524922  0.62328535  -0.00689133  1
  H+  H83  1  0.36066359  0.39447651  0.98801893  1
  H+  H84  1  0.74092388  0.37834090  0.17014506  1
  H+  H85  1  0.38973281  0.77580269  0.17699942  1
  H+  H86  1  0.61044534  0.88473547  0.66231522  1
  H+  H87  1  0.86216430  0.63196563  0.33848869  1
  H+  H88  1  0.67199527  0.33031535  0.56799464  1
  H+  H89  1  0.56994021  0.93402717  0.74782256  1
  H+  H90  1  0.71696285  0.11153208  0.99930619  1
  H+  H91  1  0.01957679  0.13814687  0.81556363  1
  H+  H92  1  0.22731011  0.36153363  0.64390547  1
  H+  H93  1  0.13700994  0.52759948  0.17855564  1
  H+  H94  1  0.63461866  0.61578923  0.84698073  1
  H+  H95  1  0.82002986  0.41609025  0.39769250  1
  H+  H96  1  0.28116041  0.64203543  0.32789936  1
  H+  H97  1  0.49110749  0.36741146  0.67483149  1
  H+  H98  1  0.84871015  0.71337922  0.66044707  1
  H+  H99  1  0.35972155  0.88278774  0.33760876  1
  H+  H100  1  0.88229545  0.76803507  0.32908165  1
  H+  H101  1  0.62512679  0.14818981  0.82751458  1
  H+  H102  1  0.36266204  0.13021191  0.33787889  1
  H+  H103  1  0.88861618  0.02459340  0.33364605  1
  H+  H104  1  0.64932864  0.86915714  0.49587595  1
  H+  H105  1  0.27377459  0.63915260  0.16460537  1
  H+  H106  1  1.01506814  0.90133053  0.82802872  1
  H+  H107  1  0.07263835  0.61695752  0.75130249  1
  H+  H108  1  0.94423986  0.34966296  0.35889853  1
  H+  H109  1  0.12899442  0.75305806  0.50214982  1
  H+  H110  1  0.88597190  0.11094795  0.34274242  1
  H+  H111  1  0.15753647  0.36546763  0.32826538  1
  H+  H112  1  0.72833096  0.86351305  0.83460631  1
  H+  H113  1  0.86230365  0.47378535  0.49119197  1
  H+  H114  1  0.11521085  0.22294772  0.66119308  1
  H+  H115  1  0.64145273  0.86926799  0.98844038  1
  H+  H116  1  0.02933666  0.64397366  0.00451543  1
  H+  H117  1  1.01068456  0.87791472  0.48185165  1
  H+  H118  1  0.88743070  0.61658802  0.17362225  1
  H+  H119  1  0.11486048  0.99440759  -0.00360509  1
  H+  H120  1  0.59422570  0.65288566  0.49757477  1
  H+  H121  1  0.87405480  0.75947854  0.49853232  1
  H+  H122  1  0.38570032  0.85253359  0.65126260  1
  H+  H123  1  0.61404366  0.88033797  0.34541393  1
  H+  H124  1  0.85133123  0.97634476  0.81812642  1
  H+  H125  1  0.62900014  0.11164140  0.99643076  1
  H+  H126  1  0.07954772  0.16729035  0.07456559  1
  H+  H127  1  0.60194874  0.37595511  0.99554780  1
  H+  H128  1  0.86347341  0.98221304  0.00382137  1
  H+  H129  1  0.38892495  0.77282466  0.32394977  1
  H+  H130  1  0.77507577  0.61727057  0.49141499  1
  H+  H131  1  0.36798058  0.64267562  0.48112407  1
  H+  H132  1  0.48290982  0.87773978  0.83640778  1
  H+  H133  1  0.63441914  0.61360966  0.17688215  1
  H+  H134  1  0.64704522  0.58674734  0.48471028  1
  H+  H135  1  0.58686044  0.91548056  0.53917849  1
  H+  H136  1  0.58095771  0.90591149  0.40535997  1
  H+  H137  1  0.38514783  0.10662312  0.81476394  1
  H+  H138  1  0.61370926  0.73045495  0.16916956  1
  H+  H139  1  0.09681298  0.96847354  0.47947021  1
  H+  H140  1  0.01201323  0.37640501  0.47099703  1
  H+  H141  1  0.63433608  0.36642521  0.84654571  1
  H+  H142  1  0.61910422  0.65345588  0.01255527  1
  H+  H143  1  0.39201375  0.53920693  0.49695737  1
  H+  H144  1  0.77218683  0.63172717  0.34034363  1
  H+  H145  1  0.61330522  0.22474236  0.01253679  1
  H+  H146  1  0.76847474  0.13461996  0.17180056  1
  H+  H147  1  0.38674993  0.01970083  0.32522944  1
  H+  H148  1  0.85022377  0.40344330  0.00282257  1
  H+  H149  1  0.51862454  0.38429118  0.35179843  1
  H+  H150  1  0.37790280  0.38498109  0.34623046  1
  H+  H151  1  0.10934585  0.72466458  0.34050150  1
  H+  H152  1  0.02848863  0.14176968  0.35290370  1
  H+  H153  1  0.02309394  0.88201163  0.33140225  1
  H+  H154  1  0.94302585  0.16085968  0.95604377  1
  H+  H155  1  0.35177241  0.22031036  0.00324893  1
  H+  H156  1  0.38352978  0.36650754  0.18682060  1
  H+  H157  1  0.42939084  0.60111251  0.89755415  1
  H+  H158  1  0.42169345  0.78180645  0.85890644  1
  H+  H159  1  0.05890916  0.39803997  0.31458396  1
  H+  H160  1  0.76500832  0.62360428  0.66780918  1
  H+  H161  1  0.88254087  0.85991697  0.17634269  1
  H+  H162  1  0.63132011  0.01349407  0.33657601  1
  H+  H163  1  0.12087609  0.47656880  0.66756391  1
  H+  H164  1  0.26844372  0.87857842  0.17428393  1
  H+  H165  1  0.14410822  0.50996735  0.84080365  1
  H+  H166  1  0.39088434  0.26801091  0.33010211  1
  H+  H167  1  0.47167827  0.10898054  0.17635688  1
  H+  H168  1  0.36199536  0.87458849  0.83146829  1
  H+  H169  1  0.52763869  0.64848520  0.82264563  1
  H+  H170  1  0.61944735  0.99603078  0.49635910  1
  H+  H171  1  0.10963497  0.22431820  0.16494554  1
  H+  H172  1  0.23080751  0.84229461  0.65558973  1
  H+  H173  1  0.27323687  0.13137262  0.33858014  1
  H+  H174  1  0.77660059  0.88957007  0.33793427  1
  H+  H175  1  0.90624148  0.34844542  -0.02824034  1
  H+  H176  1  0.38101468  1.02183466  0.17913149  1
  H+  H177  1  0.22070332  0.85756168  0.32624017  1
  H+  H178  1  0.05658538  0.65373701  0.81201917  1
  H+  H179  1  0.76925732  0.13413378  0.46538960  1
  H+  H180  1  0.12149732  0.64360589  0.49153671  1
  H+  H181  1  0.36255045  0.96715468  0.67533979  1
  H+  H182  1  0.23551384  0.62125923  0.99568078  1
  H+  H183  1  0.85753896  0.38263842  0.48498872  1
  H+  H184  1  0.26933233  0.13746363  0.83352793  1
  H+  H185  1  0.12485571  0.09315970  0.14686056  1
  H+  H186  1  0.95793082  0.28898440  0.93155121  1
  H+  H187  1  0.46267485  0.35028148  0.98381845  1
  H+  H188  1  0.12870905  0.49468127  1.01430471  1
  H+  H189  1  0.28393744  0.38648847  0.84339661  1
  H+  H190  1  0.38380706  0.76193049  0.64877113  1
  H+  H191  1  0.84619789  0.87983276  0.66398889  1
  H+  H192  1  0.85891157  0.97475134  0.66421590  1
  H+  H193  1  0.13775985  0.27170033  0.83336209  1
  H+  H194  1  0.41981670  0.08005959  0.72733507  1
  H+  H195  1  0.71415206  0.36864257  0.99653356  1
  H+  H196  1  0.36505771  0.39401278  0.66469113  1
  H+  H197  1  0.63115241  0.39360354  0.67513437  1
  H+  H198  1  0.15166068  0.02554464  0.65173809  1
  H+  H199  1  0.71977924  0.35630579  0.31537732  1
  H+  H200  1  0.00132835  0.84774933  0.71594261  1
  H+  H201  1  0.89651861  0.62906573  0.99634605  1
  H+  H202  1  0.36363632  0.48472276  0.19214651  1
  H+  H203  1  0.85421425  0.39635392  0.73168090  1
  H+  H204  1  0.11993782  0.64503553  0.00393761  1
  H+  H205  1  0.97651536  0.10738728  0.64845164  1
  H+  H206  1  0.38868643  1.01849352  0.81455143  1
  H+  H207  1  0.52160045  0.13457083  0.33519066  1
  H+  H208  1  -0.01464285  0.36488762  0.63961790  1
  H+  H209  1  0.63229713  0.52622521  0.84879788  1
  H+  H210  1  0.63132944  0.49612076  0.50681385  1
  H+  H211  1  0.13573734  0.36763088  1.00404416  1
  H+  H212  1  0.94255137  0.84580694  0.64439095  1
  H+  H213  1  0.86283026  0.97953507  0.16615136  1
  H+  H214  1  0.63035870  0.76865374  0.49261468  1
  H+  H215  1  0.38392647  0.24183492  0.52860890  1
  H+  H216  1  0.27764954  0.88736789  0.03012262  1
  H+  H217  1  0.08363982  0.42083276  0.11451563  1
  H+  H218  1  0.87454242  0.86539336  0.83312254  1
  H+  H219  1  0.36769317  0.73132479  1.01388586  1
  H+  H220  1  0.48396800  0.62825003  0.19698975  1
  H+  H221  1  0.46844467  0.87199200  0.49916113  1
  H+  H222  1  0.63424361  0.61292713  0.65312574  1
  H+  H223  1  0.11800234  0.10394826  0.49441438  1
  H+  H224  1  0.72628941  0.36098129  0.50607145  1
  H+  H225  1  0.37315662  0.47470995  0.84386293  1
  H+  H226  1  0.53212974  0.98698990  0.77694161  1
  H+  H227  1  0.71834402  0.10200726  0.34289619  1
  H+  H228  1  0.27831185  0.39814178  0.17670128  1
  H+  H229  1  0.78774598  0.65675977  0.00666832  1
  H+  H230  1  0.11365577  0.72667432  0.16363433  1
  H+  H231  1  0.23741039  0.63402652  0.49460869  1
  H+  H232  1  0.60953488  0.13286343  0.33714956  1
  H+  H233  1  0.13735372  0.77797898  1.00306499  1
  H+  H234  1  0.87042079  0.33043185  0.94799608  1
  H+  H235  1  0.64849090  0.38046806  0.16411651  1
  H+  H236  1  0.33722415  0.96435035  0.49216068  1
  H+  H237  1  0.61627031  0.97880231  0.00731799  1
  H+  H238  1  0.63742519  0.86427017  0.17609875  1
  H+  H239  1  0.09048999  0.18288036  0.53331983  1
  H+  H240  1  0.38814156  0.36350706  0.81532387  1
  H+  H241  1  0.13870040  0.28533897  0.49125572  1
  H+  H242  1  0.36686496  0.73122054  0.47615231  1
  H+  H243  1  0.73710227  0.36020404  0.66354509  1
  H+  H244  1  0.53666504  0.64839858  0.33541758  1
  H+  H245  1  0.91683903  0.58784901  0.93782567  1
  H+  H246  1  0.89197167  0.87571703  -0.00904792  1
  H+  H247  1  0.22627432  0.85152152  0.50273129  1
  H+  H248  1  0.85663942  0.11714205  0.67096553  1
  H+  H249  1  0.58411882  0.44561111  -0.03404057  1
  H+  H250  1  0.67042269  0.33530198  0.23069314  1
  H+  H251  1  0.60515171  0.47431260  0.35604276  1
  H+  H252  1  0.39085203  0.02634498  1.03560093  1
  H+  H253  1  0.33213935  0.16955858  0.10531391  1
  H+  H254  1  0.90854867  0.82660956  0.23602643  1
  H+  H255  1  -0.07509545  0.54274666  0.83855195  1
  H+  H256  1  0.61566472  0.22434331  0.49090478  1
  H+  H257  1  0.11303436  0.13252129  0.66211276  1
  H+  H258  1  0.86265101  0.35427312  0.34012969  1
  H+  H259  1  0.13499634  0.12664895  0.83935327  1
  H+  H260  1  0.02961268  0.38838797  0.81394435  1
  H+  H261  1  0.87739764  0.74309278  0.00801785  1
  H+  H262  1  0.85989196  0.72585265  0.16534874  1
  H+  H263  1  0.84790844  0.21852699  0.36932653  1
  H+  H264  1  0.64185555  0.11475802  0.64711697  1
  H+  H265  1  0.72105897  0.86490846  0.65076666  1
  H+  H266  1  1.01407757  0.82450761  0.69333276  1
  H+  H267  1  0.12834573  0.27334301  0.00182582  1
  H+  H268  1  0.15128415  0.53494927  0.32454737  1
  H+  H269  1  0.25570273  0.12537974  0.48272627  1
  H+  H270  1  0.13052213  0.85228641  0.17438757  1
  H+  H271  1  0.12597377  0.11217956  0.99980031  1
  H+  H272  1  0.38416491  0.10682775  0.67229675  1
  H+  H273  1  0.88928034  0.60259818  0.65787901  1
  H+  H274  1  0.52523341  0.13700169  0.02683920  1
  H+  H275  1  1.04557365  0.29030766  0.94335205  1
  H+  H276  1  0.26852990  0.62369083  0.65436250  1
  H+  H277  1  0.26449606  0.13174449  1.01013815  1
  H+  H278  1  0.51891240  0.87999972  0.65859625  1
  H+  H279  1  0.35903081  0.22128707  0.81464828  1
  H+  H280  1  0.13094786  0.94313921  0.73830442  1
  H+  H281  1  0.60518215  0.12470620  0.17102060  1
  H+  H282  1  1.02106632  0.38853326  0.17257225  1
  H+  H283  1  0.85629907  0.47316771  0.33681430  1
  H+  H284  1  0.15649904  0.90075158  0.68452623  1
  H+  H285  1  0.26495267  0.62349184  0.82322601  1
  H+  H286  1  0.88523171  0.36702865  0.18283751  1
  H+  H287  1  0.63428622  0.76361042  0.83389837  1
  H+  H288  1  0.02860337  0.61431095  0.66116327  1
  H+  H289  1  0.16804780  0.32428173  0.23851719  1
  H+  H290  1  0.16184810  0.32730803  0.89441315  1
  H+  H291  1  0.58345209  0.16005825  0.11198851  1
  H+  H292  1  0.07667092  0.90825738  0.39328289  1
  H+  H293  1  0.40817712  0.82810537  0.55624822  1
  H+  H294  1  0.87356986  0.85044513  0.49632988  1
  H+  H295  1  0.65752458  0.32988812  0.93503875  1
  H+  H296  1  0.81994900  0.91453212  0.75882890  1
  H+  H297  1  0.19346235  0.85203574  0.95469423  1
  H+  H298  1  0.41949125  0.33033392  0.27128915  1
  H+  H299  1  0.33679510  0.66707419  0.07048497  1
  H+  H300  1  0.34446392  0.01940474  0.92441218  1
  H+  H301  1  0.85668443  0.22649526  0.17147606  1
  H+  H302  1  0.34412353  0.66720061  0.38493386  1
  H+  H303  1  0.56972541  0.40468268  0.44473995  1
  H+  H304  1  0.08248706  0.16722686  0.75762187  1
  H+  H305  1  0.15970819  0.82320654  0.23598182  1
  H+  H306  1  0.88063023  0.27652019  0.81379187  1
  H+  H307  1  0.83631049  0.67134416  0.10411153  1
  H+  H308  1  0.33552180  0.90951528  0.08959442  1
  H+  H309  1  0.88843899  0.78320670  0.83164192  1
  H+  H310  1  0.17463413  0.58319528  0.93609660  1
  H+  H311  1  0.67106435  0.59652460  0.93930017  1
  H+  H312  1  0.86448888  0.97227570  0.48803738  1
  H+  H313  1  0.83388951  0.65453375  0.43171296  1
  H+  H314  1  0.41595410  0.08099486  0.26620458  1
  H+  H315  1  0.60497982  0.43178360  0.76964358  1
  H+  H316  1  0.60093985  0.17168719  0.72772278  1
  H+  H317  1  0.33210085  0.89840321  0.72792002  1
  H+  H318  1  0.35727438  0.13593482  0.16443998  1
  H+  H319  1  0.87073122  0.48578650  0.16345435  1
  H+  H320  1  0.89528956  0.35985290  0.64299179  1
  H+  H321  1  0.57619526  0.67029966  0.11114539  1
  H+  H322  1  0.82854196  0.15649732  0.76154486  1
  H+  H323  1  0.58811149  0.67702460  0.76188117  1
  H+  H324  1  0.15323416  0.07114828  0.54882397  1
  H+  H325  1  0.66728752  0.83629898  0.27162775  1
  H+  H326  1  0.88702321  0.81625491  0.58430162  1
  H+  H327  1  0.32767930  0.15794075  0.43037750  1
  H+  H328  1  0.72444229  0.61519194  0.17490102  1
  H+  H329  1  0.91544468  0.84298662  0.92928552  1
  H+  H330  1  0.66458271  0.58014465  0.27260935  1
  H+  H331  1  0.43186123  0.08703103  0.52441854  1
  H+  H332  1  0.10440448  0.95288526  0.14491741  1
  H+  H333  1  0.29074686  0.38527799  0.34364047  1
  H+  H334  1  0.83541327  0.92325943  0.10511820  1
  H+  H335  1  0.91487877  0.07735342  0.58940216  1
  H+  H336  1  0.16732325  0.81331767  0.56849003  1
  H+  H337  1  0.90700618  0.33290889  0.24396861  1
  H+  H338  1  0.15569076  0.09014432  0.93494215  1
  H+  H339  1  0.40339350  0.32160494  0.92529322  1
  H+  H340  1  0.83919243  0.42640606  0.10384629  1
  H+  H341  1  0.63678534  0.27895603  0.84347757  1
  H+  H342  1  0.47408117  0.32877317  0.52897929  1
  H+  H343  1  0.91784792  0.58205025  0.26735215  1
  H+  H344  1  0.31307006  0.15210260  0.73040327  1
  H+  H345  1  0.91385119  0.08542286  0.24129222  1
  H+  H346  1  0.83577816  0.91553607  0.39723283  1
  H+  H347  1  0.08888333  0.41607524  0.38643567  1
  H+  H348  1  0.89010315  0.60631404  0.50510648  1
  H+  H349  1  0.08561219  0.67007387  0.10229960  1
  H+  H350  1  0.08172026  0.66804761  0.43227556  1
  H+  H351  1  0.12218699  0.78516668  0.86940535  1
  H+  H352  1  0.11454847  0.89558842  0.00475655  1
  H+  H353  1  0.32401931  0.91007425  0.39528853  1
  H+  H354  1  0.91801383  0.33222555  0.54889191  1
  H+  H355  1  0.58746907  0.91752699  0.10315563  1
  H+  H356  1  0.10508988  0.38347674  0.47468374  1
  H+  H357  1  0.38993157  0.02825359  0.92410103  1
  H+  H358  1  0.47682987  0.86226618  0.33074240  1
  H+  H359  1  0.08835725  0.41305018  0.72421933  1
  H+  H360  1  0.34949179  0.88024320  0.48889111  1
  H+  H361  1  0.01801088  0.13692723  0.16530091  1
  H+  H362  1  0.13086257  0.85809688  0.32677936  1
  H+  H363  1  0.16430444  0.33962961  0.55190215  1
  H+  H364  1  0.66456309  0.83151501  0.58963317  1
  H+  H365  1  0.91693014  0.57132032  0.59882318  1
  H+  H366  1  0.33183785  0.71550450  0.79830394  1
  H+  H367  1  0.08618413  0.17208822  0.41246183  1
  H+  H368  1  0.66731236  0.07446851  0.24169385  1
  H+  H369  1  0.42164177  0.84584273  0.94755989  1
  H+  H370  1  0.35007627  0.43231580  0.43421386  1
  H+  H371  1  0.58531078  0.67546265  0.40188519  1
  H+  H372  1  0.66222490  0.57874200  0.59391811  1
  H+  H373  1  0.90611726  0.07730106  0.88778281  1
  H+  H374  1  0.66849255  0.82930406  0.90008883  1
  H+  H375  1  0.17234452  0.59507595  0.26633592  1
  H+  H376  1  0.42807020  0.59589905  0.58760345  1
  H+  H377  1  0.85121027  0.67442854  0.75357704  1
  H+  H378  1  0.58601730  0.16966583  0.42912494  1
  H+  H379  1  0.42371657  0.83564887  0.23663133  1
  H+  H380  1  0.39491665  0.53468305  0.98455132  1
  H+  H381  1  0.33050926  0.65426157  0.71605126  1
  H+  H382  1  0.67018510  0.08900417  0.90290488  1
  H+  H383  1  0.88611331  0.10477691  0.49046383  1
  O2-  O384  1  0.07599648  0.16563496  0.14625204  1
  O2-  O385  1  0.07205946  0.16196488  0.49203674  1
  O2-  O386  1  0.08100855  0.16921500  0.80331700  1
  O2-  O387  1  0.08240720  0.41928982  0.15959052  1
  O2-  O388  1  0.06973254  0.40267290  0.45160718  1
  O2-  O389  1  0.09205665  0.41684779  0.80478275  1
  O2-  O390  1  0.08229165  0.66538418  0.14731070  1
  O2-  O391  1  0.08231029  0.66841153  0.47816484  1
  O2-  O392  1  0.06161233  0.60607699  0.79630413  1
  O2-  O393  1  0.07602706  0.88864583  0.14587997  1
  O2-  O394  1  0.06914629  0.90787882  0.46467501  1
  O2-  O395  1  0.07793828  0.93368593  0.81825593  1
  O2-  O396  1  0.32546722  0.16492145  0.15016278  1
  O2-  O397  1  0.31896587  0.15211737  0.47582439  1
  O2-  O398  1  0.32583601  0.15712459  0.81348553  1
  O2-  O399  1  0.34035768  0.43232115  0.16746512  1
  O2-  O400  1  0.34795483  0.44213409  0.47927653  1
  O2-  O401  1  0.34681673  0.41192331  0.84827628  1
  O2-  O402  1  0.33499841  0.66947874  0.15024165  1
  O2-  O403  1  0.33774192  0.67142525  0.46057967  1
  O2-  O404  1  0.32456355  0.65864047  0.80463231  1
  O2-  O405  1  0.33020647  0.91226001  0.16079632  1
  O2-  O406  1  0.31225559  0.90353805  0.47431420  1
  O2-  O407  1  0.33242960  0.90170488  0.81069857  1
  O2-  O408  1  0.57293087  0.15225520  0.15635855  1
  O2-  O409  1  0.58820144  0.16474722  0.47430950  1
  O2-  O410  1  0.59638870  0.17607008  0.80615276  1
  O2-  O411  1  0.61030334  0.42839527  0.13682522  1
  O2-  O412  1  0.57388655  0.40283410  0.49131813  1
  O2-  O413  1  0.59196367  0.42727645  0.81432904  1
  O2-  O414  1  0.57854657  0.66871378  0.15625303  1
  O2-  O415  1  0.57911084  0.68650438  0.47105692  1
  O2-  O416  1  0.58927763  0.68033504  0.80786593  1
  O2-  O417  1  0.58673149  0.91636682  0.14856970  1
  O2-  O418  1  0.58415627  0.93000899  0.49672641  1
  O2-  O419  1  0.55672523  0.95139329  0.78857400  1
  O2-  O420  1  0.82884548  0.16726190  0.15446235  1
  O2-  O421  1  0.83086050  0.16170711  0.44963134  1
  O2-  O422  1  0.83707408  0.17003071  0.80731351  1
  O2-  O423  1  0.84080455  0.42393284  0.14912933  1
  O2-  O424  1  0.82703142  0.41468728  0.47367962  1
  O2-  O425  1  0.87464083  0.38258666  0.80788052  1
  O2-  O426  1  0.83146305  0.66509383  0.14911269  1
  O2-  O427  1  0.83564672  0.65413627  0.47757955  1
  O2-  O428  1  0.88259712  0.69328190  0.79397303  1
  O2-  O429  1  0.83252972  0.91934760  0.15001280  1
  O2-  O430  1  0.83387685  0.91126031  0.47259114  1
  O2-  O431  1  0.81929298  0.91421603  0.80487339  1
  O2-  O432  1  0.15211995  0.05943944  0.13553819  1
  O2-  O433  1  0.15022532  0.07182340  0.50375013  1
  O2-  O434  1  0.16291965  0.09685543  0.85982722  1
  O2-  O435  1  0.16401514  0.32566778  0.19277118  1
  O2-  O436  1  0.16615531  0.34521078  0.50647161  1
  O2-  O437  1  0.16842569  0.33170267  0.84977553  1
  O2-  O438  1  0.17001217  0.58992049  0.18921117  1
  O2-  O439  1  0.18068425  0.61603799  0.51375662  1
  O2-  O440  1  0.17146159  0.57088376  0.85666983  1
  O2-  O441  1  0.16365584  0.82332972  0.19040521  1
  O2-  O442  1  0.16523603  0.81544553  0.52213402  1
  O2-  O443  1  0.15653792  0.83402018  0.84283502  1
  O2-  O444  1  0.41077416  0.08300626  0.19204252  1
  O2-  O445  1  0.36926950  0.05222602  0.52376217  1
  O2-  O446  1  0.42135258  0.08041126  0.80454939  1
  O2-  O447  1  0.41026677  0.33210187  0.19964225  1
  O2-  O448  1  0.42704590  0.28730877  0.55537959  1
  O2-  O449  1  0.41620984  0.33034675  0.79875334  1
  O2-  O450  1  0.42508983  0.60383722  0.21598709  1
  O2-  O451  1  0.41878377  0.60166901  0.51166407  1
  O2-  O452  1  0.43010040  0.59704434  0.85182915  1
  O2-  O453  1  0.42276060  0.83677967  0.19081129  1
  O2-  O454  1  0.40746592  0.83484957  0.51083636  1
  O2-  O455  1  0.43086276  0.83998105  0.86191725  1
  O2-  O456  1  0.67026793  0.07804667  0.19639062  1
  O2-  O457  1  0.67794993  0.09551274  0.50358706  1
  O2-  O458  1  0.67573977  0.09523331  0.85732536  1
  O2-  O459  1  0.67811900  0.34777759  0.18187126  1
  O2-  O460  1  0.66667752  0.32748380  0.52266204  1
  O2-  O461  1  0.65998704  0.33422941  0.86548837  1
  O2-  O462  1  0.66407552  0.58202882  0.19004138  1
  O2-  O463  1  0.66863060  0.56226865  0.51471109  1
  O2-  O464  1  0.65715004  0.58356808  0.86901599  1
  O2-  O465  1  0.66717216  0.83401565  0.19269957  1
  O2-  O466  1  0.67185844  0.83347045  0.51205481  1
  O2-  O467  1  0.66782334  0.82725077  0.85317247  1
  O2-  O468  1  0.91256634  0.08301679  0.19579483  1
  O2-  O469  1  0.91337862  0.07552859  0.51035746  1
  O2-  O470  1  0.90797298  0.07808002  0.84307501  1
  O2-  O471  1  0.91271878  0.33452860  0.19919777  1
  O2-  O472  1  0.91081223  0.33049088  0.50246721  1
  O2-  O473  1  0.91795530  0.34028707  0.82303746  1
  O2-  O474  1  0.91741141  0.58541186  0.18822615  1
  O2-  O475  1  0.91897236  0.57486219  0.52114192  1
  O2-  O476  1  0.89912684  0.56877078  0.86369705  1
  O2-  O477  1  0.90829400  0.82520505  0.19024781  1
  O2-  O478  1  0.90146094  0.81929265  0.51501148  1
  O2-  O479  1  0.90884760  0.84057038  0.85071958  1
  O2-  O480  1  0.17207205  0.08523479  0.31863704  1
  O2-  O481  1  0.16516961  0.08065772  0.63190788  1
  O2-  O482  1  0.15357435  0.08098813  0.98046065  1
  O2-  O483  1  0.18022236  0.32842980  0.31367871  1
  O2-  O484  1  0.16510907  0.32733941  0.63100612  1
  O2-  O485  1  0.14741120  0.32845674  0.97902911  1
  O2-  O486  1  0.17554259  0.59627059  0.31193495  1
  O2-  O487  1  0.18576937  0.57394456  0.63100096  1
  O2-  O488  1  0.17406985  0.58956825  0.98136788  1
  O2-  O489  1  0.15936608  0.82431549  0.31300258  1
  O2-  O490  1  0.16960612  0.81228312  0.64170784  1
  O2-  O491  1  0.16789050  0.84248489  0.99503924  1
  O2-  O492  1  0.41938648  0.08090932  0.31222184  1
  O2-  O493  1  0.41761321  0.07759514  0.68173644  1
  O2-  O494  1  0.42477321  0.08966476  1.03461202  1
  O2-  O495  1  0.42343677  0.32945401  0.31760807  1
  O2-  O496  1  0.42780700  0.33564782  0.66696737  1
  O2-  O497  1  0.40162147  0.32179691  0.96962077  1
  O2-  O498  1  0.44364184  0.61935717  0.28133938  1
  O2-  O499  1  0.42878860  0.59177223  0.63338639  1
  O2-  O500  1  0.42864952  0.59834069  0.97472389  1
  O2-  O501  1  0.41835587  0.83570499  0.31257829  1
  O2-  O502  1  0.41573542  0.82363647  0.63349516  1
  O2-  O503  1  0.42148727  0.83909255  0.99207345  1
  O2-  O504  1  0.66279333  0.07405084  0.32128741  1
  O2-  O505  1  0.66883655  0.08354547  0.62791598  1
  O2-  O506  1  0.65949301  0.08098801  0.97974468  1
  O2-  O507  1  0.66523839  0.32323960  0.29256425  1
  O2-  O508  1  0.67737252  0.33677174  0.64745342  1
  O2-  O509  1  0.65471916  0.33104561  0.98205793  1
  O2-  O510  1  0.66933764  0.58369832  0.31776472  1
  O2-  O511  1  0.66400248  0.58150845  0.63919356  1
  O2-  O512  1  0.68135890  0.60851468  0.98524560  1
  O2-  O513  1  0.66937211  0.83813436  0.31713842  1
  O2-  O514  1  0.66069000  0.83238576  0.63540164  1
  O2-  O515  1  0.67061899  0.83770805  0.97233486  1
  O2-  O516  1  0.91772305  0.08696470  0.32166962  1
  O2-  O517  1  0.91541127  0.07446790  0.63502162  1
  O2-  O518  1  0.91283575  0.10419551  0.97861369  1
  O2-  O519  1  0.89304437  0.31937090  0.33357294  1
  O2-  O520  1  0.92846103  0.33907432  0.61962751  1
  O2-  O521  1  0.98736409  0.25641908  0.92533290  1
  O2-  O522  1  0.91481330  0.57816870  0.31274132  1
  O2-  O523  1  0.92020476  0.57270540  0.64449032  1
  O2-  O524  1  0.92333609  0.59420763  0.98330563  1
  O2-  O525  1  0.91237735  0.82730141  0.31167737  1
  O2-  O526  1  0.88273068  0.81569965  0.63119250  1
  O2-  O527  1  0.92349472  0.84694927  0.97452992  1
  O2-  O528  1  0.08122611  0.16835604  0.02789186  1
  O2-  O529  1  0.08880349  0.17219139  0.36727311  1
  O2-  O530  1  0.08361243  0.16325053  0.67837073  1
  O2-  O531  1  0.09606822  0.43449238  0.03219769  1
  O2-  O532  1  0.10870749  0.42865804  0.34082093  1
  O2-  O533  1  0.08836436  0.41419944  0.67894916  1
  O2-  O534  1  0.09040753  0.67596119  0.01919946  1
  O2-  O535  1  0.07941344  0.66375307  0.35626648  1
  O2-  O536  1  0.08909019  0.64074530  0.67635349  1
  O2-  O537  1  0.08195724  0.92744821  0.00916346  1
  O2-  O538  1  0.08296575  0.91031765  0.34696197  1
  O2-  O539  1  0.16721006  0.95557494  0.70202798  1
  O2-  O540  1  0.32484798  0.16352559  0.02377822  1
  O2-  O541  1  0.33435690  0.16151268  0.35438332  1
  O2-  O542  1  0.32369217  0.16101441  0.68590754  1
  O2-  O543  1  0.33748833  0.43222274  -0.00104733  1
  O2-  O544  1  0.34941291  0.41753047  0.36040522  1
  O2-  O545  1  0.32850071  0.42028487  0.66798779  1
  O2-  O546  1  0.33649529  0.66910584  0.02496146  1
  O2-  O547  1  0.34358811  0.66971927  0.33901449  1
  O2-  O548  1  0.33418427  0.66232409  0.67174489  1
  O2-  O549  1  0.33766210  0.91097929  0.04309862  1
  O2-  O550  1  0.32724039  0.91204906  0.34995131  1
  O2-  O551  1  0.33408334  0.90354298  0.68294628  1
  O2-  O552  1  0.59035338  0.16576635  0.02883413  1
  O2-  O553  1  0.58330169  0.16800695  0.34893299  1
  O2-  O554  1  0.59506443  0.16831798  0.68225125  1
  O2-  O555  1  0.56991634  0.40963192  0.00217031  1
  O2-  O556  1  0.57418582  0.41681209  0.37457020  1
  O2-  O557  1  0.60085192  0.42338886  0.69167549  1
  O2-  O558  1  0.58704297  0.68229176  0.02628467  1
  O2-  O559  1  0.59342728  0.67512823  0.35508467  1
  O2-  O560  1  0.58576816  0.66908283  0.68415295  1
  O2-  O561  1  0.59158560  0.91812145  0.02225264  1
  O2-  O562  1  0.58132694  0.90902821  0.36085514  1
  O2-  O563  1  0.57918183  0.91580407  0.67442068  1
  O2-  O564  1  0.81815105  0.16619056  0.03496959  1
  O2-  O565  1  0.82302580  0.15686504  0.38255316  1
  O2-  O566  1  0.82155723  0.13689662  0.69302950  1
  O2-  O567  1  0.82582697  0.43376959  0.02460369  1
  O2-  O568  1  0.82144253  0.41264949  0.35194782  1
  O2-  O569  1  0.84159329  0.40291809  0.68817647  1
  O2-  O570  1  0.84765541  0.68267567  0.02265313  1
  O2-  O571  1  0.83324190  0.66243225  0.35567880  1
  O2-  O572  1  0.82701335  0.65615157  0.68024176  1
  O2-  O573  1  0.83655006  0.92276694  0.01873453  1
  O2-  O574  1  0.83796420  0.91878357  0.35139904  1
  O2-  O575  1  0.82323179  0.91533442  0.68198479  1
