# generated using pymatgen
data_H2O
_symmetry_space_group_name_H-M   'P 1'
_cell_length_a   17.98107122
_cell_length_b   17.98808049
_cell_length_c   22.00890544
_cell_angle_alpha   89.99248767
_cell_angle_beta   90.02484254
_cell_angle_gamma   120.01549610
_symmetry_Int_Tables_number   1
_chemical_formula_structural   H2O
_chemical_formula_sum   'H384 O192'
_cell_volume   6163.98510657
_cell_formula_units_Z   192
loop_
 _symmetry_equiv_pos_site_id
 _symmetry_equiv_pos_as_xyz
  1  'x, y, z'
loop_
 _atom_type_symbol
 _atom_type_oxidation_number
  H+  1.0
  O2-  -2.0
loop_
 _atom_site_type_symbol
 _atom_site_label
 _atom_site_symmetry_multiplicity
 _atom_site_fract_x
 _atom_site_fract_y
 _atom_site_fract_z
 _atom_site_occupancy
  H+  H0  1  0.36255530  0.88431337  0.33896349  1
  H+  H1  1  0.12482716  0.77293080  0.32136795  1
  H+  H2  1  0.92481942  0.58116624  0.93753650  1
  H+  H3  1  0.97860873  0.37578623  0.65904567  1
  H+  H4  1  0.14729521  0.27876342  0.32043251  1
  H+  H5  1  0.88986058  0.24702529  0.33360533  1
  H+  H6  1  0.41027104  0.63104092  0.16799833  1
  H+  H7  1  0.63700639  0.10467672  0.16198578  1
  H+  H8  1  0.78250279  0.14926212  0.83540285  1
  H+  H9  1  0.16729121  0.62650330  0.49715092  1
  H+  H10  1  0.75424203  0.84298298  0.68333668  1
  H+  H11  1  0.76707184  0.13045464  0.14570531  1
  H+  H12  1  0.13110569  0.75689859  0.83752549  1
  H+  H13  1  0.13306682  0.39875810  0.32925627  1
  H+  H14  1  0.37962700  0.11451484  1.02274670  1
  H+  H15  1  0.17564061  0.13863048  0.84310853  1
  H+  H16  1  0.61634630  0.00697428  0.99828512  1
  H+  H17  1  0.38808419  0.02198148  1.00727260  1
  H+  H18  1  0.11795050  0.86111495  0.32671797  1
  H+  H19  1  0.32656059  0.90846000  0.76776773  1
  H+  H20  1  0.64771885  0.61160735  0.49813736  1
  H+  H21  1  0.52405051  0.38245491  0.14858835  1
  H+  H22  1  0.11751202  0.49667936  0.00927378  1
  H+  H23  1  0.29369672  0.64168822  0.51647465  1
  H+  H24  1  0.84193796  0.41847277  0.08979651  1
  H+  H25  1  0.11251637  0.72876144  0.01556371  1
  H+  H26  1  0.23585297  0.37368894  0.16814443  1
  H+  H27  1  0.61031613  -0.04353067  0.33279429  1
  H+  H28  1  1.02128521  0.16299625  0.67040683  1
  H+  H29  1  0.24643320  0.63044365  0.16422747  1
  H+  H30  1  0.66965650  0.36805368  0.99821683  1
  H+  H31  1  0.93014743  0.84350720  0.59345322  1
  H+  H32  1  0.60072459  0.47084088  0.83477616  1
  H+  H33  1  0.38685832  0.03151808  0.65309153  1
  H+  H34  1  0.12984793  0.35729631  0.83864603  1
  H+  H35  1  0.15430306  0.02548832  0.51755496  1
  H+  H36  1  0.39176553  0.35383963  0.33532868  1
  H+  H37  1  0.57934527  0.18767071  0.32404221  1
  H+  H38  1  0.23153270  0.11352037  0.32862802  1
  H+  H39  1  0.79717964  0.74350548  0.70678897  1
  H+  H40  1  0.46942430  0.85157533  0.32619868  1
  H+  H41  1  0.39322700  0.36975625  0.15905910  1
  H+  H42  1  0.83663768  0.70458795  0.01400228  1
  H+  H43  1  1.03240476  0.13034292  0.83653979  1
  H+  H44  1  0.36192833  0.73305358  0.82166075  1
  H+  H45  1  0.64020646  0.36343041  0.16801786  1
  H+  H46  1  0.08769356  0.42156512  0.72423299  1
  H+  H47  1  0.58548706  0.54695075  0.99573852  1
  H+  H48  1  0.50195461  0.32410620  1.00466327  1
  H+  H49  1  0.51199148  0.38083869  0.83099192  1
  H+  H50  1  0.24512139  0.37919554  0.67813070  1
  H+  H51  1  1.03172562  0.13972413  0.35660321  1
  H+  H52  1  0.89016931  0.36420379  0.83395474  1
  H+  H53  1  0.11833144  0.47224004  0.81240700  1
  H+  H54  1  0.28438617  0.37648933  0.33424853  1
  H+  H55  1  0.13599830  0.01694325  0.99501064  1
  H+  H56  1  0.38447150  0.27691249  0.15979481  1
  H+  H57  1  0.52446184  0.63091255  0.33278887  1
  H+  H58  1  0.38342880  0.79506181  0.50653455  1
  H+  H59  1  0.67783829  0.32144383  0.59867527  1
  H+  H60  1  0.15482989  0.02264905  0.67032552  1
  H+  H61  1  0.72747459  0.36262381  0.49844514  1
  H+  H62  1  0.36546506  0.68862004  0.56591537  1
  H+  H63  1  0.12264267  0.39373272  0.16133600  1
  H+  H64  1  0.72409018  0.60363614  0.18334219  1
  H+  H65  1  0.60946133  0.64456637  -0.01045471  1
  H+  H66  1  0.74779022  0.35594269  0.99040132  1
  H+  H67  1  0.41021850  0.82351188  0.26805524  1
  H+  H68  1  0.89787880  0.11142792  0.36265604  1
  H+  H69  1  0.88345335  0.40412287  0.34278160  1
  H+  H70  1  0.29800121  0.12284080  0.50928084  1
  H+  H71  1  0.89149429  0.52221427  0.16935720  1
  H+  H72  1  0.11345733  0.88833356  1.00265145  1
  H+  H73  1  0.11532233  0.89406816  0.49552619  1
  H+  H74  1  0.84159184  0.46667018  0.50053077  1
  H+  H75  1  0.07141009  0.84333051  0.18316621  1
  H+  H76  1  0.27652331  0.89747004  0.67093725  1
  H+  H77  1  0.97666989  0.60554876  0.83653531  1
  H+  H78  1  0.46989403  0.11267547  0.17042515  1
  H+  H79  1  0.21478669  0.36771529  0.99485201  1
  H+  H80  1  0.15655337  0.11212078  0.67433070  1
  H+  H81  1  0.71643463  0.62115005  0.66164124  1
  H+  H82  1  0.09215253  0.66110739  0.72875676  1
  H+  H83  1  0.15517691  0.22954410  0.69811319  1
  H+  H84  1  0.51027782  0.66206275  0.99777886  1
  H+  H85  1  0.73391474  0.35068382  0.65899782  1
  H+  H86  1  0.88221581  0.85666496  0.84721937  1
  H+  H87  1  0.99054797  0.37902439  0.98851213  1
  H+  H88  1  0.39782284  0.26140177  0.34214058  1
  H+  H89  1  0.63562781  0.51357412  0.18192286  1
  H+  H90  1  0.85300574  0.01183097  0.67416503  1
  H+  H91  1  0.81215885  0.89116830  0.08858196  1
  H+  H92  1  0.61403909  0.48172619  0.33693876  1
  H+  H93  1  0.37036382  0.61322428  0.66460409  1
  H+  H94  1  0.66451447  0.30233571  0.32312238  1
  H+  H95  1  0.26870837  0.12010801  0.01049736  1
  H+  H96  1  0.14206314  0.53244241  0.65522667  1
  H+  H97  1  0.89388605  0.85418932  0.65708929  1
  H+  H98  1  0.35272026  0.13116745  0.16082025  1
  H+  H99  1  0.11281125  0.39803421  0.65993730  1
  H+  H100  1  0.56194055  0.20685489  0.34687608  1
  H+  H101  1  0.81290808  0.65631718  0.11081337  1
  H+  H102  1  0.62311005  0.77115198  0.65993417  1
  H+  H103  1  0.70375981  0.05915808  0.37998194  1
  H+  H104  1  0.79882439  0.15801916  0.33584316  1
  H+  H105  1  0.17699613  0.58912991  0.56125488  1
  H+  H106  1  0.62893695  0.60753818  0.83706325  1
  H+  H107  1  0.14319805  0.62261534  0.65389197  1
  H+  H108  1  0.89073855  0.61367532  0.84050903  1
  H+  H109  1  0.02547718  0.38530405  0.81602662  1
  H+  H110  1  0.51965240  0.88408897  0.48604097  1
  H+  H111  1  0.84929584  0.98419471  0.45297507  1
  H+  H112  1  0.36687786  0.12693031  0.34172095  1
  H+  H113  1  0.78621976  0.65681253  0.48781088  1
  H+  H114  1  0.39274868  0.25548662  0.66295021  1
  H+  H115  1  0.87209459  0.39871949  0.67734534  1
  H+  H116  1  0.71426956  0.87954345  0.98937557  1
  H+  H117  1  0.36786357  0.61805075  -0.00938571  1
  H+  H118  1  0.77727940  0.39167070  0.14833099  1
  H+  H119  1  0.36576031  0.89555353  0.97629197  1
  H+  H120  1  0.14242064  0.86755833  0.66117748  1
  H+  H121  1  0.65626048  0.10454665  0.64699386  1
  H+  H122  1  0.86358986  0.87791159  0.33597992  1
  H+  H123  1  0.33977835  0.39127020  0.00364538  1
  H+  H124  1  -0.05334089  0.60792194  0.45911605  1
  H+  H125  1  0.37813896  0.49353236  0.15845770  1
  H+  H126  1  0.03621639  0.89106776  0.67165644  1
  H+  H127  1  0.03577821  0.39640253  0.16382766  1
  H+  H128  1  0.24353454  0.35498499  0.49950654  1
  H+  H129  1  0.46144250  0.09333452  0.32128887  1
  H+  H130  1  0.00290746  0.38409485  0.32545590  1
  H+  H131  1  0.56331868  0.02930674  0.43448991  1
  H+  H132  1  0.66526746  0.81868803  0.25548589  1
  H+  H133  1  0.89750347  0.61628961  0.68186814  1
  H+  H134  1  0.53800355  0.11813249  0.65344396  1
  H+  H135  1  0.22699235  0.86619121  -0.01658551  1
  H+  H136  1  0.84991376  0.88549439  0.15804619  1
  H+  H137  1  0.51673664  0.63058263  0.82482018  1
  H+  H138  1  0.36105111  0.87688711  0.16400051  1
  H+  H139  1  0.10586945  0.21934101  0.00064486  1
  H+  H140  1  0.77402706  0.63685468  0.33182829  1
  H+  H141  1  0.37704082  0.46303111  0.49092251  1
  H+  H142  1  0.15744905  0.82106146  0.93288132  1
  H+  H143  1  0.15106646  0.27118342  0.49726261  1
  H+  H144  1  0.06416199  0.65486635  0.48248419  1
  H+  H145  1  0.91277625  0.82301323  0.94396876  1
  H+  H146  1  0.89181800  0.52494065  0.67536539  1
  H+  H147  1  0.48873253  0.82208833  0.81468883  1
  H+  H148  1  0.48779163  0.36463060  0.66394869  1
  H+  H149  1  0.72565572  0.85332230  0.31549618  1
  H+  H150  1  0.08890125  0.42800932  0.06428278  1
  H+  H151  1  0.02626607  0.55998834  0.77994512  1
  H+  H152  1  1.03178280  0.64214115  0.33576065  1
  H+  H153  1  0.37744960  0.37402182  0.49188088  1
  H+  H154  1  0.73558495  0.64350415  1.01577532  1
  H+  H155  1  0.64292938  0.37188688  0.50409531  1
  H+  H156  1  0.35037794  0.48636529  1.00410224  1
  H+  H157  1  0.94446049  0.87067367  0.23781855  1
  H+  H158  1  0.14565684  0.11918097  0.32811382  1
  H+  H159  1  0.58994513  0.21691804  0.83845383  1
  H+  H160  1  0.77856050  0.91777304  0.50315462  1
  H+  H161  1  0.62130306  0.88119826  -0.00837542  1
  H+  H162  1  0.39260811  0.52109846  0.32383660  1
  H+  H163  1  0.15364343  0.78882377  0.50185440  1
  H+  H164  1  0.51707322  0.88405016  0.00435313  1
  H+  H165  1  0.35575870  0.87222968  0.82720945  1
  H+  H166  1  0.38707477  0.78655669  0.65638899  1
  H+  H167  1  0.62709047  0.20376145  0.65951958  1
  H+  H168  1  0.12932529  0.11268475  0.17090212  1
  H+  H169  1  0.53788544  0.62631923  0.47620838  1
  H+  H170  1  0.11374016  0.98052128  0.34222882  1
  H+  H171  1  0.87381070  0.36512572  0.16762042  1
  H+  H172  1  0.89361586  0.27627694  0.83624240  1
  H+  H173  1  0.10526173  0.16652425  0.75299828  1
  H+  H174  1  0.61392463  0.22425390  0.16005215  1
  H+  H175  1  0.52423399  0.89777149  0.66911999  1
  H+  H176  1  0.14038812  0.39672292  0.47935298  1
  H+  H177  1  0.62193572  0.39615749  0.33722115  1
  H+  H178  1  1.02863821  0.14141812  0.14664550  1
  H+  H179  1  0.55899067  0.11278511  0.42998619  1
  H+  H180  1  0.88486068  0.85065849  1.00496520  1
  H+  H181  1  0.39276394  0.76479200  0.17560190  1
  H+  H182  1  0.60154205  0.75386655  -0.00586070  1
  H+  H183  1  0.03485918  0.64475832  0.67032258  1
  H+  H184  1  0.77105568  0.82664990  0.01875919  1
  H+  H185  1  0.48210990  0.11722689  1.02017813  1
  H+  H186  1  0.49313780  0.36231370  0.33699483  1
  H+  H187  1  0.60926802  0.12412540  0.00839766  1
  H+  H188  1  0.86299869  0.73084181  0.67303194  1
  H+  H189  1  0.51467743  0.33529629  -0.02802023  1
  H+  H190  1  0.50773135  0.63017267  0.67298477  1
  H+  H191  1  0.18035905  0.59709039  0.25929430  1
  H+  H192  1  0.12344144  0.59949776  0.81698942  1
  H+  H193  1  0.85562621  0.62999874  0.16384072  1
  H+  H194  1  0.62226052  0.48383037  0.49302201  1
  H+  H195  1  0.87698470  0.98711945  -0.00769260  1
  H+  H196  1  0.35204944  0.96063270  -0.06762008  1
  H+  H197  1  0.12744194  0.36852807  0.99336126  1
  H+  H198  1  0.63976427  0.96397155  0.82451637  1
  H+  H199  1  0.38808545  0.60901538  0.32708459  1
  H+  H200  1  0.86020714  0.47486176  0.83113150  1
  H+  H201  1  0.50419651  0.12699136  0.84781315  1
  H+  H202  1  0.97777690  0.86499997  0.33188609  1
  H+  H203  1  0.27372816  0.64191780  0.81489498  1
  H+  H204  1  0.34865634  0.26397003  0.98755526  1
  H+  H205  1  0.88839136  0.28705380  0.66498573  1
  H+  H206  1  0.88922795  0.79374495  0.49616396  1
  H+  H207  1  0.36646001  0.90038391  0.67171013  1
  H+  H208  1  0.02430328  0.88586805  0.00709885  1
  H+  H209  1  0.64504345  0.87682486  0.50622663  1
  H+  H210  1  0.14732244  0.28148683  0.16583854  1
  H+  H211  1  0.14256105  0.48623151  0.48226921  1
  H+  H212  1  0.76580637  0.87746299  0.83154090  1
  H+  H213  1  0.56200341  0.69373508  0.17060467  1
  H+  H214  1  0.02843251  0.90045568  0.49522335  1
  H+  H215  1  0.85691512  0.22170980  0.14167748  1
  H+  H216  1  0.60808333  0.86721335  0.32668090  1
  H+  H217  1  0.63245496  0.86407682  0.66565171  1
  H+  H218  1  0.36661229  0.77000196  -0.00862801  1
  H+  H219  1  0.61526568  0.71895795  0.32827130  1
  H+  H220  1  0.61714517  0.82792229  0.83187291  1
  H+  H221  1  0.15767131  0.54290909  0.16573537  1
  H+  H222  1  0.89861847  0.53495696  0.32809285  1
  H+  H223  1  0.87570430  0.15675821  0.49208140  1
  H+  H224  1  0.60260801  0.23743344  0.49714739  1
  H+  H225  1  0.63612539  0.08275277  0.36068219  1
  H+  H226  1  0.95707053  0.62984639  0.48966423  1
  H+  H227  1  0.88236890  0.76819674  0.84796883  1
  H+  H228  1  0.89374851  0.17635240  0.67648887  1
  H+  H229  1  0.87981937  0.38923789  0.00129946  1
  H+  H230  1  0.27987959  0.63170477  0.33522429  1
  H+  H231  1  0.26123545  0.12778612  0.16041039  1
  H+  H232  1  0.08654517  0.27796755  0.63521415  1
  H+  H233  1  0.64133185  0.13033671  0.85207689  1
  H+  H234  1  0.63640915  0.60584055  0.32630498  1
  H+  H235  1  0.89263569  0.02000082  0.35899936  1
  H+  H236  1  0.60496373  0.48072281  0.67742532  1
  H+  H237  1  0.61713429  0.21883875  1.00515782  1
  H+  H238  1  0.14619402  0.53252806  0.31666712  1
  H+  H239  1  0.84141080  0.09596964  0.99758376  1
  H+  H240  1  0.35025556  0.08287401  0.86003513  1
  H+  H241  1  0.14565861  0.77987907  0.65906310  1
  H+  H242  1  0.37241236  0.00543966  0.32444287  1
  H+  H243  1  0.26469181  0.38624023  0.83574983  1
  H+  H244  1  0.27622022  0.90819356  0.49277818  1
  H+  H245  1  0.79234066  0.14440470  0.66802055  1
  H+  H246  1  0.86647608  0.64247026  0.33211020  1
  H+  H247  1  0.34773863  0.15565341  0.40621401  1
  H+  H248  1  0.62491372  0.61260521  0.65582398  1
  H+  H249  1  0.75274620  0.38995827  0.32626755  1
  H+  H250  1  0.93160576  0.34756331  0.92880219  1
  H+  H251  1  0.12336726  0.65818600  0.16352308  1
  H+  H252  1  0.36092134  1.00328086  0.84167437  1
  H+  H253  1  0.88940768  0.77424763  0.32059545  1
  H+  H254  1  0.35949787  1.00191686  0.48841958  1
  H+  H255  1  0.77192179  0.50637649  0.56562864  1
  H+  H256  1  0.88492716  1.00166432  0.65998638  1
  H+  H257  1  0.49131806  0.35972907  0.50540279  1
  H+  H258  1  0.63362388  0.36344159  0.84343600  1
  H+  H259  1  0.47745166  0.85711086  0.17515485  1
  H+  H260  1  -0.02110850  0.61103703  -0.00065806  1
  H+  H261  1  0.40889851  0.26397072  0.50986657  1
  H+  H262  1  0.87389312  0.47692300  1.00324121  1
  H+  H263  1  0.37254938  0.36040991  0.83597244  1
  H+  H264  1  0.25206943  0.63456488  1.01214389  1
  H+  H265  1  0.29275049  0.14675749  0.67561235  1
  H+  H266  1  0.88496401  0.28507336  0.50700030  1
  H+  H267  1  0.66208069  0.01172072  0.83120541  1
  H+  H268  1  0.38259647  0.14688495  0.66920539  1
  H+  H269  1  0.83555028  0.42100227  0.73794449  1
  H+  H270  1  0.99095598  0.12923041  0.51654598  1
  H+  H271  1  0.33452110  0.46453722  0.68250478  1
  H+  H272  1  0.91319002  1.06462197  0.89770762  1
  H+  H273  1  0.73028958  0.52727936  0.03535652  1
  H+  H274  1  0.11228244  0.63768326  1.02196740  1
  H+  H275  1  0.40407583  0.61284075  0.51448052  1
  H+  H276  1  0.27362595  0.64710027  0.66933670  1
  H+  H277  1  0.10439686  0.87200480  0.82541480  1
  H+  H278  1  0.88712426  0.11121909  0.14025473  1
  H+  H279  1  0.88337731  0.02120554  0.14171400  1
  H+  H280  1  0.38447960  0.61805870  0.83270119  1
  H+  H281  1  0.86116063  0.38818190  0.49401323  1
  H+  H282  1  0.07114870  -0.02909658  0.17478693  1
  H+  H283  1  0.11544696  0.22568582  0.83897585  1
  H+  H284  1  0.38596231  0.88616727  0.50325624  1
  H+  H285  1  0.13228541  0.12354195  0.50299962  1
  H+  H286  1  0.72342404  0.84712037  0.16115325  1
  H+  H287  1  0.08583319  0.91055162  0.73620834  1
  H+  H288  1  0.67126170  0.33442838  0.89961614  1
  H+  H289  1  0.21992719  0.84559866  0.83598335  1
  H+  H290  1  0.81491427  0.86952440  0.74284250  1
  H+  H291  1  0.50465305  0.15496692  0.50001741  1
  H+  H292  1  0.89500408  0.88628729  0.50487558  1
  H+  H293  1  0.15813530  0.08172132  0.23101555  1
  H+  H294  1  0.97896804  0.61309006  0.17315311  1
  H+  H295  1  0.88270667  0.05634403  0.25592089  1
  H+  H296  1  0.42223419  0.71611749  0.11314242  1
  H+  H297  1  0.60555668  0.42801812  0.10113292  1
  H+  H298  1  0.96336838  0.07929540  0.99371755  1
  H+  H299  1  0.35813400  0.96169136  0.15793130  1
  H+  H300  1  0.73098704  0.13499117  0.49440090  1
  H+  H301  1  0.60925959  0.71542334  0.82659363  1
  H+  H302  1  0.18214619  0.08502319  0.93964736  1
  H+  H303  1  0.67199528  0.58572316  0.56236521  1
  H+  H304  1  0.46400183  0.89497762  0.85831356  1
  H+  H305  1  0.11161955  0.18259046  0.39874168  1
  H+  H306  1  0.83739124  0.68909233  0.42527856  1
  H+  H307  1  0.90764762  0.34181182  0.56748892  1
  H+  H308  1  0.16232068  0.33374478  0.58875677  1
  H+  H309  1  0.55332035  0.86104270  0.75885855  1
  H+  H310  1  0.92354726  0.58722887  0.26541298  1
  H+  H311  1  0.10979990  0.43118950  0.39063987  1
  H+  H312  1  0.08353079  0.67713388  0.10388228  1
  H+  H313  1  0.33737999  0.92288634  0.39617511  1
  H+  H314  1  0.37781220  0.52548212  0.83820249  1
  H+  H315  1  0.05259185  0.08423783  0.45940962  1
  H+  H316  1  0.40304663  0.59076172  0.93164371  1
  H+  H317  1  0.60709958  0.87540397  0.14574117  1
  H+  H318  1  0.32625170  0.66403093  0.06517548  1
  H+  H319  1  0.40814568  0.09239013  0.59339258  1
  H+  H320  1  0.37232026  0.55767827  0.60923842  1
  H+  H321  1  0.33588634  0.43498047  0.09941273  1
  H+  H322  1  0.83657916  0.16981719  0.77309920  1
  H+  H323  1  0.65161908  0.58704423  0.90183779  1
  H+  H324  1  0.31404026  0.41191336  0.77259955  1
  H+  H325  1  0.43651515  0.59798396  0.22904520  1
  H+  H326  1  0.86720549  0.55552153  0.58895190  1
  H+  H327  1  0.89107202  0.10785189  0.84191773  1
  H+  H328  1  0.41545179  0.84975372  0.59803553  1
  H+  H329  1  0.96927582  0.15291521  0.60779083  1
  H+  H330  1  0.17080979  0.84087216  0.56504364  1
  H+  H331  1  0.69050300  0.07894511  0.58984327  1
  H+  H332  1  0.11658198  0.13574213  0.00235710  1
  H+  H333  1  0.09588561  0.17241968  0.09480286  1
  H+  H334  1  0.34162646  0.40385367  0.39588748  1
  H+  H335  1  0.37694623  0.32240682  0.92800079  1
  H+  H336  1  0.01866154  0.87680011  0.82697401  1
  H+  H337  1  0.32409982  0.15913962  0.07212880  1
  H+  H338  1  0.67814925  0.85460667  0.56808511  1
  H+  H339  1  0.64870244  0.48010635  -0.00323879  1
  H+  H340  1  0.59926843  0.65838157  0.41995198  1
  H+  H341  1  0.93709795  0.35738277  0.26895537  1
  H+  H342  1  0.76821397  0.63051228  0.83454826  1
  H+  H343  1  0.83899881  0.28605426  0.21201015  1
  H+  H344  1  0.36192898  0.26631434  0.84185240  1
  H+  H345  1  0.08623129  0.92530202  0.40411685  1
  H+  H346  1  0.17063657  0.57048256  0.87456579  1
  H+  H347  1  0.11602697  0.68437848  0.42206801  1
  H+  H348  1  0.82419991  0.14374176  0.05160629  1
  H+  H349  1  0.65797888  0.83042447  0.89776578  1
  H+  H350  1  0.36700656  0.71814665  0.33843988  1
  H+  H351  1  0.85490068  0.18660753  0.42860660  1
  H+  H352  1  0.59016978  0.42402420  0.43264132  1
  H+  H353  1  0.71121616  0.09329792  0.99640949  1
  H+  H354  1  0.57638221  0.90920178  0.08738815  1
  H+  H355  1  0.84584220  0.42905604  0.40153888  1
  H+  H356  1  0.92515516  0.05785862  0.25698552  1
  H+  H357  1  0.64337368  0.13338782  0.50894745  1
  H+  H358  1  0.12323408  0.64531202  0.32958910  1
  H+  H359  1  0.43263388  0.32705586  0.59904652  1
  H+  H360  1  0.40708267  0.07725424  0.22778093  1
  H+  H361  1  0.57489626  0.42096288  0.73751562  1
  H+  H362  1  0.82460975  0.66992820  0.77508613  1
  H+  H363  1  0.18610607  0.08376236  0.57872882  1
  H+  H364  1  0.46630805  0.59070061  0.55243087  1
  H+  H365  1  0.89934279  0.04970275  0.52885637  1
  H+  H366  1  0.62123432  0.97719655  0.67048354  1
  H+  H367  1  0.63910284  0.01734071  0.15660620  1
  H+  H368  1  0.57107268  0.89091959  0.42494844  1
  H+  H369  1  0.57076775  0.66027830  0.73029950  1
  H+  H370  1  0.15590292  0.33311857  0.90370763  1
  H+  H371  1  0.18093681  0.33743842  0.26030758  1
  H+  H372  1  0.15176991  0.60255799  0.95546260  1
  H+  H373  1  0.81505370  0.88246298  0.39449486  1
  H+  H374  1  0.77037558  0.38512087  0.82852187  1
  H+  H375  1  0.58255455  0.16564452  0.10074680  1
  H+  H376  1  0.85695310  0.96666687  0.82629375  1
  H+  H377  1  0.67303385  0.09988372  0.90940124  1
  H+  H378  1  0.68303391  0.34681903  0.22589865  1
  H+  H379  1  0.33650229  0.67987783  0.72838245  1
  H+  H380  1  0.40055477  0.82225113  0.92763042  1
  H+  H381  1  0.12383069  0.82530141  0.24726160  1
  H+  H382  1  0.66516575  0.57132677  0.26742614  1
  H+  H383  1  0.09925660  0.76654712  0.17527262  1
  O2-  O384  1  0.09304237  0.17431535  0.14031073  1
  O2-  O385  1  0.09156207  0.13796850  0.48017251  1
  O2-  O386  1  0.09444379  0.16497558  0.82480612  1
  O2-  O387  1  0.09436061  0.42724591  0.14819830  1
  O2-  O388  1  0.11519977  0.42964089  0.46185276  1
  O2-  O389  1  0.08567213  0.41002258  0.79960683  1
  O2-  O390  1  0.08320572  0.67796308  0.15087077  1
  O2-  O391  1  0.12342727  0.68689701  0.46788285  1
  O2-  O392  1  0.06675307  0.61656760  0.79632988  1
  O2-  O393  1  0.02780116  0.90778454  0.16937424  1
  O2-  O394  1  0.09023926  0.93004322  0.48162917  1
  O2-  O395  1  0.07620615  0.90217266  0.80769418  1
  O2-  O396  1  0.32138858  0.16065501  0.14525946  1
  O2-  O397  1  0.35641396  0.15177867  0.49008432  1
  O2-  O398  1  0.29125538  0.15193608  0.84038632  1
  O2-  O399  1  0.34066168  0.43276699  0.14470893  1
  O2-  O400  1  0.34660372  0.40330438  0.47529358  1
  O2-  O401  1  0.32379236  0.41793110  0.81786160  1
  O2-  O402  1  0.36984854  0.67983681  0.13623072  1
  O2-  O403  1  0.35852959  0.67451783  0.52270556  1
  O2-  O404  1  0.33617375  0.67516114  0.80250607  1
  O2-  O405  1  0.32719834  0.90097389  0.14594895  1
  O2-  O406  1  0.33648954  0.93956289  0.47744243  1
  O2-  O407  1  0.31943911  0.89986223  0.81250217  1
  O2-  O408  1  0.57946857  0.16373543  0.14617957  1
  O2-  O409  1  0.56568043  0.17480286  0.48773093  1
  O2-  O410  1  0.56271957  0.15463324  0.83078997  1
  O2-  O411  1  0.58887185  0.41204584  0.14385539  1
  O2-  O412  1  0.58945609  0.42224339  0.47787313  1
  O2-  O413  1  0.57347350  0.41140764  0.81802377  1
  O2-  O414  1  0.62372021  0.72569486  0.15767280  1
  O2-  O415  1  0.59876615  0.65392862  0.46536374  1
  O2-  O416  1  0.57669730  0.65620556  0.80843857  1
  O2-  O417  1  0.57855100  0.90817385  0.13498267  1
  O2-  O418  1  0.57723927  0.90298888  0.46917321  1
  O2-  O419  1  0.53587476  0.81931319  0.79246612  1
  O2-  O420  1  0.82854285  0.16141472  0.12905734  1
  O2-  O421  1  0.84431568  0.18290193  0.47321993  1
  O2-  O422  1  0.84192368  0.17027523  0.81809045  1
  O2-  O423  1  0.83918169  0.42012433  0.13638925  1
  O2-  O424  1  0.82961788  0.41649888  0.47427524  1
  O2-  O425  1  0.83166032  0.41532887  0.81398064  1
  O2-  O426  1  0.81995459  0.65644888  0.15555434  1
  O2-  O427  1  0.84166405  0.69987163  0.46968150  1
  O2-  O428  1  0.82875268  0.66132683  0.81935068  1
  O2-  O429  1  0.80736346  0.89730620  0.13908765  1
  O2-  O430  1  0.84377543  0.95207918  0.49020870  1
  O2-  O431  1  0.82630426  0.90430230  0.81570189  1
  O2-  O432  1  0.15131055  0.07425216  0.18631738  1
  O2-  O433  1  0.18953310  0.08598669  0.53291890  1
  O2-  O434  1  0.20731966  0.11097616  0.86124643  1
  O2-  O435  1  0.17499590  0.34084305  0.18347966  1
  O2-  O436  1  0.18194358  0.33023938  0.51227345  1
  O2-  O437  1  0.15902925  0.32837269  0.85808792  1
  O2-  O438  1  0.18733565  0.60319855  0.18044885  1
  O2-  O439  1  0.18985031  0.59167566  0.51664357  1
  O2-  O440  1  0.17135037  0.57647872  0.83067195  1
  O2-  O441  1  0.11241183  0.82367796  0.19473618  1
  O2-  O442  1  0.17146052  0.84621259  0.51949904  1
  O2-  O443  1  0.15910884  0.81577656  0.85272449  1
  O2-  O444  1  0.40836738  0.08336395  0.18287774  1
  O2-  O445  1  0.39778143  0.10334120  0.51461653  1
  O2-  O446  1  0.38372098  0.05429470  0.86913431  1
  O2-  O447  1  0.42373753  0.33819160  0.16928547  1
  O2-  O448  1  0.43078384  0.32500861  0.52148504  1
  O2-  O449  1  0.40143894  0.32836019  0.85076179  1
  O2-  O450  1  0.44581488  0.60410457  0.18448189  1
  O2-  O451  1  0.42791133  0.57262414  0.51742438  1
  O2-  O452  1  0.41219611  0.58709064  0.85095939  1
  O2-  O453  1  0.41937143  0.82500791  0.19412014  1
  O2-  O454  1  0.41500692  0.85512345  0.52015382  1
  O2-  O455  1  0.41262641  0.83889054  0.85296304  1
  O2-  O456  1  0.67261611  0.07820992  0.17076719  1
  O2-  O457  1  0.67247869  0.09932484  0.51102393  1
  O2-  O458  1  0.68764367  0.11932977  0.86639713  1
  O2-  O459  1  0.67567501  0.33705814  0.18149182  1
  O2-  O460  1  0.66916966  0.33730094  0.51788697  1
  O2-  O461  1  0.66705466  0.33479751  0.85442446  1
  O2-  O462  1  0.66395723  0.57126087  0.20077974  1
  O2-  O463  1  0.67781827  0.58239004  0.51757914  1
  O2-  O464  1  0.65894906  0.57984466  0.85767587  1
  O2-  O465  1  0.65753437  0.81446621  0.17963425  1
  O2-  O466  1  0.68860172  0.86383668  0.52376644  1
  O2-  O467  1  0.66165817  0.81868656  0.85332760  1
  O2-  O468  1  0.92292362  0.08361414  0.14424033  1
  O2-  O469  1  0.93564653  0.11298016  0.53632230  1
  O2-  O470  1  0.91956329  0.07403136  0.85257738  1
  O2-  O471  1  0.89139173  0.32645722  0.19070490  1
  O2-  O472  1  0.90801173  0.34438466  0.52244630  1
  O2-  O473  1  0.92667798  0.33939347  0.84610958  1
  O2-  O474  1  0.91874614  0.58005273  0.18887560  1
  O2-  O475  1  0.83121786  0.53268496  0.55195121  1
  O2-  O476  1  0.91823545  0.58070757  0.85515782  1
  O2-  O477  1  0.95022763  0.89913697  0.19736208  1
  O2-  O478  1  0.92404943  0.85350734  0.51524205  1
  O2-  O479  1  0.91450954  0.82865800  0.86255986  1
  O2-  O480  1  0.17169895  0.08483284  0.31333463  1
  O2-  O481  1  0.18628791  0.08375577  0.65520438  1
  O2-  O482  1  0.17241733  0.08095706  0.98406989  1
  O2-  O483  1  0.18363945  0.33886077  0.30606774  1
  O2-  O484  1  0.14546044  0.32986957  0.63236733  1
  O2-  O485  1  0.15455012  0.33436273  0.97885129  1
  O2-  O486  1  0.17359717  0.59429759  0.30448479  1
  O2-  O487  1  0.17441955  0.59270779  0.63872599  1
  O2-  O488  1  0.15544331  0.59152057  0.99819167  1
  O2-  O489  1  0.14085850  0.82983818  0.30227798  1
  O2-  O490  1  0.17355698  0.83953579  0.64238721  1
  O2-  O491  1  0.16402137  0.82914249  0.97775369  1
  O2-  O492  1  0.40162611  0.06910580  0.30879003  1
  O2-  O493  1  0.41975316  0.09192522  0.63780661  1
  O2-  O494  1  0.41668269  0.08259632  1.02650465  1
  O2-  O495  1  0.42710676  0.32364398  0.32636340  1
  O2-  O496  1  0.42733309  0.32556496  0.64436885  1
  O2-  O497  1  0.36021361  0.31963726  0.97141910  1
  O2-  O498  1  0.42221739  0.58158123  0.31103493  1
  O2-  O499  1  0.39308190  0.57419608  0.65080680  1
  O2-  O500  1  0.40258339  0.59077945  0.97685076  1
  O2-  O501  1  0.40793679  0.82386823  0.31405589  1
  O2-  O502  1  0.41693669  0.84781247  0.64348186  1
  O2-  O503  1  0.39897175  0.82893223  0.97333580  1
  O2-  O504  1  0.68517167  0.07641406  0.34360746  1
  O2-  O505  1  0.69348169  0.07839854  0.63508081  1
  O2-  O506  1  0.64898558  0.07197353  0.98560168  1
  O2-  O507  1  0.69216383  0.36191757  0.30928719  1
  O2-  O508  1  0.67737304  0.30867971  0.64237208  1
  O2-  O509  1  0.68477759  0.32821730  0.97850991  1
  O2-  O510  1  0.66626176  0.57308850  0.31515490  1
  O2-  O511  1  0.65902165  0.58541328  0.64256527  1
  O2-  O512  1  0.63165271  0.60000009  0.97862327  1
  O2-  O513  1  0.66516010  0.82189200  0.30119365  1
  O2-  O514  1  0.66184471  0.83273099  0.64997094  1
  O2-  O515  1  0.65634219  0.85121584  0.97132795  1
  O2-  O516  1  0.92453627  0.07799263  0.37764750  1
  O2-  O517  1  0.99023813  0.18607475  0.64654491  1
  O2-  O518  1  0.90614137  0.04607325  0.97445897  1
  O2-  O519  1  0.93978135  0.35504635  0.31376503  1
  O2-  O520  1  0.91647007  0.34692051  0.64788307  1
  O2-  O521  1  0.92996429  0.34887449  0.97370412  1
  O2-  O522  1  0.92773490  0.59447804  0.31093638  1
  O2-  O523  1  0.92239033  0.58735647  0.65942549  1
  O2-  O524  1  0.92023390  0.57472051  0.98222019  1
  O2-  O525  1  0.92081431  0.83773810  0.31080607  1
  O2-  O526  1  0.93386173  0.83762612  0.63842015  1
  O2-  O527  1  0.91343904  0.81830674  0.98903956  1
  O2-  O528  1  0.08062934  0.16009169  0.01699615  1
  O2-  O529  1  0.09615881  0.17567445  0.35529850  1
  O2-  O530  1  0.11315762  0.16962892  0.70689908  1
  O2-  O531  1  0.09049230  0.43139814  0.01945104  1
  O2-  O532  1  0.10369366  0.42964315  0.34432111  1
  O2-  O533  1  0.08678752  0.43013658  0.67893779  1
  O2-  O534  1  0.08039324  0.67094379  0.03468963  1
  O2-  O535  1  0.09389772  0.67510214  0.34842792  1
  O2-  O536  1  0.09622275  0.67429711  0.68334177  1
  O2-  O537  1  0.08659161  0.92182816  0.01675755  1
  O2-  O538  1  0.08097593  0.92077383  0.35867556  1
  O2-  O539  1  0.09468750  0.91816410  0.69014000  1
  O2-  O540  1  0.32978305  0.15452682  0.02653196  1
  O2-  O541  1  0.34500728  0.16353531  0.36168314  1
  O2-  O542  1  0.35556676  0.18120668  0.68506766  1
  O2-  O543  1  0.31807790  0.42761478  0.02255173  1
  O2-  O544  1  0.34466717  0.40217939  0.35059503  1
  O2-  O545  1  0.30175381  0.40513393  0.69794721  1
  O2-  O546  1  0.31751041  0.66483157  0.01987870  1
  O2-  O547  1  0.33919604  0.65660231  0.35111379  1
  O2-  O548  1  0.33568832  0.67800917  0.68214298  1
  O2-  O549  1  0.34199841  0.93696888  -0.02607473  1
  O2-  O550  1  0.33445069  0.91787581  0.35132754  1
  O2-  O551  1  0.33629561  0.93040521  0.68751466  1
  O2-  O552  1  0.58188406  0.16039030  0.02272852  1
  O2-  O553  1  0.55417223  0.06424790  0.40440022  1
  O2-  O554  1  0.59737741  0.14046432  0.66734911  1
  O2-  O555  1  0.67752846  0.47049027  0.03091074  1
  O2-  O556  1  0.58411891  0.41810037  0.35230977  1
  O2-  O557  1  0.57342105  0.42063497  0.69229133  1
  O2-  O558  1  0.57218687  0.69229460  0.00905505  1
  O2-  O559  1  0.58675501  0.65940148  0.34510487  1
  O2-  O560  1  0.56908632  0.66129398  0.68462057  1
  O2-  O561  1  0.57684086  0.91541862  0.01879494  1
  O2-  O562  1  0.57678406  0.89526349  0.34420434  1
  O2-  O563  1  0.58220989  0.91836746  0.68692213  1
  O2-  O564  1  0.81306680  0.12922192  0.00783954  1
  O2-  O565  1  0.85983768  0.18628211  0.34856339  1
  O2-  O566  1  0.84620925  0.18500950  0.69080823  1
  O2-  O567  1  0.84435727  0.41501919  0.01844589  1
  O2-  O568  1  0.85013421  0.43227515  0.35548192  1
  O2-  O569  1  0.84128147  0.42904550  0.69263644  1
  O2-  O570  1  0.79009506  0.65057492  0.03217318  1
  O2-  O571  1  0.83575279  0.67346644  0.34437453  1
  O2-  O572  1  0.81210516  0.69699624  0.69947193  1
  O2-  O573  1  0.81694391  0.88475780  0.02790938  1
  O2-  O574  1  0.82810587  0.90309896  0.35264601  1
  O2-  O575  1  0.80367165  0.84061400  0.70219836  1
