# generated using pymatgen
data_H2O
_symmetry_space_group_name_H-M   'P 1'
_cell_length_a   17.99757118
_cell_length_b   17.99364039
_cell_length_c   22.00970773
_cell_angle_alpha   89.97909738
_cell_angle_beta   90.01997800
_cell_angle_gamma   120.01072610
_symmetry_Int_Tables_number   1
_chemical_formula_structural   H2O
_chemical_formula_sum   'H384 O192'
_cell_volume   6172.07020027
_cell_formula_units_Z   192
loop_
 _symmetry_equiv_pos_site_id
 _symmetry_equiv_pos_as_xyz
  1  'x, y, z'
loop_
 _atom_type_symbol
 _atom_type_oxidation_number
  H+  1.0
  O2-  -2.0
loop_
 _atom_site_type_symbol
 _atom_site_label
 _atom_site_symmetry_multiplicity
 _atom_site_fract_x
 _atom_site_fract_y
 _atom_site_fract_z
 _atom_site_occupancy
  H+  H0  1  0.83382365  0.76003573  -0.02625579  1
  H+  H1  1  0.57931795  0.16554209  0.76221347  1
  H+  H2  1  0.87422461  0.59650176  0.51182363  1
  H+  H3  1  0.77489136  0.63804060  1.02201075  1
  H+  H4  1  0.10482282  0.72930268  1.01637690  1
  H+  H5  1  0.63426358  0.78179852  0.01591496  1
  H+  H6  1  0.87358595  0.90456175  0.66972465  1
  H+  H7  1  0.58316013  0.01415569  0.86810614  1
  H+  H8  1  0.21217710  0.34560054  0.82378625  1
  H+  H9  1  0.63678442  0.10376664  0.32094324  1
  H+  H10  1  0.27530275  0.64256952  0.66374689  1
  H+  H11  1  0.78196962  0.90707306  0.32962759  1
  H+  H12  1  0.63068708  0.35071097  0.83655983  1
  H+  H13  1  0.39014079  0.02295632  0.99724599  1
  H+  H14  1  0.89224021  1.03780021  0.50597694  1
  H+  H15  1  0.84265255  0.85164015  0.98412564  1
  H+  H16  1  0.61896223  0.63995143  0.17476267  1
  H+  H17  1  0.15124916  0.07632699  0.60022977  1
  H+  H18  1  0.00758003  0.13770083  0.34083208  1
  H+  H19  1  0.02994348  0.89019206  0.01816587  1
  H+  H20  1  0.90488744  0.89098200  0.33406609  1
  H+  H21  1  0.64276572  0.61917131  1.03527792  1
  H+  H22  1  0.12361584  0.47374069  0.16153403  1
  H+  H23  1  0.33077882  0.91377133  0.10161346  1
  H+  H24  1  0.61819129  0.63907176  0.65825241  1
  H+  H25  1  0.88621359  0.61335237  0.17580358  1
  H+  H26  1  0.12910260  1.02410247  0.66196695  1
  H+  H27  1  0.45728015  0.62918465  0.80831196  1
  H+  H28  1  0.89100143  0.75707940  0.66783855  1
  H+  H29  1  0.11349710  0.46875254  0.00726165  1
  H+  H30  1  0.85756664  0.23962986  0.65580037  1
  H+  H31  1  0.27525146  0.37406485  0.67280602  1
  H+  H32  1  0.29826905  0.03248220  0.64055824  1
  H+  H33  1  0.85979490  0.14177779  0.66384983  1
  H+  H34  1  0.52903361  0.64415454  0.02477211  1
  H+  H35  1  0.87716676  0.72275823  0.80380196  1
  H+  H36  1  0.37781486  0.85168390  0.32640561  1
  H+  H37  1  0.01809307  0.70366854  0.43678287  1
  H+  H38  1  0.47963297  0.11265859  1.00007849  1
  H+  H39  1  0.13841707  0.86206654  0.00252448  1
  H+  H40  1  0.51334836  0.89224769  0.86289202  1
  H+  H41  1  0.11300434  0.72440468  0.82987870  1
  H+  H42  1  0.56880289  0.35666379  0.49393706  1
  H+  H43  1  0.12819520  0.01802503  0.50168191  1
  H+  H44  1  0.35565123  0.47098989  0.82084466  1
  H+  H45  1  0.13417197  0.10908757  0.50728761  1
  H+  H46  1  0.87699246  0.15102248  0.49593822  1
  H+  H47  1  0.12756273  0.11884740  0.33401466  1
  H+  H48  1  0.87253604  0.13801855  0.84187325  1
  H+  H49  1  0.36741158  0.38967379  0.16853460  1
  H+  H50  1  0.86694169  0.62170831  0.66216110  1
  H+  H51  1  0.87468359  0.36230934  0.50561361  1
  H+  H52  1  0.36028700  0.88250061  0.00964188  1
  H+  H53  1  0.37194238  0.72633810  0.15981616  1
  H+  H54  1  0.48603102  0.86083577  0.65391228  1
  H+  H55  1  0.39630155  0.52883073  0.18441445  1
  H+  H56  1  0.09388711  0.88046515  0.48642003  1
  H+  H57  1  0.61632192  -0.01962479  0.16144082  1
  H+  H58  1  0.89305921  0.86622721  0.80168408  1
  H+  H59  1  0.11643295  0.22699795  0.15854696  1
  H+  H60  1  0.43581374  0.35128881  0.90318590  1
  H+  H61  1  0.88701494  0.27352921  0.99503217  1
  H+  H62  1  0.47774286  0.36079915  0.65064019  1
  H+  H63  1  1.09052962  0.42982061  0.73030347  1
  H+  H64  1  0.37805971  0.64046861  0.16346696  1
  H+  H65  1  0.64317032  0.77981772  0.17758593  1
  H+  H66  1  0.38041556  0.10974533  0.32547895  1
  H+  H67  1  0.36763611  0.83039029  0.83820851  1
  H+  H68  1  0.89773712  0.03295354  0.84441575  1
  H+  H69  1  0.97445667  0.35832403  0.33476169  1
  H+  H70  1  0.90014229  0.26659498  0.18220950  1
  H+  H71  1  0.64224581  1.02455192  0.64412351  1
  H+  H72  1  0.39391683  0.13741582  0.85171161  1
  H+  H73  1  0.98910768  0.35530604  0.18282663  1
  H+  H74  1  0.01980969  0.38367138  0.00814907  1
  H+  H75  1  0.24469690  0.37477365  0.32484776  1
  H+  H76  1  0.17080437  0.28075881  0.30910961  1
  H+  H77  1  0.38823018  0.27245582  0.17297263  1
  H+  H78  1  0.87449783  0.35333428  0.65909347  1
  H+  H79  1  0.97743665  0.12682765  0.66383829  1
  H+  H80  1  0.10990094  0.63274395  0.82760946  1
  H+  H81  1  0.35760023  -0.02248397  0.33429617  1
  H+  H82  1  0.79173685  0.89141514  0.82872255  1
  H+  H83  1  0.73189890  0.86690012  0.48684426  1
  H+  H84  1  0.14045753  0.86767132  0.17738522  1
  H+  H85  1  0.40667146  0.88324001  0.80145690  1
  H+  H86  1  0.11583542  0.50911465  0.83883313  1
  H+  H87  1  0.37702216  0.87541084  0.66321846  1
  H+  H88  1  0.26674166  0.13454654  0.34126958  1
  H+  H89  1  0.76252912  0.13307008  0.65532212  1
  H+  H90  1  0.23870051  0.60262396  0.17273978  1
  H+  H91  1  0.61907326  0.97267726  0.49501451  1
  H+  H92  1  0.08785467  0.91917052  0.07774925  1
  H+  H93  1  0.63931042  0.51668948  0.49784633  1
  H+  H94  1  0.01550878  0.38893499  0.49536178  1
  H+  H95  1  0.85330443  0.47389405  0.15796335  1
  H+  H96  1  0.36542537  0.80068769  0.90905277  1
  H+  H97  1  0.47011263  0.86086737  0.48521806  1
  H+  H98  1  0.25145045  0.87440070  0.32809401  1
  H+  H99  1  0.10798763  0.47533457  0.49431163  1
  H+  H100  1  0.78131137  0.13014734  0.84833665  1
  H+  H101  1  0.42512706  0.09765564  0.90514870  1
  H+  H102  1  0.21822413  0.36541268  0.50294201  1
  H+  H103  1  0.04284525  0.07867767  0.78675161  1
  H+  H104  1  0.10467030  0.93065310  0.77259603  1
  H+  H105  1  0.76427152  0.81121214  0.91115056  1
  H+  H106  1  0.14019625  0.11848452  0.17490009  1
  H+  H107  1  0.14258955  0.51934123  0.32961392  1
  H+  H108  1  0.62129903  0.39044209  0.01721286  1
  H+  H109  1  0.47459539  0.61103318  0.49191404  1
  H+  H110  1  0.76840316  0.62893633  0.49576735  1
  H+  H111  1  0.34789817  0.38765385  0.49545462  1
  H+  H112  1  0.61425930  0.63003789  0.83526016  1
  H+  H113  1  0.37118063  0.39218307  0.34048882  1
  H+  H114  1  0.61213474  0.22379940  0.16171315  1
  H+  H115  1  0.47596077  0.35635756  0.32794943  1
  H+  H116  1  0.87486695  0.73686269  0.35123700  1
  H+  H117  1  0.60660027  0.17653075  0.42048236  1
  H+  H118  1  0.62011767  0.10447679  0.83769661  1
  H+  H119  1  0.61640912  0.89132746  0.16066757  1
  H+  H120  1  0.51983872  0.12731518  0.33303401  1
  H+  H121  1  0.47853554  0.86532740  0.17366459  1
  H+  H122  1  0.39501284  0.77284413  0.65501837  1
  H+  H123  1  0.61779591  0.71814751  0.48007793  1
  H+  H124  1  0.61493864  0.38475366  0.16911705  1
  H+  H125  1  0.63834548  0.26723703  0.84089635  1
  H+  H126  1  0.13419261  0.27931535  0.66137202  1
  H+  H127  1  0.16638446  0.33638278  0.60131940  1
  H+  H128  1  -0.01055957  0.11758292  0.84083651  1
  H+  H129  1  0.35057394  0.22771104  0.49227895  1
  H+  H130  1  0.38607172  0.52400849  1.00819991  1
  H+  H131  1  0.14384102  0.61625756  0.49944047  1
  H+  H132  1  0.84222302  0.91649269  0.10658162  1
  H+  H133  1  0.72782213  0.10850318  0.32786658  1
  H+  H134  1  0.34522369  0.00740696  0.83371810  1
  H+  H135  1  0.01210162  0.63959187  0.01501860  1
  H+  H136  1  0.37452004  0.63921027  0.00660217  1
  H+  H137  1  0.86353485  0.84343641  0.53293832  1
  H+  H138  1  0.12067038  0.77650762  0.50149605  1
  H+  H139  1  0.03977513  0.88109832  0.68018828  1
  H+  H140  1  0.08760773  0.66978058  0.73049715  1
  H+  H141  1  0.98343286  0.86873193  0.80542252  1
  H+  H142  1  0.66075208  0.99224783  0.80559206  1
  H+  H143  1  0.95812483  0.16944210  0.28833988  1
  H+  H144  1  0.78183849  0.13669024  1.01006764  1
  H+  H145  1  0.78040386  0.64261833  0.16411878  1
  H+  H146  1  -0.00358637  0.63178711  0.48462691  1
  H+  H147  1  0.37252469  0.63904313  0.33824860  1
  H+  H148  1  0.38381374  0.27012072  0.32957809  1
  H+  H149  1  0.38741229  0.86107207  0.17159611  1
  H+  H150  1  0.98321211  0.61066997  0.83978797  1
  H+  H151  1  0.35808721  -0.00256949  0.66250782  1
  H+  H152  1  0.14209585  0.77314985  0.65612946  1
  H+  H153  1  0.10136541  0.37567468  0.81833654  1
  H+  H154  1  -0.01345114  0.11080930  0.17415032  1
  H+  H155  1  0.86954172  0.73018978  0.16895626  1
  H+  H156  1  0.92846446  0.84198676  0.24178102  1
  H+  H157  1  0.12549419  0.25709107  0.81826569  1
  H+  H158  1  0.62740589  0.88724450  0.65020640  1
  H+  H159  1  0.65910374  0.66776698  0.83073807  1
  H+  H160  1  0.27651978  0.13873848  0.16075052  1
  H+  H161  1  0.58776861  0.70245816  0.79541205  1
  H+  H162  1  0.23018317  0.59908003  0.99168808  1
  H+  H163  1  0.45365100  0.36856858  0.50895738  1
  H+  H164  1  0.74297821  0.36941472  0.65167803  1
  H+  H165  1  0.60690463  0.89267960  1.01303174  1
  H+  H166  1  0.11314904  0.22539975  0.49971849  1
  H+  H167  1  0.73309834  0.10133023  0.48496396  1
  H+  H168  1  0.48021517  0.62495082  0.63940419  1
  H+  H169  1  0.87141157  0.99882177  0.32807744  1
  H+  H170  1  0.03036310  0.89292266  0.16992822  1
  H+  H171  1  0.38459632  0.35529922  0.66106203  1
  H+  H172  1  0.33715239  0.62500714  0.81544739  1
  H+  H173  1  0.39119596  0.62395852  0.64535984  1
  H+  H174  1  0.90740999  0.93499961  0.46606469  1
  H+  H175  1  0.48935239  0.36786430  -0.00154945  1
  H+  H176  1  0.89425292  0.86540410  0.18135234  1
  H+  H177  1  0.23568978  0.60580216  0.32713155  1
  H+  H178  1  0.11884649  0.64077392  0.67073828  1
  H+  H179  1  0.63462881  0.93066592  0.33158782  1
  H+  H180  1  0.26594085  0.88624817  0.48085350  1
  H+  H181  1  0.14034383  0.36633375  0.16602742  1
  H+  H182  1  0.41688097  0.16118460  0.52595224  1
  H+  H183  1  0.98542572  0.60972268  0.65814600  1
  H+  H184  1  0.72339495  0.36162368  0.16635680  1
  H+  H185  1  0.51984013  0.14042258  0.82256894  1
  H+  H186  1  0.63893040  0.27476727  -0.00215774  1
  H+  H187  1  0.64410300  0.60720382  0.34994514  1
  H+  H188  1  0.22630768  0.86100054  0.17218752  1
  H+  H189  1  0.67356481  0.08461570  0.22768247  1
  H+  H190  1  0.84300981  0.67398162  0.40861608  1
  H+  H191  1  0.15501362  0.76896642  0.32447456  1
  H+  H192  1  0.14368779  0.53186993  0.66005242  1
  H+  H193  1  0.88693544  0.52678352  -0.00705573  1
  H+  H194  1  0.63690867  0.02589297  1.00143671  1
  H+  H195  1  0.87164555  0.47401427  0.67588174  1
  H+  H196  1  0.57363937  0.91158511  0.55183616  1
  H+  H197  1  0.11561097  0.38382775  0.34439236  1
  H+  H198  1  0.27591473  0.15033392  0.83841191  1
  H+  H199  1  0.86812046  0.12857663  0.16117361  1
  H+  H200  1  0.40950185  0.54018136  0.33206580  1
  H+  H201  1  0.63114084  0.23650141  0.65640699  1
  H+  H202  1  0.62613199  0.89376425  0.80934082  1
  H+  H203  1  0.21533222  0.87123307  0.84942256  1
  H+  H204  1  0.88123643  0.26724536  0.84499545  1
  H+  H205  1  0.86560573  0.38970636  0.00348079  1
  H+  H206  1  0.72864564  0.60499085  0.65218993  1
  H+  H207  1  0.39295346  0.23799185  0.68725216  1
  H+  H208  1  0.87302410  0.97380059  0.16653500  1
  H+  H209  1  0.46938041  0.86131319  -0.00312961  1
  H+  H210  1  0.52630056  0.38706646  0.16935222  1
  H+  H211  1  0.92105556  0.83122179  0.71465314  1
  H+  H212  1  0.32003532  0.70308106  0.82932382  1
  H+  H213  1  0.97955501  0.10357557  1.00434799  1
  H+  H214  1  0.67894478  0.76764400  0.87123574  1
  H+  H215  1  0.14906464  1.02992752  -0.00332394  1
  H+  H216  1  0.75212545  0.59178470  0.82427597  1
  H+  H217  1  0.00556073  0.87714951  0.49832344  1
  H+  H218  1  0.38681713  0.11151228  0.17040518  1
  H+  H219  1  0.82020407  0.40136830  0.40288478  1
  H+  H220  1  0.63760464  0.35219645  0.32085090  1
  H+  H221  1  0.36504043  0.13762316  0.00808247  1
  H+  H222  1  0.64024635  0.11294919  0.64639311  1
  H+  H223  1  0.86644692  0.13923935  0.34619149  1
  H+  H224  1  0.27273510  0.88516261  1.00922122  1
  H+  H225  1  0.65427560  0.36701555  0.63968271  1
  H+  H226  1  0.61728550  0.14026519  0.01252041  1
  H+  H227  1  0.77649213  0.38980550  1.00255183  1
  H+  H228  1  0.26592249  0.40324127  0.02379130  1
  H+  H229  1  0.20400297  0.59632453  0.83337062  1
  H+  H230  1  0.16812987  0.09005859  0.23553737  1
  H+  H231  1  0.92826753  0.07999723  0.23384477  1
  H+  H232  1  0.86855446  0.50748619  0.32644466  1
  H+  H233  1  0.27860414  0.39165180  0.16888254  1
  H+  H234  1  0.12754650  0.40454245  0.67309062  1
  H+  H235  1  0.85735323  0.37554711  0.34449146  1
  H+  H236  1  0.66562853  0.39692916  0.48019895  1
  H+  H237  1  0.52886424  0.63978197  0.17614090  1
  H+  H238  1  0.35623075  0.48036397  0.48888198  1
  H+  H239  1  0.13121020  0.88912766  0.67441069  1
  H+  H240  1  0.76995259  0.38533705  0.82940524  1
  H+  H241  1  0.87075135  -0.00713074  0.66702840  1
  H+  H242  1  0.50509328  0.90482171  0.83114784  1
  H+  H243  1  0.74056370  0.87099002  0.64400746  1
  H+  H244  1  0.69668806  0.55132102  0.88390542  1
  H+  H245  1  0.86407841  -0.01611198  1.01236599  1
  H+  H246  1  0.61771559  0.67586643  0.31277759  1
  H+  H247  1  0.11903998  0.98387876  0.16788550  1
  H+  H248  1  0.11902242  -0.01295696  0.83303302  1
  H+  H249  1  0.66591260  0.24219504  0.47144221  1
  H+  H250  1  1.01059336  0.63789554  0.16540951  1
  H+  H251  1  0.35901857  0.63217253  0.48548774  1
  H+  H252  1  0.13156983  0.10702255  0.00554281  1
  H+  H253  1  0.09554466  0.66855320  0.38766170  1
  H+  H254  1  0.64875325  0.10580836  0.47487577  1
  H+  H255  1  0.63249173  0.60353238  0.49326411  1
  H+  H256  1  0.23553581  0.85554377  0.65318057  1
  H+  H257  1  0.41518060  0.32812905  0.23444738  1
  H+  H258  1  0.32392936  0.91765843  0.39807644  1
  H+  H259  1  0.13971538  0.27176062  0.01500458  1
  H+  H260  1  0.88302991  0.63666498  0.81973598  1
  H+  H261  1  0.64070921  0.52402390  0.18422822  1
  H+  H262  1  0.13514905  0.11688567  0.84154026  1
  H+  H263  1  0.73323958  0.86751763  0.17290107  1
  H+  H264  1  0.09757921  0.22673928  0.36922341  1
  H+  H265  1  0.86247408  0.22593860  0.34367726  1
  H+  H266  1  0.62108719  0.45393565  0.81133527  1
  H+  H267  1  0.87977730  0.35656491  0.84064070  1
  H+  H268  1  0.86127268  0.47348543  0.82939036  1
  H+  H269  1  0.64185554  0.52807864  1.03326600  1
  H+  H270  1  0.47504602  0.10943703  0.17286685  1
  H+  H271  1  0.38100896  0.77295247  0.48012724  1
  H+  H272  1  0.60967559  0.21485144  0.32631391  1
  H+  H273  1  0.36019206  -0.02705228  0.16112808  1
  H+  H274  1  0.92266077  0.58482075  0.89943200  1
  H+  H275  1  0.12960612  0.35371739  0.00799309  1
  H+  H276  1  0.64168039  0.86165156  0.50185115  1
  H+  H277  1  0.73207812  0.11309304  0.16828000  1
  H+  H278  1  0.10236621  0.14092912  0.67087789  1
  H+  H279  1  0.61776747  0.46763884  0.34078865  1
  H+  H280  1  0.23026449  0.61185826  0.49787338  1
  H+  H281  1  0.85728623  0.71508401  0.50828452  1
  H+  H282  1  0.12425220  0.85950466  0.85063261  1
  H+  H283  1  0.13723243  0.64013266  0.33388864  1
  H+  H284  1  0.10433416  0.73150947  0.16373643  1
  H+  H285  1  0.32801221  0.16446694  0.39956000  1
  H+  H286  1  0.12666078  0.35959102  0.50648798  1
  H+  H287  1  0.35492837  0.88503205  0.47416154  1
  H+  H288  1  0.85456842  0.68586068  0.06266338  1
  H+  H289  1  0.39353396  0.28791462  0.84764572  1
  H+  H290  1  0.87594113  0.59960984  0.32776826  1
  H+  H291  1  0.45386899  0.56006198  0.95281524  1
  H+  H292  1  0.33665930  0.42170202  0.39818111  1
  H+  H293  1  0.42060996  0.12160885  0.58694392  1
  H+  H294  1  0.35952265  0.72215279  0.33634051  1
  H+  H295  1  0.59007696  0.66718859  0.41785839  1
  H+  H296  1  0.27805828  0.14241460  0.00769629  1
  H+  H297  1  0.58424363  0.16795656  0.07105372  1
  H+  H298  1  0.92038774  0.09525401  0.60231006  1
  H+  H299  1  0.40314005  0.33037351  0.57134354  1
  H+  H300  1  0.62681555  0.73227636  0.64840824  1
  H+  H301  1  0.92036559  0.32634150  0.27335384  1
  H+  H302  1  0.92288541  0.57100524  0.59925084  1
  H+  H303  1  0.17124454  0.34120537  0.22695300  1
  H+  H304  1  0.33154293  0.39743570  0.73324927  1
  H+  H305  1  0.40026167  0.28127177  0.99241631  1
  H+  H306  1  0.61677946  0.46915303  0.66361073  1
  H+  H307  1  0.07983774  0.15224332  0.10301396  1
  H+  H308  1  0.90119175  0.32725984  0.59439751  1
  H+  H309  1  0.84748150  0.94154692  0.41826274  1
  H+  H310  1  0.41991060  0.60658637  0.87584452  1
  H+  H311  1  1.01344476  0.37778013  0.82419275  1
  H+  H312  1  0.02520878  0.89885427  0.39158562  1
  H+  H313  1  0.84328583  0.16426626  0.10241378  1
  H+  H314  1  0.61499653  0.92519687  0.71130488  1
  H+  H315  1  0.88502702  0.27774213  0.50436406  1
  H+  H316  1  0.55394725  0.68695065  0.72968985  1
  H+  H317  1  0.33009174  0.43821360  0.08231887  1
  H+  H318  1  0.11157193  0.02501164  0.32609204  1
  H+  H319  1  0.58585199  0.67775122  0.08649659  1
  H+  H320  1  0.83245152  0.92951432  0.76222165  1
  H+  H321  1  0.16081996  0.82852313  0.94161258  1
  H+  H322  1  0.08343867  0.41242934  0.40356859  1
  H+  H323  1  0.87107322  0.50524525  0.50726061  1
  H+  H324  1  0.34295185  0.66249451  0.06775138  1
  H+  H325  1  0.66686364  0.57734347  0.59414727  1
  H+  H326  1  0.16735419  0.09282925  0.90432956  1
  H+  H327  1  0.83326110  0.41359192  0.73530756  1
  H+  H328  1  0.06821458  0.67282484  0.09324341  1
  H+  H329  1  0.82657822  0.41898351  0.09711079  1
  H+  H330  1  0.52413518  0.37786096  0.81845816  1
  H+  H331  1  0.34925984  0.18542529  0.78470275  1
  H+  H332  1  0.40954989  0.08009677  0.26525799  1
  H+  H333  1  0.16805585  0.58806205  0.59802201  1
  H+  H334  1  0.72800425  0.35772890  0.54763291  1
  H+  H335  1  0.98453008  0.12179379  0.51235806  1
  H+  H336  1  0.16130433  0.83586366  0.56008484  1
  H+  H337  1  0.07801876  0.15938509  0.44282631  1
  H+  H338  1  0.17914193  0.57232653  0.23174607  1
  H+  H339  1  0.42855630  0.59268293  0.24269722  1
  H+  H340  1  0.36815556  0.39008353  0.83159358  1
  H+  H341  1  0.17739050  0.83343843  0.26465644  1
  H+  H342  1  0.27023416  0.13336705  0.49272252  1
  H+  H343  1  0.58549197  0.40058904  0.71778877  1
  H+  H344  1  0.07743132  0.16958998  0.73302632  1
  H+  H345  1  0.58779128  0.41302811  0.07894510  1
  H+  H346  1  0.41838662  0.59052572  0.55378427  1
  H+  H347  1  0.68543893  0.83687905  0.58125079  1
  H+  H348  1  0.16644346  0.56953499  0.93467845  1
  H+  H349  1  0.67596469  0.83762888  0.95621088  1
  H+  H350  1  0.61458298  0.13541566  0.16125913  1
  H+  H351  1  0.32734804  0.66708902  0.72516722  1
  H+  H352  1  0.32615020  0.65713013  0.42525021  1
  H+  H353  1  0.54031048  0.15682144  0.64999449  1
  H+  H354  1  0.60840986  0.58465076  0.93349680  1
  H+  H355  1  0.72504163  0.34962968  0.32492409  1
  H+  H356  1  0.84354172  0.17541909  0.43489991  1
  H+  H357  1  0.83664247  0.64752308  0.72236220  1
  H+  H358  1  0.59121549  0.40161403  0.39466575  1
  H+  H359  1  0.38209166  0.14513596  0.69558573  1
  H+  H360  1  0.88570150  0.61630290  0.99220688  1
  H+  H361  1  0.87202651  0.13803118  0.00749890  1
  H+  H362  1  0.66821632  0.32682942  0.22849888  1
  H+  H363  1  0.67274627  0.58242447  0.24375335  1
  H+  H364  1  0.67741193  0.85046335  0.26633145  1
  H+  H365  1  0.34210853  0.89803387  0.72425182  1
  H+  H366  1  0.33547404  0.16807431  0.10037477  1
  H+  H367  1  0.77056411  0.90032213  0.02279305  1
  H+  H368  1  0.64788902  0.79645667  0.32834880  1
  H+  H369  1  0.92791140  0.08679720  0.93953035  1
  H+  H370  1  0.66727751  0.08578561  0.94257507  1
  H+  H371  1  0.73562277  0.61548846  0.34303339  1
  H+  H372  1  0.40683566  0.82287868  0.26677835  1
  H+  H373  1  0.57306099  0.53839212  0.93489313  1
  H+  H374  1  0.57663004  0.92257974  0.07089252  1
  H+  H375  1  0.49967246  0.63620055  0.33089914  1
  H+  H376  1  0.38443890  0.76830865  1.00108613  1
  H+  H377  1  0.91390987  0.33131126  0.93451465  1
  H+  H378  1  0.02894990  0.05421010  0.05565792  1
  H+  H379  1  0.91013771  0.82695889  0.58750054  1
  H+  H380  1  0.08364735  0.41277114  0.10189350  1
  H+  H381  1  0.66390836  0.33144873  0.93723275  1
  H+  H382  1  0.34633661  0.92459817  0.81673804  1
  H+  H383  1  0.91035305  0.57559206  0.23431118  1
  O2-  O384  1  0.08630174  0.16412920  0.15022262  1
  O2-  O385  1  0.08249217  0.16272813  0.48876327  1
  O2-  O386  1  0.06910560  0.13649166  0.80371601  1
  O2-  O387  1  0.08880174  0.41148740  0.14726328  1
  O2-  O388  1  0.07615454  0.41436345  0.48040869  1
  O2-  O389  1  0.07350761  0.41080608  0.80864269  1
  O2-  O390  1  0.07052168  0.67221577  0.14593774  1
  O2-  O391  1  0.04600444  0.67962058  0.46151833  1
  O2-  O392  1  0.08315194  0.66642023  0.81083931  1
  O2-  O393  1  0.09010214  0.92267121  0.15305718  1
  O2-  O394  1  0.05687373  0.90418389  0.47201994  1
  O2-  O395  1  0.09048588  0.92655583  0.81666997  1
  O2-  O396  1  0.33717185  0.16773305  0.14618460  1
  O2-  O397  1  0.32907528  0.16909602  0.47562219  1
  O2-  O398  1  0.33907323  0.18341670  0.82999505  1
  O2-  O399  1  0.34133854  0.42585998  0.15870397  1
  O2-  O400  1  0.32180370  0.41867512  0.47494194  1
  O2-  O401  1  0.32994121  0.40917709  0.81227039  1
  O2-  O402  1  0.34584699  0.66625168  0.14409440  1
  O2-  O403  1  0.32362204  0.65768035  0.47131493  1
  O2-  O404  1  0.30344559  0.65202869  0.80190670  1
  O2-  O405  1  0.32872374  0.91171157  0.14725107  1
  O2-  O406  1  0.32391891  0.91720979  0.46305564  1
  O2-  O407  1  0.30768490  0.94863850  0.81604141  1
  O2-  O408  1  0.58047129  0.16241439  0.14727429  1
  O2-  O409  1  0.62187270  0.18227768  0.46429427  1
  O2-  O410  1  0.57995804  0.16242646  0.80713248  1
  O2-  O411  1  0.58782396  0.41984009  0.15660545  1
  O2-  O412  1  0.61519042  0.40614639  0.47332124  1
  O2-  O413  1  0.58021670  0.39364612  0.79808768  1
  O2-  O414  1  0.59022876  0.67230336  0.16110388  1
  O2-  O415  1  0.58792709  0.65863904  0.46397861  1
  O2-  O416  1  0.54186152  0.70175411  0.77145183  1
  O2-  O417  1  0.58340220  0.91931618  0.14667850  1
  O2-  O418  1  0.58467035  0.90874619  0.50883478  1
  O2-  O419  1  0.65975314  0.94391971  0.78376441  1
  O2-  O420  1  0.83880708  0.16023347  0.14775440  1
  O2-  O421  1  0.84566398  0.17978512  0.48055520  1
  O2-  O422  1  0.83699423  0.16429137  0.82914761  1
  O2-  O423  1  0.81773318  0.41507739  0.14174662  1
  O2-  O424  1  0.81868767  0.40742358  0.48173054  1
  O2-  O425  1  0.82978172  0.41374788  0.81297256  1
  O2-  O426  1  0.84098155  0.67220827  0.15002203  1
  O2-  O427  1  0.83184268  0.65956233  0.48651982  1
  O2-  O428  1  0.84925324  0.65951582  0.79797998  1
  O2-  O429  1  0.84192913  0.91250801  0.15213593  1
  O2-  O430  1  0.85494662  0.93813982  0.46378772  1
  O2-  O431  1  0.84550725  0.92752870  0.80588836  1
  O2-  O432  1  0.17087073  0.08783543  0.19041930  1
  O2-  O433  1  0.16327753  0.07603592  0.51920322  1
  O2-  O434  1  0.16954294  0.09049382  0.85906974  1
  O2-  O435  1  0.17170600  0.33582974  0.18226537  1
  O2-  O436  1  0.15889907  0.33050740  0.51988499  1
  O2-  O437  1  0.14952426  0.31708701  0.83045300  1
  O2-  O438  1  0.17843495  0.56825137  0.18677104  1
  O2-  O439  1  0.16907130  0.58335561  0.51536448  1
  O2-  O440  1  0.14660664  0.57033327  0.85368608  1
  O2-  O441  1  0.16650902  0.83204818  0.18971820  1
  O2-  O442  1  0.15402107  0.83707566  0.51511982  1
  O2-  O443  1  0.15606075  0.83045108  0.86482722  1
  O2-  O444  1  0.41375584  0.07852211  0.18678031  1
  O2-  O445  1  0.45661812  0.16886764  0.55917089  1
  O2-  O446  1  0.42368585  0.10330155  0.85996967  1
  O2-  O447  1  0.41819950  0.33256815  0.18921755  1
  O2-  O448  1  0.39585291  0.33295278  0.52456700  1
  O2-  O449  1  0.43090707  0.35056139  0.85716577  1
  O2-  O450  1  0.42835030  0.59078908  0.19658572  1
  O2-  O451  1  0.41482956  0.58365083  0.50733896  1
  O2-  O452  1  0.40598758  0.58808545  0.83372449  1
  O2-  O453  1  0.41726775  0.83071747  0.18670085  1
  O2-  O454  1  0.40762831  0.83611599  0.48043245  1
  O2-  O455  1  0.33290251  0.78355818  0.87027033  1
  O2-  O456  1  0.67088055  0.08488501  0.18217557  1
  O2-  O457  1  0.67107768  0.06482217  0.47698142  1
  O2-  O458  1  0.63776863  0.06561298  0.85872998  1
  O2-  O459  1  0.66230482  0.32759922  0.18331270  1
  O2-  O460  1  0.72780828  0.35840285  0.50197158  1
  O2-  O461  1  0.66469966  0.32686495  0.85677370  1
  O2-  O462  1  0.67147280  0.58502394  0.19894347  1
  O2-  O463  1  0.66402558  0.57625161  0.51278847  1
  O2-  O464  1  0.69449741  0.54748814  0.83986968  1
  O2-  O465  1  0.67275111  0.84256170  0.18722276  1
  O2-  O466  1  0.67588885  0.83076967  0.50606934  1
  O2-  O467  1  0.72157113  0.82294625  0.88792603  1
  O2-  O468  1  0.92486766  0.07646513  0.18869320  1
  O2-  O469  1  0.92245357  0.09481890  0.52581899  1
  O2-  O470  1  0.92932055  0.09136229  0.86198135  1
  O2-  O471  1  0.93245591  0.32229265  0.20340373  1
  O2-  O472  1  0.91173116  0.33838334  0.52066510  1
  O2-  O473  1  0.91217403  0.32967761  0.85733154  1
  O2-  O474  1  0.91690826  0.58240981  0.18855719  1
  O2-  O475  1  0.90717628  0.56710651  0.52207757  1
  O2-  O476  1  0.92180587  0.58087612  0.85401548  1
  O2-  O477  1  0.92680928  0.83708781  0.19698609  1
  O2-  O478  1  0.90267769  0.82233637  0.54272467  1
  O2-  O479  1  0.92274789  0.83355567  0.79043803  1
  O2-  O480  1  0.15333781  0.08530143  0.31621941  1
  O2-  O481  1  0.14506754  0.08078956  0.64461865  1
  O2-  O482  1  0.17255253  0.09024441  0.98418998  1
  O2-  O483  1  0.18311402  0.34013412  0.30957045  1
  O2-  O484  1  0.16981876  0.33958718  0.64636838  1
  O2-  O485  1  0.16819288  0.32984226  0.99902423  1
  O2-  O486  1  0.17449014  0.57802448  0.31197379  1
  O2-  O487  1  0.17045939  0.59328506  0.64290388  1
  O2-  O488  1  0.16944472  0.56496433  0.97939921  1
  O2-  O489  1  0.18123810  0.83270950  0.31039417  1
  O2-  O490  1  0.17474848  0.83342170  0.64002178  1
  O2-  O491  1  0.16506145  0.82867681  0.98731732  1
  O2-  O492  1  0.40940532  0.07816301  0.31074603  1
  O2-  O493  1  0.35762030  0.05152530  0.65120318  1
  O2-  O494  1  0.42002664  0.08393912  0.98312459  1
  O2-  O495  1  0.41516496  0.33072433  0.31421602  1
  O2-  O496  1  0.41586658  0.32764180  0.63963677  1
  O2-  O497  1  0.43334822  0.34065969  0.97678190  1
  O2-  O498  1  0.43496804  0.59933710  0.31610672  1
  O2-  O499  1  0.42061650  0.59714997  0.62411740  1
  O2-  O500  1  0.43293897  0.58090277  0.98567776  1
  O2-  O501  1  0.40028774  0.81523293  0.31147033  1
  O2-  O502  1  0.42539667  0.83377411  0.64044925  1
  O2-  O503  1  0.40796586  0.82799915  0.98430294  1
  O2-  O504  1  0.67309049  0.08068397  0.30418168  1
  O2-  O505  1  0.67318343  0.08591317  0.63160835  1
  O2-  O506  1  0.67166536  0.08741638  0.98730990  1
  O2-  O507  1  0.66648901  0.32103554  0.30550610  1
  O2-  O508  1  0.68984524  0.34178221  0.62582794  1
  O2-  O509  1  0.66881048  0.33517380  0.98244370  1
  O2-  O510  1  0.67392221  0.58002193  0.33055636  1
  O2-  O511  1  0.66718096  0.57813169  0.63937903  1
  O2-  O512  1  0.67795257  0.59127699  1.03903266  1
  O2-  O513  1  0.68371812  0.85653742  0.31150077  1
  O2-  O514  1  0.68148612  0.83676094  0.62690254  1
  O2-  O515  1  0.66326807  0.84242326  0.99949288  1
  O2-  O516  1  0.94262215  0.11698318  0.31097360  1
  O2-  O517  1  0.91600977  0.09392328  0.64779753  1
  O2-  O518  1  0.92041840  0.08344381  0.98481594  1
  O2-  O519  1  0.91434953  0.32730096  0.31961753  1
  O2-  O520  1  0.89666284  0.31774238  0.63980768  1
  O2-  O521  1  0.91427477  0.33396926  0.98013282  1
  O2-  O522  1  0.89812420  0.56570026  0.30799149  1
  O2-  O523  1  0.92398088  0.57451389  0.64463858  1
  O2-  O524  1  0.91872230  0.58801006  0.97839711  1
  O2-  O525  1  0.93385155  0.85549730  0.32789139  1
  O2-  O526  1  0.92163375  0.82209447  0.66914629  1
  O2-  O527  1  0.83546175  0.80920398  0.95216638  1
  O2-  O528  1  0.05961445  0.11347561  0.04119252  1
  O2-  O529  1  0.07571632  0.16505148  0.36817052  1
  O2-  O530  1  0.07601421  0.17476675  0.68683887  1
  O2-  O531  1  0.07872467  0.40921148  0.02541520  1
  O2-  O532  1  0.08441317  0.41292725  0.35792375  1
  O2-  O533  1  0.10183260  0.43971367  0.68592544  1
  O2-  O534  1  0.06945829  0.67165469  0.03609815  1
  O2-  O535  1  0.11314779  0.67829528  0.34490139  1
  O2-  O536  1  0.08699272  0.67057643  0.68504216  1
  O2-  O537  1  0.08930497  0.91734333  0.03179073  1
  O2-  O538  1  0.02328652  0.91213733  0.34763533  1
  O2-  O539  1  0.10053520  0.91755395  0.69235225  1
  O2-  O540  1  0.33821195  0.17064483  0.02382917  1
  O2-  O541  1  0.32797214  0.16394214  0.35367284  1
  O2-  O542  1  0.39150598  0.19668853  0.71779331  1
  O2-  O543  1  0.32200926  0.45064463  0.03962222  1
  O2-  O544  1  0.34212998  0.42489758  0.35267533  1
  O2-  O545  1  0.33432231  0.39477864  0.68826168  1
  O2-  O546  1  0.34161817  0.66544944  0.02205670  1
  O2-  O547  1  0.33342619  0.66044279  0.35210330  1
  O2-  O548  1  0.33535162  0.67052555  0.68012374  1
  O2-  O549  1  0.33330633  0.91663490  0.02416230  1
  O2-  O550  1  0.32570613  0.91630582  0.34944098  1
  O2-  O551  1  0.33951338  0.90050125  0.67991772  1
  O2-  O552  1  0.58496389  0.16935185  0.02525376  1
  O2-  O553  1  0.58199569  0.15520731  0.34293276  1
  O2-  O554  1  0.59364012  0.17710983  0.67282592  1
  O2-  O555  1  0.58958380  0.41827035  0.03356121  1
  O2-  O556  1  0.58478125  0.40506238  0.35005122  1
  O2-  O557  1  0.58896202  0.40653413  0.67250058  1
  O2-  O558  1  0.58850392  0.68086611  0.04071019  1
  O2-  O559  1  0.59181739  0.68801819  0.34733348  1
  O2-  O560  1  0.58875742  0.67296423  0.66442612  1
  O2-  O561  1  0.57593256  0.92374791  0.02502056  1
  O2-  O562  1  0.59836161  0.95161158  0.35111329  1
  O2-  O563  1  0.59834590  0.91761761  0.66758775  1
  O2-  O564  1  0.84252070  0.16892043  0.02390381  1
  O2-  O565  1  0.83163939  0.16518059  0.35981419  1
  O2-  O566  1  0.82451073  0.16979359  0.67286452  1
  O2-  O567  1  0.83740315  0.42315800  0.01654337  1
  O2-  O568  1  0.82225553  0.40192981  0.35724686  1
  O2-  O569  1  0.83621341  0.41313353  0.68980562  1
  O2-  O570  1  0.84018672  0.67513229  0.01892994  1
  O2-  O571  1  0.84186778  0.67591195  0.36326439  1
  O2-  O572  1  0.83481299  0.65083765  0.67679488  1
  O2-  O573  1  0.83307501  0.92440881  0.03082000  1
  O2-  O574  1  0.84490302  0.93968839  0.34392031  1
  O2-  O575  1  0.83825720  0.93028513  0.68009892  1
