# generated using pymatgen
data_H2O
_symmetry_space_group_name_H-M   'P 1'
_cell_length_a   17.98715494
_cell_length_b   17.98770333
_cell_length_c   22.00672777
_cell_angle_alpha   90.04755397
_cell_angle_beta   89.96707861
_cell_angle_gamma   120.02074791
_symmetry_Int_Tables_number   1
_chemical_formula_structural   H2O
_chemical_formula_sum   'H384 O192'
_cell_volume   6165.00314056
_cell_formula_units_Z   192
loop_
 _symmetry_equiv_pos_site_id
 _symmetry_equiv_pos_as_xyz
  1  'x, y, z'
loop_
 _atom_type_symbol
 _atom_type_oxidation_number
  H+  1.0
  O2-  -2.0
loop_
 _atom_site_type_symbol
 _atom_site_label
 _atom_site_symmetry_multiplicity
 _atom_site_fract_x
 _atom_site_fract_y
 _atom_site_fract_z
 _atom_site_occupancy
  H+  H0  1  0.36805181  0.89987553  0.15332498  1
  H+  H1  1  0.57330633  0.34936679  0.33905254  1
  H+  H2  1  0.12028727  0.21981278  1.00128678  1
  H+  H3  1  0.78472499  0.38095297  0.67748872  1
  H+  H4  1  0.72859017  0.11451738  0.16911448  1
  H+  H5  1  0.98463196  0.85398009  0.50660941  1
  H+  H6  1  0.56901689  0.65094791  0.09237878  1
  H+  H7  1  0.10263893  0.46892769  0.49461643  1
  H+  H8  1  0.48960124  0.13101003  0.94706690  1
  H+  H9  1  0.49293084  0.14002838  0.49326000  1
  H+  H10  1  0.86622915  0.87420594  0.50666272  1
  H+  H11  1  0.77762756  0.90006351  0.99417970  1
  H+  H12  1  0.66906161  0.32682318  0.75142890  1
  H+  H13  1  0.39264157  0.49934953  0.98293829  1
  H+  H14  1  0.32679256  0.92326257  0.07035056  1
  H+  H15  1  0.76044617  0.37244217  0.15733326  1
  H+  H16  1  0.71448763  0.70631675  0.74605780  1
  H+  H17  1  1.00990659  0.84349514  0.32233376  1
  H+  H18  1  0.63959360  0.23873729  0.34753447  1
  H+  H19  1  0.60467577  0.75468110  0.82507542  1
  H+  H20  1  0.02867104  0.64185991  0.01117348  1
  H+  H21  1  0.34745968  0.16491843  0.06681903  1
  H+  H22  1  0.87110560  0.71536955  0.00424633  1
  H+  H23  1  0.47451759  0.88397219  -0.00718712  1
  H+  H24  1  0.49854400  0.63207747  0.34415489  1
  H+  H25  1  0.37497300  0.77583402  0.50446669  1
  H+  H26  1  0.37229538  0.35051646  0.83599038  1
  H+  H27  1  0.36119819  0.90085037  1.00460991  1
  H+  H28  1  0.51182952  0.62541403  0.15419104  1
  H+  H29  1  0.36547040  0.88943390  0.68199710  1
  H+  H30  1  0.79343309  0.88027428  0.83656685  1
  H+  H31  1  0.54972050  0.48651414  0.78957504  1
  H+  H32  1  0.91610328  0.02435174  0.68304177  1
  H+  H33  1  0.85380574  0.37960726  0.16112207  1
  H+  H34  1  0.89287495  0.76042504  0.66023816  1
  H+  H35  1  0.62493346  -0.00708762  0.82496981  1
  H+  H36  1  0.61607401  0.18018285  0.43716622  1
  H+  H37  1  0.87264069  0.97391354  0.14327343  1
  H+  H38  1  0.63810672  0.34233315  0.81624665  1
  H+  H39  1  0.13584416  0.10229332  0.50942675  1
  H+  H40  1  0.59585785  0.62866714  0.49967706  1
  H+  H41  1  0.40164866  0.46118627  0.68245470  1
  H+  H42  1  0.63027283  0.36167486  0.50280373  1
  H+  H43  1  0.85408694  0.37660523  0.33190848  1
  H+  H44  1  0.38855648  1.01337801  0.66584065  1
  H+  H45  1  0.91997291  0.57481169  0.26944448  1
  H+  H46  1  1.03885815  0.16477441  0.69715040  1
  H+  H47  1  0.38179126  0.79951954  0.99611048  1
  H+  H48  1  0.87024423  0.13825358  0.15573123  1
  H+  H49  1  0.11954477  0.13310160  0.16203309  1
  H+  H50  1  0.09797812  0.13632541  0.35677269  1
  H+  H51  1  0.59359364  0.20565394  0.01101589  1
  H+  H52  1  0.67546425  0.88800968  0.85239357  1
  H+  H53  1  0.64181793  0.15185107  0.34292828  1
  H+  H54  1  0.55935111  0.83030007  0.79039883  1
  H+  H55  1  0.59910813  0.36146139  0.89897029  1
  H+  H56  1  0.71052398  0.09405887  0.31497874  1
  H+  H57  1  0.11648495  0.37967904  0.49982902  1
  H+  H58  1  0.62944444  0.36073899  0.16234010  1
  H+  H59  1  0.89222513  0.35873077  0.83986119  1
  H+  H60  1  0.92499003  0.07796223  0.21389814  1
  H+  H61  1  0.88831868  0.86487774  0.83467886  1
  H+  H62  1  0.84953637  0.50444846  0.18078625  1
  H+  H63  1  0.14102034  0.01854321  0.18510012  1
  H+  H64  1  0.78578227  0.88398959  0.13678093  1
  H+  H65  1  0.11520441  0.96464226  0.82890921  1
  H+  H66  1  0.38161532  0.75954068  0.15989217  1
  H+  H67  1  0.34570425  0.21794685  0.46893036  1
  H+  H68  1  0.96126505  0.13086272  0.38134292  1
  H+  H69  1  0.86668347  0.91337276  0.35886323  1
  H+  H70  1  0.46860198  0.34348100  0.64677170  1
  H+  H71  1  0.59180097  0.60765571  0.85891846  1
  H+  H72  1  0.03580804  0.89348099  0.16168545  1
  H+  H73  1  0.58654827  0.92296035  0.71704540  1
  H+  H74  1  0.21093429  0.35319477  0.82310030  1
  H+  H75  1  -0.03674868  0.60572477  0.48690523  1
  H+  H76  1  0.58570941  0.11444078  -0.00166429  1
  H+  H77  1  0.32777799  0.40534400  0.42754822  1
  H+  H78  1  0.14254241  0.86813760  0.99877911  1
  H+  H79  1  0.88590123  0.26742950  0.31912514  1
  H+  H80  1  0.15324750  0.07879094  0.28356015  1
  H+  H81  1  0.40625213  0.05275031  0.59880890  1
  H+  H82  1  0.88292450  0.64358838  0.82574454  1
  H+  H83  1  0.88657212  0.26985889  -0.00552241  1
  H+  H84  1  0.30200438  0.91492460  0.50452256  1
  H+  H85  1  0.45959502  0.61222582  0.49570184  1
  H+  H86  1  0.99057550  0.86006105  0.83527513  1
  H+  H87  1  0.98695054  0.11161166  0.15771053  1
  H+  H88  1  0.66097134  0.07846998  0.22484211  1
  H+  H89  1  0.54569565  0.57242668  0.86033642  1
  H+  H90  1  0.67731566  0.82962120  0.20261142  1
  H+  H91  1  0.13667224  0.26912575  0.33427826  1
  H+  H92  1  0.88783306  0.26335387  0.50663607  1
  H+  H93  1  0.39214786  0.87214777  0.51007861  1
  H+  H94  1  0.88238813  0.71238082  0.33574452  1
  H+  H95  1  1.07825554  0.40839803  0.38647742  1
  H+  H96  1  0.02785378  0.88154263  0.67679687  1
  H+  H97  1  0.62789603  0.77327371  0.51242614  1
  H+  H98  1  0.89317191  0.76558539  0.50727769  1
  H+  H99  1  0.35815468  0.57464666  0.17874851  1
  H+  H100  1  0.02663081  0.13301667  0.51247877  1
  H+  H101  1  0.52312266  0.12571741  0.65515292  1
  H+  H102  1  0.62012673  0.97981385  0.15471478  1
  H+  H103  1  0.35379378  0.47349513  0.48155600  1
  H+  H104  1  0.62868698  0.10669923  0.61595581  1
  H+  H105  1  0.05511016  0.62563189  0.32002507  1
  H+  H106  1  0.89393752  1.01205476  0.52727498  1
  H+  H107  1  0.79048090  0.63161038  0.83094010  1
  H+  H108  1  0.35056044  0.78303685  0.30826945  1
  H+  H109  1  0.24091942  0.35513425  -0.00217777  1
  H+  H110  1  0.10997622  0.37286129  0.33112463  1
  H+  H111  1  0.89194969  0.61011486  -0.00344902  1
  H+  H112  1  0.18568240  0.80217412  0.53342054  1
  H+  H113  1  0.73459460  0.59570986  0.65550868  1
  H+  H114  1  0.90701380  0.52045465  0.32839388  1
  H+  H115  1  0.35973756  0.77200300  0.66539284  1
  H+  H116  1  0.37917123  0.15554877  -0.03345264  1
  H+  H117  1  0.65815196  0.61006934  0.66768064  1
  H+  H118  1  0.84894060  0.37615138  0.00481070  1
  H+  H119  1  0.18449809  0.85112330  0.23940232  1
  H+  H120  1  0.85572608  0.37684452  0.48881526  1
  H+  H121  1  0.12527247  0.73626542  0.16366984  1
  H+  H122  1  0.61282029  -0.02157066  1.00195447  1
  H+  H123  1  0.22385681  0.37152394  0.49908555  1
  H+  H124  1  0.34184344  0.63571926  0.47738818  1
  H+  H125  1  0.38144497  0.57914576  0.97355139  1
  H+  H126  1  0.35875808  0.52034463  0.32889783  1
  H+  H127  1  0.60899403  0.46541876  0.66113830  1
  H+  H128  1  0.17460139  0.35296967  0.56497809  1
  H+  H129  1  0.34814074  0.71814658  0.82939700  1
  H+  H130  1  0.37901810  0.49960491  0.17470579  1
  H+  H131  1  0.13596054  0.62320452  0.99387106  1
  H+  H132  1  0.98253848  0.12103668  0.97859515  1
  H+  H133  1  0.11270487  0.22503760  0.50892434  1
  H+  H134  1  0.51535557  0.37290246  0.49788422  1
  H+  H135  1  0.78469703  0.12638722  0.00780786  1
  H+  H136  1  0.68942000  0.43053287  0.29455048  1
  H+  H137  1  0.09214565  0.50044422  1.02127704  1
  H+  H138  1  0.63273998  0.76473294  0.14940892  1
  H+  H139  1  0.14077272  0.35921989  0.17379559  1
  H+  H140  1  0.22705452  0.35533097  0.32564125  1
  H+  H141  1  0.63846779  0.26857802  0.50242065  1
  H+  H142  1  0.65973700  0.57714705  0.56474000  1
  H+  H143  1  0.69766771  0.55739433  0.24785127  1
  H+  H144  1  0.10058024  0.62643546  0.48232003  1
  H+  H145  1  0.13927405  0.88873708  0.34277002  1
  H+  H146  1  0.72605240  0.61996260  0.16146196  1
  H+  H147  1  0.80631932  0.54078041  0.22748683  1
  H+  H148  1  0.60607018  0.39171436  0.01516553  1
  H+  H149  1  0.36401992  0.98806114  0.15388445  1
  H+  H150  1  0.49728253  0.37771967  -0.00199349  1
  H+  H151  1  0.56820144  0.15264586  0.09737827  1
  H+  H152  1  0.11552587  0.25972797  0.68462421  1
  H+  H153  1  0.63435310  0.35489626  0.66974899  1
  H+  H154  1  0.84745608  0.62378507  0.49055578  1
  H+  H155  1  0.99225030  0.61748868  0.83917855  1
  H+  H156  1  0.27951286  0.89652940  0.83549809  1
  H+  H157  1  0.38356930  0.11321900  0.15657853  1
  H+  H158  1  0.71142438  0.60612924  0.50260491  1
  H+  H159  1  0.13987506  0.85725315  0.83704252  1
  H+  H160  1  0.35699972  0.02866973  0.32227147  1
  H+  H161  1  0.89012188  1.03522157  -0.02349533  1
  H+  H162  1  0.43424163  0.15215420  0.54048567  1
  H+  H163  1  0.09961318  0.71272758  0.46616470  1
  H+  H164  1  0.89604177  0.27335215  0.17112191  1
  H+  H165  1  0.84096391  0.17041820  0.09902997  1
  H+  H166  1  0.52692148  0.62415133  -0.00413034  1
  H+  H167  1  0.87835200  0.14008068  0.00069646  1
  H+  H168  1  0.89689760  0.86592369  0.16654511  1
  H+  H169  1  0.15762168  0.87237437  0.51553549  1
  H+  H170  1  0.67740086  0.90874184  0.65454524  1
  H+  H171  1  0.37012283  0.67983484  0.00760490  1
  H+  H172  1  0.10804586  0.62052889  0.73343069  1
  H+  H173  1  0.27578810  0.13685136  0.11637378  1
  H+  H174  1  0.61885147  0.14067687  0.50302115  1
  H+  H175  1  0.50214724  0.39277082  0.81620934  1
  H+  H176  1  0.53844374  0.63699258  0.63485780  1
  H+  H177  1  0.86858715  0.72974650  0.15499168  1
  H+  H178  1  0.77521420  0.87527414  0.50780899  1
  H+  H179  1  0.01210221  0.47975868  0.06137801  1
  H+  H180  1  0.12085498  0.96556668  0.49505859  1
  H+  H181  1  0.23333776  0.87408539  0.17473358  1
  H+  H182  1  0.22818927  0.10151530  0.20648979  1
  H+  H183  1  0.62117905  0.01435273  0.52034025  1
  H+  H184  1  0.34689537  0.46353626  0.81368480  1
  H+  H185  1  0.55474586  0.92749394  0.40411390  1
  H+  H186  1  0.29604111  0.65934414  0.42547721  1
  H+  H187  1  0.12549581  0.48257379  0.17501771  1
  H+  H188  1  0.11535013  0.96589472  0.35073641  1
  H+  H189  1  0.50191836  0.86545182  0.81724976  1
  H+  H190  1  0.23364901  0.87336304  0.68044910  1
  H+  H191  1  0.89637978  0.76691745  0.83672708  1
  H+  H192  1  0.40053608  0.44680290  0.34116640  1
  H+  H193  1  0.12932578  0.72167150  0.82140941  1
  H+  H194  1  0.37943163  0.86116748  0.84005586  1
  H+  H195  1  0.22170270  0.61895802  -0.00303343  1
  H+  H196  1  0.55500015  0.68303264  0.62574146  1
  H+  H197  1  0.15475518  0.35830024  0.99747289  1
  H+  H198  1  0.96406241  0.36771444  1.00048871  1
  H+  H199  1  0.22297745  0.10327316  0.49707120  1
  H+  H200  1  0.93041758  0.58754656  0.89808462  1
  H+  H201  1  0.63356929  0.61204088  0.16898385  1
  H+  H202  1  0.47746148  0.36021539  0.15631310  1
  H+  H203  1  0.14404609  1.01935588  0.66136332  1
  H+  H204  1  0.37862501  0.35439135  0.49891417  1
  H+  H205  1  -0.01494039  0.36674646  0.17643504  1
  H+  H206  1  0.21104421  0.60485207  0.50035997  1
  H+  H207  1  0.88846967  0.13991370  0.67990991  1
  H+  H208  1  0.19721898  0.66493637  0.32046736  1
  H+  H209  1  0.23829113  0.38080162  0.65563224  1
  H+  H210  1  0.63755872  0.26587493  0.66655730  1
  H+  H211  1  0.37985523  0.24041918  -0.01193550  1
  H+  H212  1  0.12692967  0.97934935  0.00933170  1
  H+  H213  1  0.25757432  0.88330626  0.00649220  1
  H+  H214  1  0.10889647  0.47039691  0.83018392  1
  H+  H215  1  0.11978658  0.88656988  0.68240540  1
  H+  H216  1  0.80128361  0.89772333  0.67778827  1
  H+  H217  1  0.24423860  0.62382031  0.17093548  1
  H+  H218  1  0.61386554  0.97903275  0.65535484  1
  H+  H219  1  0.37834762  0.38069750  0.00541611  1
  H+  H220  1  0.36534723  0.36532708  0.66242540  1
  H+  H221  1  0.22133947  0.59779564  0.84362925  1
  H+  H222  1  0.63262684  0.51629154  0.99833273  1
  H+  H223  1  0.61465837  0.01461719  0.32280506  1
  H+  H224  1  0.27794762  0.37747418  0.15685412  1
  H+  H225  1  0.87341000  1.04122665  0.38177923  1
  H+  H226  1  0.32583814  0.22429074  0.32043154  1
  H+  H227  1  0.56909446  0.66166493  0.44098271  1
  H+  H228  1  0.14090872  0.77656656  -0.00160426  1
  H+  H229  1  0.37057836  0.60091628  0.82884821  1
  H+  H230  1  0.62647285  0.78269379  0.36156909  1
  H+  H231  1  0.11907624  0.22135538  0.15682898  1
  H+  H232  1  0.87879982  0.51572732  0.49749789  1
  H+  H233  1  0.09662310  0.90240935  0.43786265  1
  H+  H234  1  0.38557850  0.26885757  0.83395871  1
  H+  H235  1  0.30722311  0.63187240  0.66836989  1
  H+  H236  1  0.37388229  0.13964401  0.82306459  1
  H+  H237  1  0.71409929  0.34743813  1.01085192  1
  H+  H238  1  0.71417648  0.87184006  0.36732820  1
  H+  H239  1  0.48474523  0.88070855  0.17127351  1
  H+  H240  1  0.35375292  0.13553482  0.46157622  1
  H+  H241  1  0.47059704  0.11229102  0.16839955  1
  H+  H242  1  0.12133598  0.62978711  0.83165267  1
  H+  H243  1  0.37974068  0.25224052  0.65248172  1
  H+  H244  1  0.31873914  0.61604865  0.32994077  1
  H+  H245  1  0.70320416  0.14363400  0.95768388  1
  H+  H246  1  0.60559429  0.89104482  0.49655483  1
  H+  H247  1  0.61052071  0.11453847  0.81036662  1
  H+  H248  1  0.23531543  0.11530458  0.98360785  1
  H+  H249  1  0.72882390  0.36514504  0.49790325  1
  H+  H250  1  0.08492001  0.60956906  0.66400388  1
  H+  H251  1  0.22922572  0.64576042  0.68934217  1
  H+  H252  1  0.87990460  0.48410386  0.82127878  1
  H+  H253  1  0.22522994  0.09472618  0.83530901  1
  H+  H254  1  0.61608907  0.88780355  0.14843992  1
  H+  H255  1  0.51191157  0.67410877  0.80924754  1
  H+  H256  1  0.58780099  0.88915902  0.35600419  1
  H+  H257  1  0.60355791  0.46509526  0.49764013  1
  H+  H258  1  0.99088837  0.85206607  0.99736217  1
  H+  H259  1  0.76232788  0.58339840  0.30566094  1
  H+  H260  1  0.36354980  0.12636219  0.66813714  1
  H+  H261  1  0.58883349  0.63719552  0.33958213  1
  H+  H262  1  0.60860498  0.13294291  0.15534723  1
  H+  H263  1  0.39058766  -0.00120364  0.49215224  1
  H+  H264  1  0.61804406  0.62977365  0.00298212  1
  H+  H265  1  0.89200981  0.52194674  0.99396531  1
  H+  H266  1  0.77265034  0.11855661  0.50833478  1
  H+  H267  1  0.44265507  0.86475731  0.32614686  1
  H+  H268  1  0.56167115  0.31603702  0.89869949  1
  H+  H269  1  0.38990572  0.27192168  0.14510992  1
  H+  H270  1  0.62525237  0.26867569  0.16685964  1
  H+  H271  1  0.90415565  0.27234379  0.65328608  1
  H+  H272  1  0.43269967  0.34584258  0.93471614  1
  H+  H273  1  0.85206147  0.14773240  0.36097914  1
  H+  H274  1  0.64250918  0.31911650  0.96101268  1
  H+  H275  1  0.30804742  0.88161050  0.32415000  1
  H+  H276  1  0.32913035  0.51990901  0.63747290  1
  H+  H277  1  0.63259869  0.76758488  0.99666916  1
  H+  H278  1  0.82683347  0.66137325  0.43266088  1
  H+  H279  1  0.67163672  0.84512700  0.56539181  1
  H+  H280  1  0.65583699  0.51283199  0.84289727  1
  H+  H281  1  0.49589066  0.12071992  0.83982774  1
  H+  H282  1  0.27283213  0.12477028  0.66853762  1
  H+  H283  1  0.34733158  0.34585391  0.33631944  1
  H+  H284  1  0.51373353  0.88474402  0.50370278  1
  H+  H285  1  0.01667218  0.37765483  0.82791925  1
  H+  H286  1  0.14258760  0.10877072  0.98881179  1
  H+  H287  1  1.01177455  0.37156123  0.49710299  1
  H+  H288  1  0.85242837  0.63325172  0.16172080  1
  H+  H289  1  0.16728941  0.32363491  0.23095493  1
  H+  H290  1  0.62346004  0.69797497  0.74229825  1
  H+  H291  1  0.84441740  0.17184801  0.72639855  1
  H+  H292  1  0.78985942  0.39655109  0.80953234  1
  H+  H293  1  0.40644731  0.08695322  0.26819690  1
  H+  H294  1  0.91777112  0.32737032  0.56354389  1
  H+  H295  1  0.84002887  0.65918890  0.73255654  1
  H+  H296  1  0.12604579  0.89473565  0.16834698  1
  H+  H297  1  0.71475108  0.08110561  0.83757338  1
  H+  H298  1  0.09330010  0.67551755  0.06978193  1
  H+  H299  1  0.10034682  0.92352910  0.07124933  1
  H+  H300  1  0.95687108  0.59023314  0.58187332  1
  H+  H301  1  0.97884092  0.19296664  0.27613683  1
  H+  H302  1  0.40025194  0.83040041  0.60683427  1
  H+  H303  1  0.85443869  0.41259953  0.73031713  1
  H+  H304  1  0.14605712  0.57065886  0.55786631  1
  H+  H305  1  0.54662879  0.37287562  0.40116929  1
  H+  H306  1  0.15763556  0.39942136  0.64760457  1
  H+  H307  1  0.09660607  0.23492068  0.78276133  1
  H+  H308  1  0.18321079  0.85287825  0.61919993  1
  H+  H309  1  0.12880049  0.64999924  0.16339544  1
  H+  H310  1  0.68225638  0.83911965  0.90975765  1
  H+  H311  1  0.08213068  0.90677473  0.76769458  1
  H+  H312  1  0.90112229  0.51253904  0.66963388  1
  H+  H313  1  0.08372974  0.17347283  0.41809804  1
  H+  H314  1  0.17046837  0.83178834  0.89759875  1
  H+  H315  1  0.08328197  0.15517813  0.05671883  1
  H+  H316  1  0.39786534  0.57133109  0.26803722  1
  H+  H317  1  0.31078192  0.66137233  0.76906781  1
  H+  H318  1  0.57953570  0.41945733  0.09132458  1
  H+  H319  1  0.17554831  0.07288778  0.59954476  1
  H+  H320  1  0.62531433  0.87278654  0.26022761  1
  H+  H321  1  0.09825210  0.64957957  0.38409213  1
  H+  H322  1  0.62114339  0.20869837  0.80083932  1
  H+  H323  1  0.42494138  0.30023585  0.33188684  1
  H+  H324  1  0.58757273  0.14411333  0.70900575  1
  H+  H325  1  0.41046722  0.83321761  0.89789500  1
  H+  H326  1  0.94061889  0.07858536  0.62204702  1
  H+  H327  1  0.61207459  0.47365390  0.15438076  1
  H+  H328  1  0.83579919  0.65867747  0.06417441  1
  H+  H329  1  0.85146360  0.92843036  0.04193819  1
  H+  H330  1  0.20554790  0.61233616  0.23566094  1
  H+  H331  1  0.92073316  0.33138036  0.90110111  1
  H+  H332  1  0.82593788  0.40471326  0.42776837  1
  H+  H333  1  0.64784216  0.06479770  0.91642221  1
  H+  H334  1  0.37138258  0.98374121  0.84330194  1
  H+  H335  1  0.99010701  0.77123238  0.27513086  1
  H+  H336  1  0.92376726  0.32934654  0.25434527  1
  H+  H337  1  0.72677646  0.60453762  0.99699900  1
  H+  H338  1  0.33941650  0.16101496  0.76225758  1
  H+  H339  1  0.16863814  0.06666913  0.89528956  1
  H+  H340  1  0.87886534  0.87676927  0.67962414  1
  H+  H341  1  0.16149567  0.56905604  0.90386511  1
  H+  H342  1  0.73567175  0.31530061  0.90189062  1
  H+  H343  1  0.76083688  0.95835950  0.61500186  1
  H+  H344  1  0.77185628  0.38969016  0.33019555  1
  H+  H345  1  0.87405691  0.62826072  0.67699375  1
  H+  H346  1  0.36882987  0.37679706  0.15319896  1
  H+  H347  1  0.89771054  0.11051667  0.88936876  1
  H+  H348  1  0.72172677  0.26843148  0.90234573  1
  H+  H349  1  0.38363700  0.58200944  0.54395543  1
  H+  H350  1  0.88151433  0.62679833  0.34728498  1
  H+  H351  1  0.92908871  0.83177655  0.22479560  1
  H+  H352  1  0.41182344  0.56788833  0.87910367  1
  H+  H353  1  0.40867230  0.69030454  0.14502833  1
  H+  H354  1  0.68848811  0.56461492  0.90578286  1
  H+  H355  1  0.03800770  0.40491833  0.64189358  1
  H+  H356  1  0.08330502  0.43217815  0.11441257  1
  H+  H357  1  0.56607188  0.41000198  0.71976305  1
  H+  H358  1  0.84312649  0.12713012  0.45891324  1
  H+  H359  1  0.25997000  0.12288682  0.38106498  1
  H+  H360  1  0.66410244  0.34723666  0.25678207  1
  H+  H361  1  0.32045200  0.39615399  0.75922209  1
  H+  H362  1  0.34623652  0.41441151  0.06353577  1
  H+  H363  1  0.85887510  0.21105873  0.84876728  1
  H+  H364  1  0.41634056  0.85344214  0.22833139  1
  H+  H365  1  0.40027220  0.31230403  0.55520116  1
  H+  H366  1  0.96976833  0.14746852  0.27870183  1
  H+  H367  1  0.83693517  0.92140342  0.42576824  1
  H+  H368  1  0.89154416  0.09943958  0.53320576  1
  H+  H369  1  0.62804646  0.85554000  0.99671625  1
  H+  H370  1  0.58414565  0.83027766  0.26039755  1
  H+  H371  1  0.41606141  0.60550432  0.64296584  1
  H+  H372  1  0.89511728  0.35714286  0.65342824  1
  H+  H373  1  0.33771524  0.69698804  0.06930318  1
  H+  H374  1  0.84887715  0.90415579  0.77238684  1
  H+  H375  1  0.82566505  0.40926543  0.06594005  1
  H+  H376  1  0.11320775  0.37467182  0.82249180  1
  H+  H377  1  0.79487017  0.19074061  0.38038298  1
  H+  H378  1  0.93302083  0.82444186  0.93820973  1
  H+  H379  1  0.10657632  0.49494093  0.66894302  1
  H+  H380  1  0.92409241  0.82333173  0.60242434  1
  H+  H381  1  0.34795262  0.92950036  0.74407827  1
  H+  H382  1  0.58049341  0.92276400  0.06296028  1
  H+  H383  1  0.98995327  0.35816259  0.32112192  1
  O2-  O384  1  0.08973838  0.16046129  0.14214231  1
  O2-  O385  1  0.08511333  0.16554975  0.49349693  1
  O2-  O386  1  0.09874483  0.24250652  0.82955468  1
  O2-  O387  1  0.09044938  0.42312603  0.15818075  1
  O2-  O388  1  0.07591306  0.40583906  0.48217816  1
  O2-  O389  1  0.07757229  0.41084287  0.81070289  1
  O2-  O390  1  0.10040016  0.67875473  0.14427041  1
  O2-  O391  1  0.06893995  0.65070939  0.46029181  1
  O2-  O392  1  0.09612000  0.66016588  0.80927890  1
  O2-  O393  1  0.09842236  0.92764936  0.15144243  1
  O2-  O394  1  0.09471512  0.90335777  0.48371750  1
  O2-  O395  1  0.08144762  0.90209623  0.81384265  1
  O2-  O396  1  0.33757858  0.16116726  0.11239916  1
  O2-  O397  1  0.31441111  0.15782464  0.45350826  1
  O2-  O398  1  0.34045841  0.16552953  0.80770893  1
  O2-  O399  1  0.33844484  0.41188468  0.14292274  1
  O2-  O400  1  0.32320384  0.41043293  0.47267952  1
  O2-  O401  1  0.31477742  0.40062511  0.80374773  1
  O2-  O402  1  0.35913277  0.69862739  0.14201254  1
  O2-  O403  1  0.30543062  0.66249479  0.47028134  1
  O2-  O404  1  0.31839299  0.65764259  0.81401767  1
  O2-  O405  1  0.33420605  0.92616804  0.13766160  1
  O2-  O406  1  0.36033101  0.93622340  0.48761735  1
  O2-  O407  1  0.34204080  0.92685056  0.82356506  1
  O2-  O408  1  0.57535917  0.16079820  0.14206414  1
  O2-  O409  1  0.59909481  0.17705380  0.48170383  1
  O2-  O410  1  0.58173833  0.14586554  0.79478355  1
  O2-  O411  1  0.58297801  0.41395468  0.13870156  1
  O2-  O412  1  0.57785272  0.40284091  0.48641186  1
  O2-  O413  1  0.55705266  0.43663936  0.79441794  1
  O2-  O414  1  0.57093631  0.65809482  0.13796611  1
  O2-  O415  1  0.56669350  0.66088573  0.48613316  1
  O2-  O416  1  0.56152442  0.72646787  0.79225464  1
  O2-  O417  1  0.58489588  0.91926874  0.13908074  1
  O2-  O418  1  0.57436139  0.92266549  0.48856200  1
  O2-  O419  1  0.55957017  0.88470182  0.79833394  1
  O2-  O420  1  0.84114144  0.17132688  0.14459880  1
  O2-  O421  1  0.83484093  0.14872967  0.49807443  1
  O2-  O422  1  0.82157312  0.14824824  0.85650185  1
  O2-  O423  1  0.82259584  0.40692983  0.14408816  1
  O2-  O424  1  0.82433354  0.40565750  0.47352806  1
  O2-  O425  1  0.85316441  0.42365914  0.80563458  1
  O2-  O426  1  0.83213303  0.66916376  0.14083663  1
  O2-  O427  1  0.82106357  0.65875861  0.47789226  1
  O2-  O428  1  0.84880629  0.67064637  0.81167429  1
  O2-  O429  1  0.84830743  0.91375220  0.12867823  1
  O2-  O430  1  0.83765755  0.90866550  0.49688562  1
  O2-  O431  1  0.85198462  0.90250790  0.81858433  1
  O2-  O432  1  0.16629125  0.07832500  0.20422175  1
  O2-  O433  1  0.16645942  0.07043696  0.51822996  1
  O2-  O434  1  0.16591278  0.05963658  0.85044251  1
  O2-  O435  1  0.16828747  0.32524098  0.18569550  1
  O2-  O436  1  0.16518055  0.34653004  0.51899665  1
  O2-  O437  1  0.15154472  0.33425986  0.83976314  1
  O2-  O438  1  0.18921061  0.59282484  0.19281457  1
  O2-  O439  1  0.14798301  0.56928344  0.51342194  1
  O2-  O440  1  0.16011944  0.56463818  0.85859602  1
  O2-  O441  1  0.17517677  0.84471365  0.19339801  1
  O2-  O442  1  0.20082098  0.86183962  0.53807435  1
  O2-  O443  1  0.17535063  0.83214247  0.85272410  1
  O2-  O444  1  0.40808048  0.08208900  0.17853227  1
  O2-  O445  1  0.43166631  0.11722399  0.50577801  1
  O2-  O446  1  0.43979692  0.09802197  0.86316660  1
  O2-  O447  1  0.41431933  0.32816027  0.16539954  1
  O2-  O448  1  0.40547718  0.31946911  0.50997785  1
  O2-  O449  1  0.41222558  0.33009452  0.84822792  1
  O2-  O450  1  0.40186351  0.56111548  0.19194606  1
  O2-  O451  1  0.39501058  0.58154230  0.49999550  1
  O2-  O452  1  0.40566456  0.57232429  0.83461639  1
  O2-  O453  1  0.42247342  0.85243599  0.18250724  1
  O2-  O454  1  0.41173029  0.83121350  0.52498731  1
  O2-  O455  1  0.40469583  0.82480951  0.85319361  1
  O2-  O456  1  0.66634325  0.08190641  0.17938361  1
  O2-  O457  1  0.65697553  0.07790998  0.53412871  1
  O2-  O458  1  0.65091873  0.05209884  0.84147852  1
  O2-  O459  1  0.65862854  0.32971980  0.18032618  1
  O2-  O460  1  0.66708836  0.33324881  0.51454507  1
  O2-  O461  1  0.67406412  0.32251050  0.79710081  1
  O2-  O462  1  0.66772490  0.58465180  0.17997291  1
  O2-  O463  1  0.65182355  0.57441179  0.51957239  1
  O2-  O464  1  0.70611148  0.55859051  0.86376157  1
  O2-  O465  1  0.67035405  0.82787116  0.15852759  1
  O2-  O466  1  0.66433340  0.83575377  0.52065649  1
  O2-  O467  1  0.69155614  0.84554348  0.86419011  1
  O2-  O468  1  0.92383320  0.08112558  0.16960189  1
  O2-  O469  1  0.92628895  0.07223780  0.54319131  1
  O2-  O470  1  0.87951741  0.11359912  0.84666961  1
  O2-  O471  1  0.92300770  0.33263950  0.18979327  1
  O2-  O472  1  0.91785784  0.32587653  0.51660827  1
  O2-  O473  1  0.92088345  0.32733591  0.85561072  1
  O2-  O474  1  0.86013766  0.55629412  0.20434355  1
  O2-  O475  1  0.90892052  0.57675721  0.51076671  1
  O2-  O476  1  0.93086259  0.58797932  0.85274581  1
  O2-  O477  1  0.92804838  0.83554388  0.17991675  1
  O2-  O478  1  0.92448643  0.82585449  0.52268613  1
  O2-  O479  1  0.92713338  0.82926818  0.85138905  1
  O2-  O480  1  0.15605021  0.08164570  0.32924313  1
  O2-  O481  1  0.18014701  0.07809424  0.64439592  1
  O2-  O482  1  0.17267844  0.07692457  0.97648844  1
  O2-  O483  1  0.16632470  0.32588429  0.31256781  1
  O2-  O484  1  0.18122123  0.36044503  0.63739735  1
  O2-  O485  1  0.17917452  0.32314982  0.98522022  1
  O2-  O486  1  0.25568527  0.67282864  0.30391358  1
  O2-  O487  1  0.12068533  0.60159707  0.69422491  1
  O2-  O488  1  0.16191969  0.58651789  0.98180646  1
  O2-  O489  1  0.19103174  0.85943750  0.31305342  1
  O2-  O490  1  0.17442367  0.84343051  0.66342426  1
  O2-  O491  1  0.17351247  0.83738696  0.98276853  1
  O2-  O492  1  0.40729384  0.08462019  0.31270757  1
  O2-  O493  1  0.41708116  0.07017755  0.64139902  1
  O2-  O494  1  0.46247457  0.15262894  0.91751682  1
  O2-  O495  1  0.36768247  0.28615007  0.31512182  1
  O2-  O496  1  0.40685271  0.31240628  0.63409297  1
  O2-  O497  1  0.43079352  0.34051035  0.97937568  1
  O2-  O498  1  0.39364416  0.57893574  0.31309195  1
  O2-  O499  1  0.35865881  0.58011468  0.62498257  1
  O2-  O500  1  0.41962495  0.55810076  0.96157787  1
  O2-  O501  1  0.39067505  0.84473362  0.30040106  1
  O2-  O502  1  0.39755411  0.83184282  0.65179390  1
  O2-  O503  1  0.41346559  0.85835716  0.97826490  1
  O2-  O504  1  0.65056467  0.07218041  0.30231151  1
  O2-  O505  1  0.65441583  0.07169020  0.60108420  1
  O2-  O506  1  0.65777138  0.08359297  0.96049405  1
  O2-  O507  1  0.67534550  0.36955861  0.29976777  1
  O2-  O508  1  0.67068118  0.32817872  0.67760919  1
  O2-  O509  1  0.65023288  0.31275943  1.00421096  1
  O2-  O510  1  0.72765798  0.53717574  0.27569245  1
  O2-  O511  1  0.67326583  0.57260055  0.64339106  1
  O2-  O512  1  0.66703328  0.57808591  0.98080442  1
  O2-  O513  1  0.65113821  0.84453443  0.36869271  1
  O2-  O514  1  0.72441022  0.90192591  0.63306985  1
  O2-  O515  1  0.66190821  0.82885794  0.98302574  1
  O2-  O516  1  0.89846746  0.10431815  0.38967108  1
  O2-  O517  1  0.94111755  0.08385994  0.66707762  1
  O2-  O518  1  0.92189727  0.09848515  0.96495420  1
  O2-  O519  1  0.92421265  0.32915143  0.30317738  1
  O2-  O520  1  0.92703540  0.33086099  0.63411208  1
  O2-  O521  1  0.90971986  0.32958054  0.97858086  1
  O2-  O522  1  0.93947684  0.58001158  0.31269002  1
  O2-  O523  1  0.93188039  0.57748260  0.66901142  1
  O2-  O524  1  0.92643258  0.58297495  0.98145402  1
  O2-  O525  1  0.96230646  0.79969043  0.29479154  1
  O2-  O526  1  0.92258308  0.82218878  0.64775128  1
  O2-  O527  1  0.93175911  0.81477376  0.98220469  1
  O2-  O528  1  0.08432225  0.15697543  0.01179358  1
  O2-  O529  1  0.07556984  0.17291236  0.37273897  1
  O2-  O530  1  0.09327015  0.21222171  0.71393791  1
  O2-  O531  1  0.04450284  0.45336803  0.04606315  1
  O2-  O532  1  0.07300981  0.39859825  0.34242860  1
  O2-  O533  1  0.10033745  0.44916555  0.64110030  1
  O2-  O534  1  0.09075562  0.67457585  0.02358715  1
  O2-  O535  1  0.11104337  0.64792024  0.34071680  1
  O2-  O536  1  -0.00645729  0.60224804  0.61901381  1
  O2-  O537  1  0.09944486  0.91925394  0.02603497  1
  O2-  O538  1  0.09448347  0.90550001  0.36193010  1
  O2-  O539  1  0.08612143  0.91602838  0.69483669  1
  O2-  O540  1  0.34821458  0.17498844  -0.00658020  1
  O2-  O541  1  0.24972541  0.11792390  0.33621953  1
  O2-  O542  1  0.33587341  0.15848485  0.68355980  1
  O2-  O543  1  0.34595561  0.41175185  0.01816200  1
  O2-  O544  1  0.34198798  0.40161415  0.35060401  1
  O2-  O545  1  0.34736741  0.40720136  0.67957584  1
  O2-  O546  1  0.32986042  0.69616721  0.02368366  1
  O2-  O547  1  0.27112678  0.62097052  0.34893995  1
  O2-  O548  1  0.29208568  0.66691527  0.69443723  1
  O2-  O549  1  0.32250235  0.92173309  0.02276014  1
  O2-  O550  1  0.27791499  0.91188921  0.33783018  1
  O2-  O551  1  0.34269573  0.92732212  0.69904103  1
  O2-  O552  1  0.55366799  0.14174783  0.01415177  1
  O2-  O553  1  0.65507549  0.20160831  0.36998370  1
  O2-  O554  1  0.58616337  0.15464884  0.66482445  1
  O2-  O555  1  0.57646119  0.42392191  0.02352533  1
  O2-  O556  1  0.52637472  0.35240181  0.35979868  1
  O2-  O557  1  0.57340495  0.40429263  0.67523778  1
  O2-  O558  1  0.58328298  0.65770484  0.01638474  1
  O2-  O559  1  0.55793880  0.66060785  0.36130363  1
  O2-  O560  1  0.66550278  0.68845828  0.71917505  1
  O2-  O561  1  0.57701866  0.91941022  0.01723903  1
  O2-  O562  1  0.55449224  0.92011013  0.35943679  1
  O2-  O563  1  0.60494554  0.92579957  0.67458436  1
  O2-  O564  1  0.84365468  0.16528584  0.02093320  1
  O2-  O565  1  0.82065797  0.17876994  0.34530349  1
  O2-  O566  1  0.85885152  0.17421101  0.68356098  1
  O2-  O567  1  0.82186049  0.40901574  0.02054072  1
  O2-  O568  1  0.82881922  0.40857811  0.35054136  1
  O2-  O569  1  0.84768124  0.40894137  0.68474099  1
  O2-  O570  1  0.83615060  0.65402958  0.01892461  1
  O2-  O571  1  0.84626904  0.65470360  0.35475347  1
  O2-  O572  1  0.83884341  0.65543453  0.68712930  1
  O2-  O573  1  0.84017825  0.93697683  -0.00056495  1
  O2-  O574  1  0.83338528  0.93383110  0.38089963  1
  O2-  O575  1  0.85524615  0.91095971  0.69969748  1
