# generated using pymatgen
data_H2O
_symmetry_space_group_name_H-M   'P 1'
_cell_length_a   17.99761957
_cell_length_b   17.99338742
_cell_length_c   22.00895900
_cell_angle_alpha   90.02616155
_cell_angle_beta   89.98547447
_cell_angle_gamma   119.99693798
_symmetry_Int_Tables_number   1
_chemical_formula_structural   H2O
_chemical_formula_sum   'H384 O192'
_cell_volume   6172.64762253
_cell_formula_units_Z   192
loop_
 _symmetry_equiv_pos_site_id
 _symmetry_equiv_pos_as_xyz
  1  'x, y, z'
loop_
 _atom_type_symbol
 _atom_type_oxidation_number
  H+  1.0
  O2-  -2.0
loop_
 _atom_site_type_symbol
 _atom_site_label
 _atom_site_symmetry_multiplicity
 _atom_site_fract_x
 _atom_site_fract_y
 _atom_site_fract_z
 _atom_site_occupancy
  H+  H0  1  0.61277485  0.23759573  0.50749602  1
  H+  H1  1  0.84581951  0.12697505  0.50910159  1
  H+  H2  1  0.92343734  0.35430417  1.02013004  1
  H+  H3  1  0.87299072  0.65083074  1.00511526  1
  H+  H4  1  0.39427151  0.35109745  0.51189128  1
  H+  H5  1  0.86815425  0.51055582  0.82449748  1
  H+  H6  1  0.11675245  0.15420353  0.32861777  1
  H+  H7  1  0.08831762  0.16620793  0.76949267  1
  H+  H8  1  0.26410679  0.88267154  0.00672293  1
  H+  H9  1  0.14849855  0.77948529  0.15151000  1
  H+  H10  1  0.11071449  0.38157111  0.66908903  1
  H+  H11  1  0.81963653  0.49752839  0.19983642  1
  H+  H12  1  0.46810141  0.35924697  -0.00376059  1
  H+  H13  1  0.89487598  0.77672854  0.50708790  1
  H+  H14  1  0.35049445  0.45458520  0.00884506  1
  H+  H15  1  0.99321393  0.12634747  0.99357068  1
  H+  H16  1  0.47278743  0.36604068  0.36346324  1
  H+  H17  1  0.67370839  0.60073741  0.22758364  1
  H+  H18  1  0.84291493  0.62673915  0.34766256  1
  H+  H19  1  0.64431351  0.26523808  0.33202997  1
  H+  H20  1  0.55183543  0.29235056  0.20999408  1
  H+  H21  1  0.26870751  0.36505002  0.16590835  1
  H+  H22  1  0.35230391  0.87574493  0.76186525  1
  H+  H23  1  0.17130217  0.53938635  0.17181128  1
  H+  H24  1  0.40570817  0.27771925  0.16810193  1
  H+  H25  1  0.75404799  0.62697629  0.34752743  1
  H+  H26  1  0.76607612  0.38795730  0.67538021  1
  H+  H27  1  0.22020527  0.10647912  0.84336404  1
  H+  H28  1  0.14567608  0.02821967  0.66455934  1
  H+  H29  1  0.09331326  0.48580099  0.82099017  1
  H+  H30  1  0.36466208  0.48464660  0.64947944  1
  H+  H31  1  0.20263421  0.82325941  0.30888993  1
  H+  H32  1  0.63070232  0.62219802  0.85092335  1
  H+  H33  1  0.38864880  0.25376376  0.49289426  1
  H+  H34  1  0.99185537  0.61837085  0.98778852  1
  H+  H35  1  0.49733856  0.56758932  0.38490349  1
  H+  H36  1  0.14984669  0.26898455  0.83794381  1
  H+  H37  1  0.10790947  0.47900425  0.66258199  1
  H+  H38  1  0.88392489  0.02598955  0.34002453  1
  H+  H39  1  0.47177086  0.61843371  0.85097819  1
  H+  H40  1  0.38128370  1.01502531  -0.00781418  1
  H+  H41  1  0.58856199  0.17070191  0.09447582  1
  H+  H42  1  0.25301314  0.62046037  0.00741803  1
  H+  H43  1  0.78203902  0.63429664  0.49974697  1
  H+  H44  1  0.36342109  0.47079190  0.84082929  1
  H+  H45  1  0.06529536  0.91442632  0.31559349  1
  H+  H46  1  0.87724796  -0.09986433  0.82503652  1
  H+  H47  1  0.89989522  0.11896945  0.99289749  1
  H+  H48  1  0.38647349  0.60579467  1.00416714  1
  H+  H49  1  0.88927330  0.78249764  0.84178669  1
  H+  H50  1  0.75719341  0.64448330  0.83339077  1
  H+  H51  1  1.05436001  0.39094249  1.01905661  1
  H+  H52  1  0.27999398  0.14088034  0.67687690  1
  H+  H53  1  0.29316002  0.13778323  0.15991456  1
  H+  H54  1  0.75575506  0.12612197  0.50227967  1
  H+  H55  1  0.60524628  0.52064310  0.29989179  1
  H+  H56  1  0.17300024  0.81060770  0.83240461  1
  H+  H57  1  0.61523525  0.88865320  0.16178582  1
  H+  H58  1  0.24557633  0.36352424  0.84642641  1
  H+  H59  1  0.61467720  0.38164206  0.47965244  1
  H+  H60  1  0.47365212  0.85563719  0.50573904  1
  H+  H61  1  0.76893437  0.13242742  0.83420610  1
  H+  H62  1  0.14576493  0.02420048  0.17800803  1
  H+  H63  1  0.86740737  0.13425284  0.83388519  1
  H+  H64  1  0.89650022  0.36448475  0.34132827  1
  H+  H65  1  0.89002707  0.61505797  0.50763999  1
  H+  H66  1  0.77526364  0.65225867  0.15556976  1
  H+  H67  1  0.28038493  0.39379918  0.66359652  1
  H+  H68  1  0.89734864  0.53686830  -0.02243718  1
  H+  H69  1  0.47130636  0.86813633  1.00016730  1
  H+  H70  1  0.89349844  0.78364603  0.99515459  1
  H+  H71  1  0.87051248  0.51377727  0.34087376  1
  H+  H72  1  0.76904243  0.41255417  0.82715855  1
  H+  H73  1  0.77311655  0.13659402  0.68177131  1
  H+  H74  1  0.29345901  0.90749141  0.36910356  1
  H+  H75  1  0.12673918  0.84048523  0.31503383  1
  H+  H76  1  0.63558082  0.28063056  0.66024384  1
  H+  H77  1  0.64718734  0.11444966  0.16125479  1
  H+  H78  1  0.63893367  0.34875933  0.34811998  1
  H+  H79  1  0.63387554  0.36918154  0.66342247  1
  H+  H80  1  0.87097636  0.29282842  0.86367373  1
  H+  H81  1  0.11565093  0.60948648  0.31556070  1
  H+  H82  1  0.57582881  0.89863773  0.32366651  1
  H+  H83  1  0.03211300  0.13582814  0.18180018  1
  H+  H84  1  0.16448531  0.37255349  0.51165320  1
  H+  H85  1  0.63583877  0.61064715  0.00179964  1
  H+  H86  1  0.37303094  0.13458213  0.33839836  1
  H+  H87  1  0.88438102  0.23296558  0.35799896  1
  H+  H88  1  0.09043378  0.42934407  0.45866188  1
  H+  H89  1  0.61441277  0.40023460  0.82345919  1
  H+  H90  1  0.61108617  0.60253126  0.32985469  1
  H+  H91  1  0.47965278  0.85853882  0.84453461  1
  H+  H92  1  0.14725761  0.27827956  0.51339863  1
  H+  H93  1  0.66203542  0.58686684  0.90635293  1
  H+  H94  1  0.84318617  0.88626095  0.34463131  1
  H+  H95  1  0.23205820  0.62356126  0.82056050  1
  H+  H96  1  0.62277031  0.26867464  0.98198848  1
  H+  H97  1  0.62941850  0.60356255  0.64028244  1
  H+  H98  1  0.38831583  0.36423953  0.66272482  1
  H+  H99  1  0.62793136  0.75431752  0.84040937  1
  H+  H100  1  0.48407885  0.37362884  0.16700910  1
  H+  H101  1  0.01915781  0.89065831  0.82617650  1
  H+  H102  1  0.96206755  0.11166306  0.51516678  1
  H+  H103  1  0.77851331  0.88360330  0.67445688  1
  H+  H104  1  0.34247045  0.11896810  0.83024303  1
  H+  H105  1  0.36188941  0.12971740  0.49813681  1
  H+  H106  1  0.47145184  0.35487842  0.84404399  1
  H+  H107  1  0.13681135  1.04930877  0.32987673  1
  H+  H108  1  0.75165903  0.88904631  0.82807035  1
  H+  H109  1  0.23035718  0.10704642  0.00101333  1
  H+  H110  1  0.49540817  0.63679996  0.19406719  1
  H+  H111  1  0.07729850  0.16927886  0.07732839  1
  H+  H112  1  0.38743290  0.26854095  0.67464253  1
  H+  H113  1  0.13169975  0.10723077  0.84411175  1
  H+  H114  1  0.87361342  0.21944268  1.00905583  1
  H+  H115  1  1.03474702  0.88642125  0.67184214  1
  H+  H116  1  0.02526954  0.13724032  0.67776081  1
  H+  H117  1  0.29460345  0.64904012  0.16861592  1
  H+  H118  1  0.11400349  -0.01271837  0.82747153  1
  H+  H119  1  0.12998654  0.66436327  0.80560748  1
  H+  H120  1  1.01322560  0.38388507  0.66877026  1
  H+  H121  1  0.91290506  0.64713088  0.84546623  1
  H+  H122  1  0.87014642  0.88985017  0.49965708  1
  H+  H123  1  0.16329395  0.84101844  -0.06314486  1
  H+  H124  1  0.07536941  0.71720860  0.66147964  1
  H+  H125  1  0.95883109  0.38048340  0.85753037  1
  H+  H126  1  0.07551113  0.34184536  0.43463023  1
  H+  H127  1  0.12487866  0.61136449  0.65524478  1
  H+  H128  1  0.63443816  0.03097873  0.67064961  1
  H+  H129  1  0.48560283  0.36785899  0.67247203  1
  H+  H130  1  0.15825226  0.33220592  0.61130718  1
  H+  H131  1  0.25762109  0.87929414  0.64243419  1
  H+  H132  1  0.87048602  0.73136532  0.16126365  1
  H+  H133  1  0.28139903  0.89488019  0.15513439  1
  H+  H134  1  0.73335593  0.86893871  0.51619919  1
  H+  H135  1  0.77575902  0.37742028  0.34551014  1
  H+  H136  1  0.39031137  0.01810939  0.82646849  1
  H+  H137  1  0.41114949  0.83769633  0.56527407  1
  H+  H138  1  0.61929941  0.40545611  0.15843412  1
  H+  H139  1  0.53454193  0.12675977  0.32934382  1
  H+  H140  1  0.62862063  0.90807309  0.81885230  1
  H+  H141  1  0.60547629  0.48387192  0.82858418  1
  H+  H142  1  0.60730338  0.47810711  0.66849659  1
  H+  H143  1  0.60612925  0.96874145  0.49240703  1
  H+  H144  1  0.89460476  0.03482663  0.83870847  1
  H+  H145  1  0.61129749  0.47840338  0.00331602  1
  H+  H146  1  0.72949172  0.61880251  0.99680441  1
  H+  H147  1  0.67481448  0.82309930  0.97363487  1
  H+  H148  1  0.16145977  0.62706840  0.16427121  1
  H+  H149  1  0.39012688  0.27601713  0.35290662  1
  H+  H150  1  0.63692860  1.02938450  -0.00569221  1
  H+  H151  1  0.22800267  0.10874560  0.50753091  1
  H+  H152  1  0.63236690  0.15241763  0.82764244  1
  H+  H153  1  0.76791438  0.64813166  0.66365751  1
  H+  H154  1  0.65009737  0.61383536  0.50396058  1
  H+  H155  1  0.61546429  0.97703942  0.15769542  1
  H+  H156  1  -0.01705607  0.86515760  0.49893390  1
  H+  H157  1  0.40496961  0.63126570  0.19137068  1
  H+  H158  1  0.81435094  0.92121429  0.03554860  1
  H+  H159  1  0.34065259  0.37324788  0.33975642  1
  H+  H160  1  0.90344163  0.87814817  -0.00180032  1
  H+  H161  1  0.64591570  0.78711761  0.18046638  1
  H+  H162  1  0.28674008  0.37160775  0.52332822  1
  H+  H163  1  0.87666603  0.50979205  0.65189449  1
  H+  H164  1  0.11286475  0.88214460  0.47832584  1
  H+  H165  1  0.11287604  0.63463927  0.48832677  1
  H+  H166  1  0.11675281  0.14099973  0.67488231  1
  H+  H167  1  0.41202086  0.07901217  0.57749606  1
  H+  H168  1  0.52043240  0.13292027  0.99915103  1
  H+  H169  1  0.14029993  0.10905969  0.50736060  1
  H+  H170  1  0.72424094  0.36710631  0.50987714  1
  H+  H171  1  0.48182259  0.87076687  0.17838053  1
  H+  H172  1  0.13787561  0.52994277  0.30956652  1
  H+  H173  1  0.62338150  0.10763118  0.51268613  1
  H+  H174  1  0.60400978  0.38614144  0.00137232  1
  H+  H175  1  0.62502733  0.80860537  0.34364319  1
  H+  H176  1  0.18320531  0.21995524  0.44654848  1
  H+  H177  1  0.16295328  0.07470087  0.94624097  1
  H+  H178  1  0.76849217  0.36993846  0.14634737  1
  H+  H179  1  0.64348554  0.03437267  0.83954255  1
  H+  H180  1  0.96727985  0.16398980  0.15623176  1
  H+  H181  1  0.88024501  0.01803010  0.51581656  1
  H+  H182  1  0.51395220  0.65145857  0.35098563  1
  H+  H183  1  0.12385123  0.25819522  0.98904654  1
  H+  H184  1  0.94919588  0.34246570  0.51908659  1
  H+  H185  1  0.88710140  0.02484037  0.66890136  1
  H+  H186  1  0.08477928  0.70185495  0.33358490  1
  H+  H187  1  0.35702764  0.64516009  0.66381698  1
  H+  H188  1  0.93862984  0.85632681  0.33857916  1
  H+  H189  1  0.10891153  0.27133788  0.19306953  1
  H+  H190  1  0.67694841  0.02900907  0.31134756  1
  H+  H191  1  0.39215728  0.87011969  0.17212551  1
  H+  H192  1  0.70963411  0.35933113  0.97550856  1
  H+  H193  1  0.11591548  -0.02772568  0.48295486  1
  H+  H194  1  1.01085041  0.87541059  0.17359165  1
  H+  H195  1  0.29648414  -0.03118946  0.85123066  1
  H+  H196  1  0.15961433  0.41447846  0.17005560  1
  H+  H197  1  0.33602225  0.15456124  0.43325295  1
  H+  H198  1  0.20018596  0.56872263  0.50360849  1
  H+  H199  1  -0.00415783  0.61430497  0.33784671  1
  H+  H200  1  0.37770862  0.85603395  0.99470356  1
  H+  H201  1  0.38968665  0.89244685  0.50058041  1
  H+  H202  1  0.09343679  0.18729700  0.42117266  1
  H+  H203  1  0.12375332  0.39990630  0.29775483  1
  H+  H204  1  0.35553761  0.41244185  0.57331586  1
  H+  H205  1  0.83088117  0.31499016  0.20705653  1
  H+  H206  1  0.17086681  0.59521944  0.59913697  1
  H+  H207  1  0.63921959  0.12114470  0.66437778  1
  H+  H208  1  1.03007007  0.14424720  0.82912881  1
  H+  H209  1  0.07033019  0.92669670  0.38937593  1
  H+  H210  1  0.07334062  0.90996669  0.10370738  1
  H+  H211  1  0.37916406  0.51483268  0.50028310  1
  H+  H212  1  0.26862641  0.64158761  0.67446339  1
  H+  H213  1  0.89947098  1.00290390  0.01487542  1
  H+  H214  1  0.89850202  0.87126325  0.18335727  1
  H+  H215  1  0.53819617  0.90604215  0.64498157  1
  H+  H216  1  0.39980572  0.11297074  0.16974543  1
  H+  H217  1  0.66932463  0.84936442  0.23823950  1
  H+  H218  1  0.96826481  0.60301331  0.65511526  1
  H+  H219  1  0.63183589  0.72822402  0.50283403  1
  H+  H220  1  0.37413075  0.72981877  0.01642413  1
  H+  H221  1  0.04514093  0.66800105  0.81826984  1
  H+  H222  1  0.66310753  0.34447195  0.56846222  1
  H+  H223  1  0.86017184  0.47360968  0.49850331  1
  H+  H224  1  0.40278427  0.02837287  0.32475243  1
  H+  H225  1  0.84301027  0.16782429  0.41606136  1
  H+  H226  1  0.42951564  0.08444337  0.26309375  1
  H+  H227  1  0.12878689  0.27566280  0.67246205  1
  H+  H228  1  0.36401315  0.22265673  1.00564262  1
  H+  H229  1  0.05744064  0.64830249  0.14509924  1
  H+  H230  1  0.59796745  0.89074249  1.01032808  1
  H+  H231  1  0.63068958  0.85151235  0.66762105  1
  H+  H232  1  0.33376104  0.16627812  0.73894341  1
  H+  H233  1  0.85504984  0.38501514  0.68117304  1
  H+  H234  1  0.98856985  0.61278194  0.20961433  1
  H+  H235  1  0.21435431  0.35307742  0.28940921  1
  H+  H236  1  0.11476150  0.97544423  0.02023359  1
  H+  H237  1  0.48329055  0.35105302  0.48388063  1
  H+  H238  1  0.48665226  0.10844694  0.16871898  1
  H+  H239  1  0.84593279  0.21573885  0.18160797  1
  H+  H240  1  -0.00390079  0.65777440  0.21289402  1
  H+  H241  1  0.54831891  0.15958021  0.82828013  1
  H+  H242  1  0.66778907  0.83446681  0.60640209  1
  H+  H243  1  0.38417232  0.09655072  0.67265865  1
  H+  H244  1  0.39651582  0.01270982  0.66564796  1
  H+  H245  1  0.65481256  0.29434958  0.82917913  1
  H+  H246  1  0.58845414  0.70262029  0.01644847  1
  H+  H247  1  0.60583296  0.71904631  0.65716529  1
  H+  H248  1  -0.02146877  0.60895651  0.50572666  1
  H+  H249  1  0.62133626  0.65365939  0.16572574  1
  H+  H250  1  0.12816863  0.76818939  0.49816890  1
  H+  H251  1  0.65837310  0.10632401  0.30746089  1
  H+  H252  1  0.36961140  0.59150226  0.47373746  1
  H+  H253  1  0.86267513  0.13516979  0.68245615  1
  H+  H254  1  0.79315497  0.89646703  0.17656490  1
  H+  H255  1  0.63792014  0.32117778  0.24424406  1
  H+  H256  1  0.47687029  0.11999484  0.52118258  1
  H+  H257  1  0.85115020  0.39420637  -0.06039721  1
  H+  H258  1  0.12641544  0.88938715  0.67659057  1
  H+  H259  1  1.02228184  0.88866268  1.01530338  1
  H+  H260  1  0.99272913  0.32556686  0.15981106  1
  H+  H261  1  0.60820154  0.22144400  0.15850149  1
  H+  H262  1  0.31095693  0.72423439  0.50032359  1
  H+  H263  1  0.59182595  0.17719345  0.73020039  1
  H+  H264  1  0.13348933  0.63880868  0.99457088  1
  H+  H265  1  0.64110406  0.86249236  0.51267259  1
  H+  H266  1  0.97707303  0.11774030  0.32978792  1
  H+  H267  1  0.36503087  0.72295035  0.82584209  1
  H+  H268  1  0.64376854  0.52162640  0.49423131  1
  H+  H269  1  0.62535662  0.46292477  0.38359402  1
  H+  H270  1  0.81949086  0.62815087  0.79280743  1
  H+  H271  1  0.38032982  0.60939474  0.84212576  1
  H+  H272  1  0.37436111  0.35152053  0.99555254  1
  H+  H273  1  0.35454799  0.68307214  0.33011121  1
  H+  H274  1  0.28424304  0.13764553  0.34077322  1
  H+  H275  1  0.36552663  0.13336062  0.00292567  1
  H+  H276  1  0.86083429  0.25525247  0.51983745  1
  H+  H277  1  0.11812848  0.13388293  1.02602142  1
  H+  H278  1  0.87204559  0.89101010  0.66904794  1
  H+  H279  1  0.83405484  0.59179763  0.19059099  1
  H+  H280  1  0.14089802  0.48179588  1.01265269  1
  H+  H281  1  0.12539665  0.85738980  -0.00074165  1
  H+  H282  1  -0.01404538  0.36221527  0.16805046  1
  H+  H283  1  0.64544829  0.54204655  0.16755266  1
  H+  H284  1  0.38717454  0.99222449  0.50428791  1
  H+  H285  1  0.52673540  0.13946099  0.67410705  1
  H+  H286  1  0.38090679  0.73884186  0.16673353  1
  H+  H287  1  0.35867555  0.21680061  0.83459673  1
  H+  H288  1  0.55537291  0.63451887  0.69800256  1
  H+  H289  1  0.83659222  0.15595579  0.06396741  1
  H+  H290  1  0.12384795  0.72451730  -0.00457497  1
  H+  H291  1  0.58486253  0.93467832  0.76739520  1
  H+  H292  1  0.16201491  0.82446034  0.21603464  1
  H+  H293  1  0.40895764  0.57522562  0.94213026  1
  H+  H294  1  0.59090486  0.90956484  0.43431125  1
  H+  H295  1  0.33033346  0.91535547  0.06301900  1
  H+  H296  1  0.58093476  0.42660733  0.73369614  1
  H+  H297  1  0.98747206  0.37009913  0.32489099  1
  H+  H298  1  0.65292469  0.07492342  0.57016097  1
  H+  H299  1  0.35072088  0.67340370  0.07858483  1
  H+  H300  1  0.08441910  0.92000947  0.76308847  1
  H+  H301  1  0.10218090  0.23278549  0.31485157  1
  H+  H302  1  0.21152801  0.57429949  0.94599274  1
  H+  H303  1  0.91519647  0.57504207  0.58396243  1
  H+  H304  1  0.88485539  0.27285629  0.67451230  1
  H+  H305  1  0.41383363  0.32279189  0.90527680  1
  H+  H306  1  0.36460112  0.38127758  0.84000345  1
  H+  H307  1  0.12325028  0.43113600  0.36469797  1
  H+  H308  1  0.45390798  0.66016570  0.27216454  1
  H+  H309  1  0.31937159  0.39143151  0.06514220  1
  H+  H310  1  0.87507114  0.28953924  0.26029919  1
  H+  H311  1  0.58565817  0.78653310  0.94062126  1
  H+  H312  1  0.25257492  0.83453166  0.87191738  1
  H+  H313  1  0.85014043  0.92769575  0.76235074  1
  H+  H314  1  0.66761744  0.56860317  0.59045435  1
  H+  H315  1  0.40024074  0.06500168  0.93038682  1
  H+  H316  1  0.84131548  0.67689259  0.06537280  1
  H+  H317  1  0.67908193  0.08034979  0.21930917  1
  H+  H318  1  0.93812888  0.60489466  0.89793948  1
  H+  H319  1  0.61301393  0.14031019  -0.00067371  1
  H+  H320  1  0.07615286  0.67669273  0.72584621  1
  H+  H321  1  0.36169358  0.78545191  0.65873720  1
  H+  H322  1  0.15685344  0.11605801  0.17005962  1
  H+  H323  1  0.66569736  0.34388553  0.89140843  1
  H+  H324  1  0.10968099  0.67189510  0.08265694  1
  H+  H325  1  0.87242890  0.56623001  0.28217508  1
  H+  H326  1  0.92486421  0.84274200  0.90132770  1
  H+  H327  1  0.83597466  0.66529859  0.43976884  1
  H+  H328  1  0.39194362  0.58743766  0.58263605  1
  H+  H329  1  0.16908789  0.59847128  0.24897565  1
  H+  H330  1  0.46216671  0.61737738  0.63429727  1
  H+  H331  1  0.05438481  0.40532774  0.77797104  1
  H+  H332  1  0.06992354  0.64954429  0.42948709  1
  H+  H333  1  0.57882939  0.92484352  0.07128637  1
  H+  H334  1  0.59334873  0.43240001  0.09585324  1
  H+  H335  1  0.49469169  0.86381826  0.70239912  1
  H+  H336  1  0.18134225  0.10247247  0.27014259  1
  H+  H337  1  0.16416469  0.60715141  0.87265005  1
  H+  H338  1  0.81275529  0.69514679  0.72448704  1
  H+  H339  1  0.88632309  0.12675685  0.34892696  1
  H+  H340  1  0.93550335  0.33555932  0.95122288  1
  H+  H341  1  0.18969078  0.79121319  0.65931098  1
  H+  H342  1  0.76684283  0.90609094  0.35232707  1
  H+  H343  1  0.56695505  0.18041024  0.45063389  1
  H+  H344  1  0.67434678  0.09095688  0.90182370  1
  H+  H345  1  0.17249376  0.08482462  0.60468728  1
  H+  H346  1  0.43025993  0.81675164  0.33047875  1
  H+  H347  1  0.34605141  0.16361371  0.09780157  1
  H+  H348  1  0.92009453  0.82969632  0.24123642  1
  H+  H349  1  0.13997323  0.44174055  0.10437370  1
  H+  H350  1  0.13459566  0.35241991  -0.01220496  1
  H+  H351  1  0.72932695  0.11485020  0.99322211  1
  H+  H352  1  0.91337029  0.08571192  0.61145242  1
  H+  H353  1  0.93378946  0.84652958  0.59835606  1
  H+  H354  1  0.83495195  0.40270120  0.00938150  1
  H+  H355  1  0.85705152  0.76162162  0.33377130  1
  H+  H356  1  0.36319214  0.88268061  0.34308797  1
  H+  H357  1  0.89415568  0.78544404  0.65609717  1
  H+  H358  1  0.11013247  0.87552573  0.16053502  1
  H+  H359  1  0.83514615  0.92118725  0.44354988  1
  H+  H360  1  0.83198532  0.16313982  0.77036116  1
  H+  H361  1  0.86673188  0.94378535  0.12704936  1
  H+  H362  1  0.58797780  0.66318467  0.44723437  1
  H+  H363  1  0.37307477  0.98148854  0.15632359  1
  H+  H364  1  0.16730508  0.83295917  0.55326052  1
  H+  H365  1  0.39825411  0.82703530  0.26572691  1
  H+  H366  1  0.58646710  0.69126464  0.78693606  1
  H+  H367  1  0.92477696  0.09385048  0.90000030  1
  H+  H368  1  0.41969286  0.82364770  0.90296111  1
  H+  H369  1  0.35933891  0.37162350  0.16047329  1
  H+  H370  1  0.57839889  0.67201151  0.10995183  1
  H+  H371  1  0.76655952  0.12458052  0.15494004  1
  H+  H372  1  0.37132746  0.93897936  0.43771740  1
  H+  H373  1  0.86847179  0.42278681  0.14331682  1
  H+  H374  1  0.90312024  0.32539587  0.61249168  1
  H+  H375  1  0.70262784  0.89107826  0.88621500  1
  H+  H376  1  0.16089398  0.31979553  0.90453979  1
  H+  H377  1  0.85105360  0.38005408  0.50384398  1
  H+  H378  1  0.83200469  0.44153460  0.76296611  1
  H+  H379  1  0.50868954  0.61026978  0.01688003  1
  H+  H380  1  0.83075167  0.40894903  0.40669218  1
  H+  H381  1  0.33740820  0.66895948  0.76328707  1
  H+  H382  1  0.32986880  0.45455477  0.33224439  1
  H+  H383  1  0.60021123  0.13023033  0.38016290  1
  O2-  O384  1  0.03504843  0.18179472  0.15655040  1
  O2-  O385  1  0.12411640  0.19616292  0.46081006  1
  O2-  O386  1  0.09014561  0.16680303  0.81511107  1
  O2-  O387  1  0.15809276  0.46096103  0.14703472  1
  O2-  O388  1  0.12069656  0.40053923  0.44370981  1
  O2-  O389  1  0.04893918  0.42428719  0.81838340  1
  O2-  O390  1  0.11577182  0.68005369  0.12849498  1
  O2-  O391  1  0.07253830  0.65375304  0.47472499  1
  O2-  O392  1  0.10011496  0.69752829  0.79573035  1
  O2-  O393  1  0.07614425  0.90711158  0.15147342  1
  O2-  O394  1  0.08483036  0.91540273  0.46279358  1
  O2-  O395  1  0.08063506  0.92426783  0.80965177  1
  O2-  O396  1  0.35185532  0.16444531  0.14330148  1
  O2-  O397  1  0.33414732  0.16042484  0.47911391  1
  O2-  O398  1  0.32203366  0.15805356  0.81607669  1
  O2-  O399  1  0.32176492  0.39152677  0.14212210  1
  O2-  O400  1  0.35018373  0.40172052  0.52857685  1
  O2-  O401  1  0.33222745  0.41018240  0.82679527  1
  O2-  O402  1  0.35440877  0.67776693  0.15278537  1
  O2-  O403  1  0.26411848  0.68324048  0.47358255  1
  O2-  O404  1  0.33216477  0.66303699  0.80863983  1
  O2-  O405  1  0.34117024  0.92090324  0.14019688  1
  O2-  O406  1  0.36594861  0.93406570  0.48338800  1
  O2-  O407  1  0.30920044  0.83355433  0.73406722  1
  O2-  O408  1  0.59087813  0.16498496  0.13954004  1
  O2-  O409  1  0.57815613  0.17532345  0.49339740  1
  O2-  O410  1  0.60567074  0.18550044  0.81042679  1
  O2-  O411  1  0.59803977  0.44179692  0.14103713  1
  O2-  O412  1  0.58187087  0.40866760  0.46143511  1
  O2-  O413  1  0.57901361  0.42538989  0.81001338  1
  O2-  O414  1  0.58975769  0.68435424  0.15416578  1
  O2-  O415  1  0.60660735  0.66768426  0.48996173  1
  O2-  O416  1  0.59038774  0.69202382  0.83112284  1
  O2-  O417  1  0.58084842  0.91466823  0.14656045  1
  O2-  O418  1  0.57987815  0.90796873  0.47846581  1
  O2-  O419  1  0.59308616  0.93553796  0.81163106  1
  O2-  O420  1  0.83276203  0.16801612  0.14626989  1
  O2-  O421  1  0.81878839  0.15971134  0.49261853  1
  O2-  O422  1  0.83220966  0.16277434  0.81754710  1
  O2-  O423  1  0.82001909  0.39857667  0.17146844  1
  O2-  O424  1  0.82508219  0.41241073  0.48556309  1
  O2-  O425  1  0.83141344  0.44879837  0.80917717  1
  O2-  O426  1  0.83635576  0.67405181  0.14242760  1
  O2-  O427  1  0.84320675  0.66642929  0.48491812  1
  O2-  O428  1  0.81700021  0.67399977  0.81480091  1
  O2-  O429  1  0.85560219  0.92145543  0.16884719  1
  O2-  O430  1  0.83828945  0.92075560  0.48886820  1
  O2-  O431  1  0.85008887  0.93246233  0.80819122  1
  O2-  O432  1  0.18102078  0.08481526  0.19064992  1
  O2-  O433  1  0.16803065  0.07792256  0.52353533  1
  O2-  O434  1  0.15879450  0.07281264  0.85766601  1
  O2-  O435  1  0.16055501  0.32757956  0.20710846  1
  O2-  O436  1  0.17666850  0.33376394  0.53602447  1
  O2-  O437  1  0.17839314  0.32779825  0.85693642  1
  O2-  O438  1  0.18811608  0.60086261  0.18977778  1
  O2-  O439  1  0.19944936  0.62041056  0.51688977  1
  O2-  O440  1  0.16784203  0.59978593  0.82907043  1
  O2-  O441  1  0.16719822  0.83667502  0.17170200  1
  O2-  O442  1  0.15676351  0.82965077  0.50915566  1
  O2-  O443  1  0.21229730  0.85430717  0.86204294  1
  O2-  O444  1  0.42757932  0.08036505  0.18644152  1
  O2-  O445  1  0.41473085  0.08271430  0.53185587  1
  O2-  O446  1  0.34967416  0.02586734  0.85116881  1
  O2-  O447  1  0.42915153  0.33475565  0.18729809  1
  O2-  O448  1  0.42695800  0.31753686  0.50702400  1
  O2-  O449  1  0.41180766  0.31996286  0.85916182  1
  O2-  O450  1  0.44065190  0.61563857  0.21716552  1
  O2-  O451  1  0.39307649  0.57435985  0.50718692  1
  O2-  O452  1  0.41100056  0.58232118  0.86212755  1
  O2-  O453  1  0.42046959  0.84109320  0.19256415  1
  O2-  O454  1  0.41352794  0.83615168  0.51943843  1
  O2-  O455  1  0.42004243  0.82106395  0.85778839  1
  O2-  O456  1  0.67626360  0.08134722  0.17265538  1
  O2-  O457  1  0.65064794  0.07364163  0.52492838  1
  O2-  O458  1  0.67818366  0.09509447  0.85555999  1
  O2-  O459  1  0.61216698  0.31017639  0.20263935  1
  O2-  O460  1  0.66238594  0.33866515  0.52316181  1
  O2-  O461  1  0.67850267  0.35348968  0.84621254  1
  O2-  O462  1  0.67523752  0.60321699  0.18266658  1
  O2-  O463  1  0.67691426  0.57689963  0.51554522  1
  O2-  O464  1  0.65937851  0.58865807  0.86049026  1
  O2-  O465  1  0.67715172  0.84884204  0.19392765  1
  O2-  O466  1  0.67321852  0.83712652  0.53200379  1
  O2-  O467  1  0.69130682  0.86581092  0.84563062  1
  O2-  O468  1  0.87639342  0.11936888  0.16148910  1
  O2-  O469  1  0.90435715  0.07889736  0.53213072  1
  O2-  O470  1  0.91948021  0.09518175  0.85411263  1
  O2-  O471  1  0.83585533  0.26703458  0.22438249  1
  O2-  O472  1  0.89133948  0.31697174  0.53578486  1
  O2-  O473  1  0.90493175  0.34892836  0.88311578  1
  O2-  O474  1  0.81846824  0.54520543  0.22069675  1
  O2-  O475  1  0.91798305  0.58111239  0.52325215  1
  O2-  O476  1  0.93390183  0.60673166  0.85172975  1
  O2-  O477  1  0.93085199  0.83844456  0.19621940  1
  O2-  O478  1  0.92551455  0.83854347  0.51916481  1
  O2-  O479  1  0.92491107  0.84291473  0.85541435  1
  O2-  O480  1  0.17849324  0.10785282  0.31501618  1
  O2-  O481  1  0.17400303  0.08862374  0.65001090  1
  O2-  O482  1  0.16703384  0.07462797  0.99106942  1
  O2-  O483  1  0.15259453  0.32851193  0.27375530  1
  O2-  O484  1  0.15519854  0.33659634  0.65668507  1
  O2-  O485  1  0.12525420  0.30299740  0.96198316  1
  O2-  O486  1  0.15814752  0.59253043  0.29869601  1
  O2-  O487  1  0.15500888  0.58024164  0.64240967  1
  O2-  O488  1  0.19505798  0.58739808  0.98502565  1
  O2-  O489  1  0.14467496  0.80414665  0.29415415  1
  O2-  O490  1  0.19371628  0.84220586  0.63986565  1
  O2-  O491  1  0.15624865  0.82950967  0.98123242  1
  O2-  O492  1  0.43310266  0.08809482  0.30889752  1
  O2-  O493  1  0.41925178  0.07393251  0.65405818  1
  O2-  O494  1  0.41283613  0.07444021  0.97424960  1
  O2-  O495  1  0.41016733  0.33747979  0.35938392  1
  O2-  O496  1  0.42037205  0.33118008  0.65878718  1
  O2-  O497  1  0.40898429  0.32353767  0.98000935  1
  O2-  O498  1  0.46528982  0.69351963  0.31561177  1
  O2-  O499  1  0.39897294  0.58709332  0.62793838  1
  O2-  O500  1  0.41127513  0.57148818  0.98717054  1
  O2-  O501  1  0.38129313  0.81518159  0.31016703  1
  O2-  O502  1  0.39537745  0.84269043  0.63817487  1
  O2-  O503  1  0.41263365  0.82884608  0.98377807  1
  O2-  O504  1  0.69071870  0.08148061  0.28878979  1
  O2-  O505  1  0.66867106  0.08802557  0.65226851  1
  O2-  O506  1  0.66997802  0.08843512  0.97610367  1
  O2-  O507  1  0.66859711  0.32714667  0.32176357  1
  O2-  O508  1  0.66715107  0.34239022  0.64751640  1
  O2-  O509  1  0.64818664  0.32854535  0.96477319  1
  O2-  O510  1  0.64660306  0.58015247  0.30996350  1
  O2-  O511  1  0.66170225  0.57228222  0.63583974  1
  O2-  O512  1  0.66914390  0.58620222  0.98181429  1
  O2-  O513  1  0.66251118  0.86538991  0.32504508  1
  O2-  O514  1  0.66495609  0.82661157  0.65220319  1
  O2-  O515  1  0.61460113  0.80572736  0.97983332  1
  O2-  O516  1  0.91251424  0.08758712  0.32524302  1
  O2-  O517  1  0.91598052  0.08696988  0.65680905  1
  O2-  O518  1  0.93405637  0.09393283  0.97538165  1
  O2-  O519  1  0.92438671  0.33124377  0.32707490  1
  O2-  O520  1  0.91270572  0.33276728  0.65769116  1
  O2-  O521  1  0.94549988  0.32515806  0.99486930  1
  O2-  O522  1  0.89470871  0.57395384  0.32557709  1
  O2-  O523  1  0.91028242  0.56988910  0.63429047  1
  O2-  O524  1  0.93324441  0.59946568  0.97097737  1
  O2-  O525  1  0.88396427  0.82154518  0.31670715  1
  O2-  O526  1  0.93337355  0.84708483  0.64387732  1
  O2-  O527  1  0.92773563  0.84417431  0.97940706  1
  O2-  O528  1  0.08681319  0.16544822  0.03330417  1
  O2-  O529  1  0.08051934  0.17995033  0.34040977  1
  O2-  O530  1  0.08650285  0.17059263  0.69143963  1
  O2-  O531  1  0.11616760  0.42284134  0.02950530  1
  O2-  O532  1  0.10326602  0.43286482  0.32313842  1
  O2-  O533  1  0.07807097  0.41725638  0.67900764  1
  O2-  O534  1  0.09806490  0.66348227  0.00957591  1
  O2-  O535  1  0.05922445  0.64277142  0.34932727  1
  O2-  O536  1  0.06501786  0.66348142  0.68020922  1
  O2-  O537  1  0.08019123  0.91449977  0.03595499  1
  O2-  O538  1  0.05389002  0.94245798  0.34928381  1
  O2-  O539  1  0.09330602  0.91618605  0.69177737  1
  O2-  O540  1  0.33480347  0.16137065  0.02091123  1
  O2-  O541  1  0.34201562  0.16023654  0.35937755  1
  O2-  O542  1  0.34002660  0.17026087  0.69336910  1
  O2-  O543  1  0.32211264  0.39317672  0.01956658  1
  O2-  O544  1  0.29727983  0.39212380  0.33484934  1
  O2-  O545  1  0.34157448  0.42063117  0.65244673  1
  O2-  O546  1  0.34629371  0.66969875  0.03267037  1
  O2-  O547  1  0.37897105  0.64834632  0.34495275  1
  O2-  O548  1  0.33007266  0.67496895  0.68497003  1
  O2-  O549  1  0.32617588  0.91229151  0.01753257  1
  O2-  O550  1  0.35478813  0.92905346  0.36431703  1
  O2-  O551  1  0.36104361  0.89598038  0.66848259  1
  O2-  O552  1  0.58099014  0.16923549  0.01341724  1
  O2-  O553  1  0.59736335  0.15510666  0.34153135  1
  O2-  O554  1  0.58893404  0.17490006  0.68502141  1
  O2-  O555  1  0.57869533  0.41882524  0.01990314  1
  O2-  O556  1  0.58895036  0.40170612  0.39452167  1
  O2-  O557  1  0.57643413  0.41879807  0.68809344  1
  O2-  O558  1  0.56989560  0.64470465  0.03212246  1
  O2-  O559  1  0.54430529  0.62318582  0.37180489  1
  O2-  O560  1  0.56947736  0.65421839  0.65617776  1
  O2-  O561  1  0.57733921  0.92885329  0.02549196  1
  O2-  O562  1  0.62728793  0.91865313  0.34941408  1
  O2-  O563  1  0.55348857  0.89801775  0.68629786  1
  O2-  O564  1  0.83541291  0.15749147  0.01904473  1
  O2-  O565  1  0.85645253  0.17183994  0.37184442  1
  O2-  O566  1  0.83270278  0.16592951  0.69919571  1
  O2-  O567  1  0.82826286  0.42006048  -0.03140033  1
  O2-  O568  1  0.83572390  0.40976801  0.36148581  1
  O2-  O569  1  0.82755497  0.42009825  0.69105347  1
  O2-  O570  1  0.84103611  0.67896458  0.01961599  1
  O2-  O571  1  0.81409212  0.65919101  0.36213044  1
  O2-  O572  1  0.82475725  0.68725161  0.68230412  1
  O2-  O573  1  0.87646391  0.94626725  0.03696708  1
  O2-  O574  1  0.82769344  0.92685653  0.36419466  1
  O2-  O575  1  0.83967553  0.91783619  0.68731198  1
