# generated using pymatgen
data_H2O
_symmetry_space_group_name_H-M   'P 1'
_cell_length_a   17.99005726
_cell_length_b   17.98608577
_cell_length_c   22.00816369
_cell_angle_alpha   90.00972534
_cell_angle_beta   89.96247385
_cell_angle_gamma   119.99326630
_symmetry_Int_Tables_number   1
_chemical_formula_structural   H2O
_chemical_formula_sum   'H384 O192'
_cell_volume   6167.55468819
_cell_formula_units_Z   192
loop_
 _symmetry_equiv_pos_site_id
 _symmetry_equiv_pos_as_xyz
  1  'x, y, z'
loop_
 _atom_type_symbol
 _atom_type_oxidation_number
  H+  1.0
  O2-  -2.0
loop_
 _atom_site_type_symbol
 _atom_site_label
 _atom_site_symmetry_multiplicity
 _atom_site_fract_x
 _atom_site_fract_y
 _atom_site_fract_z
 _atom_site_occupancy
  H+  H0  1  0.10591269  0.63454542  0.16343641  1
  H+  H1  1  0.98009882  0.37166691  0.34289690  1
  H+  H2  1  0.59234606  0.00576227  0.32239231  1
  H+  H3  1  0.46499240  0.85421884  0.83341311  1
  H+  H4  1  0.44383365  0.57181675  0.61118709  1
  H+  H5  1  0.38311892  0.28074507  0.65487123  1
  H+  H6  1  0.40908251  0.34986658  0.59944791  1
  H+  H7  1  0.49120916  0.67609276  0.36482676  1
  H+  H8  1  0.11200541  0.39632201  0.66731620  1
  H+  H9  1  0.15972255  0.50964799  0.84196014  1
  H+  H10  1  0.40545958  0.44568531  0.53010471  1
  H+  H11  1  0.91440294  0.08434597  0.56536458  1
  H+  H12  1  0.71329876  0.34315566  0.33260195  1
  H+  H13  1  0.50857807  0.12651870  0.63369638  1
  H+  H14  1  0.23397039  0.36790101  0.16483094  1
  H+  H15  1  0.10431547  0.37612258  0.35339833  1
  H+  H16  1  0.41001133  0.08476579  0.24248677  1
  H+  H17  1  0.22814682  0.12361141  0.66247684  1
  H+  H18  1  0.61755435  0.34573488  0.68174350  1
  H+  H19  1  0.85543917  0.36259140  0.67992952  1
  H+  H20  1  0.14271233  0.03591552  0.83901554  1
  H+  H21  1  0.34481062  0.65841698  0.76675639  1
  H+  H22  1  0.14615383  0.28570559  0.18414314  1
  H+  H23  1  0.85995282  0.88267888  0.83034023  1
  H+  H24  1  0.10830650  0.37304845  0.82145976  1
  H+  H25  1  0.87158989  0.39442237  -0.00182659  1
  H+  H26  1  1.00240758  0.39823339  0.84671375  1
  H+  H27  1  0.49975915  0.11772771  0.82307147  1
  H+  H28  1  0.38453291  0.26503972  0.83739427  1
  H+  H29  1  0.10955742  0.46858069  0.35350701  1
  H+  H30  1  0.86241936  0.73500178  0.49944831  1
  H+  H31  1  0.29873388  0.61162618  0.66447738  1
  H+  H32  1  0.00836187  0.65195204  0.82004860  1
  H+  H33  1  0.00914449  0.13848416  0.80295268  1
  H+  H34  1  0.77731295  0.89664396  0.49547551  1
  H+  H35  1  0.63104381  0.86243879  0.16805331  1
  H+  H36  1  0.66743003  0.74976726  0.34472592  1
  H+  H37  1  0.22546177  0.12415929  1.00156289  1
  H+  H38  1  0.81018074  1.01194388  0.62632050  1
  H+  H39  1  0.89414889  0.77479346  0.66068810  1
  H+  H40  1  1.02712780  0.90338224  0.82360277  1
  H+  H41  1  0.36675386  0.37882558  0.15871401  1
  H+  H42  1  0.35075356  0.63391026  0.15067217  1
  H+  H43  1  0.10052216  0.22828855  0.80813895  1
  H+  H44  1  0.39107131  0.04379320  0.97450655  1
  H+  H45  1  0.60317837  0.96962902  -0.00561231  1
  H+  H46  1  0.12777001  0.10013775  0.33551177  1
  H+  H47  1  0.91407908  0.83845147  0.27302060  1
  H+  H48  1  0.55875420  0.17375569  0.76759073  1
  H+  H49  1  0.46973654  0.35902682  0.83640923  1
  H+  H50  1  0.38297833  0.85816129  0.50970162  1
  H+  H51  1  0.28964449  0.62407695  0.82929819  1
  H+  H52  1  0.60154047  0.96515820  0.82387678  1
  H+  H53  1  0.38480154  0.35524067  0.33159010  1
  H+  H54  1  0.13507727  0.11972573  0.99871372  1
  H+  H55  1  0.28460357  0.91477494  -0.04213925  1
  H+  H56  1  0.11608042  -0.01709161  1.00965101  1
  H+  H57  1  0.60884771  0.48546719  0.49584079  1
  H+  H58  1  0.65729473  0.65764834  0.33934978  1
  H+  H59  1  0.12330116  0.76484591  0.18414722  1
  H+  H60  1  0.89088437  0.63118505  0.33392032  1
  H+  H61  1  0.86997044  0.64635086  0.66305837  1
  H+  H62  1  0.04287945  0.89657636  0.66817965  1
  H+  H63  1  0.77882328  0.14035584  0.48614427  1
  H+  H64  1  0.06916402  0.58996486  0.84527830  1
  H+  H65  1  -0.00865203  0.84761926  0.17675429  1
  H+  H66  1  0.31233931  0.91001572  0.13603457  1
  H+  H67  1  0.97233224  0.61769677  0.33079643  1
  H+  H68  1  0.61835282  0.73454850  0.15994504  1
  H+  H69  1  0.11426850  0.59778635  0.32867570  1
  H+  H70  1  0.35567170  0.22009226  0.16708706  1
  H+  H71  1  0.00638705  0.66707608  0.66772633  1
  H+  H72  1  0.68272596  0.99010812  0.37582222  1
  H+  H73  1  0.21733567  0.85691132  0.33730075  1
  H+  H74  1  0.88189872  0.11395797  0.18718879  1
  H+  H75  1  0.35789966  0.14612297  0.01397522  1
  H+  H76  1  0.39208170  0.27890410  0.99231826  1
  H+  H77  1  0.89261216  0.27167367  0.66586997  1
  H+  H78  1  0.11786480  0.98379961  0.49920108  1
  H+  H79  1  0.21235656  0.60655841  0.17435198  1
  H+  H80  1  0.38435710  0.77064243  0.52276173  1
  H+  H81  1  0.85177938  0.50141568  -0.03820766  1
  H+  H82  1  0.71621678  0.25931761  0.22789740  1
  H+  H83  1  0.73428440  0.86343665  0.66280491  1
  H+  H84  1  0.35130642  0.72766002  1.00327990  1
  H+  H85  1  0.11358013  0.88627909  0.16282460  1
  H+  H86  1  0.62422516  0.25111233  0.84550778  1
  H+  H87  1  0.88650651  0.78875422  0.33532090  1
  H+  H88  1  0.90427419  0.15175920  0.35226474  1
  H+  H89  1  0.39311447  0.63651857  0.67275228  1
  H+  H90  1  0.52158386  0.14488188  1.00966717  1
  H+  H91  1  0.97852395  0.87111194  0.50681324  1
  H+  H92  1  0.20449060  0.34317822  0.33647512  1
  H+  H93  1  0.66397935  0.83765172  0.26436135  1
  H+  H94  1  0.40369613  0.83133870  0.60233787  1
  H+  H95  1  0.89645905  0.03252461  0.50367298  1
  H+  H96  1  0.70389603  0.36501910  0.45645446  1
  H+  H97  1  0.83780193  0.68097000  0.40982619  1
  H+  H98  1  0.10333099  0.36072344  1.01568433  1
  H+  H99  1  0.89008387  0.86842074  -0.00523810  1
  H+  H100  1  0.24911350  0.63484932  0.31842507  1
  H+  H101  1  0.51407562  0.87117062  0.67102849  1
  H+  H102  1  0.33788773  0.45237285  0.33814293  1
  H+  H103  1  0.51887888  0.88354428  0.49825667  1
  H+  H104  1  0.02471860  0.37971844  0.16907474  1
  H+  H105  1  0.61950500  0.10744573  -0.01280817  1
  H+  H106  1  0.85990357  0.49678283  0.35614279  1
  H+  H107  1  0.37995248  0.77135811  0.15153761  1
  H+  H108  1  0.35845902  0.22327028  0.34064031  1
  H+  H109  1  0.36909718  -0.00625461  0.81768167  1
  H+  H110  1  0.78452849  0.37634401  0.17796289  1
  H+  H111  1  0.37231812  0.91198934  -0.04060101  1
  H+  H112  1  -0.03072112  0.77205101  0.22161965  1
  H+  H113  1  0.89342995  0.36334000  0.18602670  1
  H+  H114  1  0.62286718  0.10232722  0.16555922  1
  H+  H115  1  0.86142780  0.89419088  0.33954847  1
  H+  H116  1  0.37236045  0.47056988  0.14557545  1
  H+  H117  1  0.13937125  0.12952597  0.51065996  1
  H+  H118  1  0.67744280  0.84417716  0.56751831  1
  H+  H119  1  0.89638906  0.56212762  0.65832023  1
  H+  H120  1  0.47647089  0.35965480  0.33061885  1
  H+  H121  1  0.84585442  0.23698476  0.00345718  1
  H+  H122  1  0.41418816  0.58304125  0.09872425  1
  H+  H123  1  0.37538801  0.10970143  0.49996972  1
  H+  H124  1  0.20995418  0.85536578  0.19541531  1
  H+  H125  1  0.90737048  0.25309433  0.35246614  1
  H+  H126  1  0.35861145  0.64279878  0.01311438  1
  H+  H127  1  0.11924193  0.25181745  0.49320872  1
  H+  H128  1  0.12383335  -0.01797561  0.34911299  1
  H+  H129  1  0.35558995  -0.02949438  0.49979772  1
  H+  H130  1  0.45860857  0.10333555  0.33775379  1
  H+  H131  1  0.97098483  0.11314189  0.18817539  1
  H+  H132  1  0.64423823  0.61043471  0.67307827  1
  H+  H133  1  0.21060143  0.85312161  0.82777981  1
  H+  H134  1  0.62491806  0.36810780  0.48463844  1
  H+  H135  1  0.76856935  0.88627973  0.99759275  1
  H+  H136  1  0.16778835  0.09680544  0.56981603  1
  H+  H137  1  0.01699908  0.63874371  0.49522951  1
  H+  H138  1  0.53860765  0.63958336  0.47898305  1
  H+  H139  1  0.00618870  0.14858627  0.02648980  1
  H+  H140  1  0.63767778  0.61640566  0.98555343  1
  H+  H141  1  0.01867815  0.63685736  0.16354083  1
  H+  H142  1  0.35775561  0.22288300  0.49773827  1
  H+  H143  1  0.36099984  0.46700907  0.82032370  1
  H+  H144  1  0.89036340  0.87288549  0.50777747  1
  H+  H145  1  0.62265110  0.64683967  0.15954275  1
  H+  H146  1  1.00222941  0.35084737  0.52474955  1
  H+  H147  1  0.10294308  0.71791396  0.34599710  1
  H+  H148  1  0.27403174  0.13335699  0.82680291  1
  H+  H149  1  0.61660108  0.72899919  0.00117966  1
  H+  H150  1  0.63706715  0.36254815  0.98702800  1
  H+  H151  1  0.93223339  0.34599826  0.93956863  1
  H+  H152  1  0.26294768  0.14057808  0.49833551  1
  H+  H153  1  0.77084838  0.19032595  0.05180731  1
  H+  H154  1  0.62021154  0.10148122  0.82910181  1
  H+  H155  1  0.85384502  -0.02368932  0.16270123  1
  H+  H156  1  0.35792361  0.34639336  0.50285930  1
  H+  H157  1  0.38919541  0.52549015  1.01059087  1
  H+  H158  1  0.85115598  0.50138230  0.85902527  1
  H+  H159  1  0.86729467  0.46949508  0.17416697  1
  H+  H160  1  0.12624533  0.77580498  0.50259324  1
  H+  H161  1  0.12194611  0.88521455  0.35222687  1
  H+  H162  1  0.01918103  0.38754297  0.67424539  1
  H+  H163  1  0.35662033  0.12196727  0.82147162  1
  H+  H164  1  0.69794848  0.33082791  0.68451574  1
  H+  H165  1  0.35465126  0.38722840  0.67083824  1
  H+  H166  1  0.77870000  0.38402918  0.99833465  1
  H+  H167  1  0.37746757  0.10901918  0.18087972  1
  H+  H168  1  0.22388596  0.37199556  0.64965106  1
  H+  H169  1  0.85265588  0.12387346  0.82046355  1
  H+  H170  1  0.11896435  0.38830197  0.16469672  1
  H+  H171  1  0.13525399  0.51401200  0.51679472  1
  H+  H172  1  0.11660332  0.88991175  0.49854216  1
  H+  H173  1  0.31339192  0.66355846  0.09701332  1
  H+  H174  1  0.39910645  0.52028247  0.66981264  1
  H+  H175  1  0.88017931  0.60405122  0.17097091  1
  H+  H176  1  0.60339728  0.87662173  0.82523343  1
  H+  H177  1  0.33501124  0.87401857  0.66166454  1
  H+  H178  1  0.42536508  0.58018648  0.29453033  1
  H+  H179  1  0.72765713  0.61945763  0.98294681  1
  H+  H180  1  0.64355561  0.61752049  0.51391338  1
  H+  H181  1  0.35662843  0.13943143  0.66812259  1
  H+  H182  1  0.63637709  0.53142571  0.16044305  1
  H+  H183  1  0.13272761  0.02193255  0.17625675  1
  H+  H184  1  0.64195982  0.86734546  0.32867834  1
  H+  H185  1  1.01685174  0.12153356  0.34884589  1
  H+  H186  1  0.62052638  0.47967132  -0.00982976  1
  H+  H187  1  0.38150157  0.76134800  0.83391655  1
  H+  H188  1  0.46691713  0.11353517  0.50604196  1
  H+  H189  1  0.61857439  0.63350933  0.80122390  1
  H+  H190  1  0.57829019  0.16567867  0.54872435  1
  H+  H191  1  0.70779510  0.10977335  0.98097807  1
  H+  H192  1  0.64967566  0.50526573  0.32045271  1
  H+  H193  1  0.11227641  0.52436919  0.66758022  1
  H+  H194  1  0.83415003  0.92331988  0.43493997  1
  H+  H195  1  0.39583043  0.60204820  0.83144659  1
  H+  H196  1  0.23669296  0.36345255  0.98356811  1
  H+  H197  1  0.71479872  0.10914919  0.17665658  1
  H+  H198  1  0.64603372  0.78222596  0.50886211  1
  H+  H199  1  0.34484505  0.86147858  0.81230708  1
  H+  H200  1  0.53547715  0.63187273  0.70190414  1
  H+  H201  1  0.36535326  0.01682347  0.65145325  1
  H+  H202  1  0.87895010  1.00924121  0.82828704  1
  H+  H203  1  0.85697228  0.63612753  0.84327268  1
  H+  H204  1  0.86250935  0.12040035  -0.00488043  1
  H+  H205  1  0.77896346  0.15175142  0.67926808  1
  H+  H206  1  0.26432167  0.13259126  0.16650099  1
  H+  H207  1  0.12525975  0.51667647  0.17095853  1
  H+  H208  1  0.34987011  0.96516717  0.34596462  1
  H+  H209  1  0.37126611  0.38717292  -0.00442019  1
  H+  H210  1  0.02919665  0.89277495  0.00843742  1
  H+  H211  1  0.10831555  0.78479739  0.82889178  1
  H+  H212  1  0.64349746  0.11755725  0.49633125  1
  H+  H213  1  0.10629649  0.13475628  0.17737751  1
  H+  H214  1  0.92543875  0.83619471  0.60203622  1
  H+  H215  1  0.53107747  0.38938118  -0.00865606  1
  H+  H216  1  0.73464017  0.61662707  0.66385716  1
  H+  H217  1  0.22283244  0.35512992  0.82915293  1
  H+  H218  1  0.86313340  0.10158817  0.65799431  1
  H+  H219  1  0.21658032  0.86227647  0.50939474  1
  H+  H220  1  0.72556587  0.33936481  0.84636096  1
  H+  H221  1  0.87872130  1.02127714  0.33537582  1
  H+  H222  1  0.52007022  0.39221885  0.66996454  1
  H+  H223  1  0.97079842  0.33749521  1.00419628  1
  H+  H224  1  0.19304013  0.89347052  0.66797571  1
  H+  H225  1  0.12832131  0.60683158  0.98742621  1
  H+  H226  1  0.75461125  0.13141136  0.32103077  1
  H+  H227  1  0.72105634  0.85441414  0.83071039  1
  H+  H228  1  0.76589765  0.12698819  0.81902142  1
  H+  H229  1  0.18516336  0.62319984  0.66550007  1
  H+  H230  1  0.34704632  0.87437984  0.36220858  1
  H+  H231  1  0.85362141  0.63620411  -0.01312588  1
  H+  H232  1  0.77141673  0.89296055  0.33829282  1
  H+  H233  1  0.03272217  0.15912422  0.50003268  1
  H+  H234  1  0.64028193  0.02684297  0.49572214  1
  H+  H235  1  0.47360161  0.35665405  0.17472467  1
  H+  H236  1  0.36137249  0.75967579  0.35386005  1
  H+  H237  1  0.51914655  0.88173176  0.14111404  1
  H+  H238  1  0.63205301  0.76734706  0.82352639  1
  H+  H239  1  0.57751848  0.11677548  0.34213629  1
  H+  H240  1  0.85634820  0.97478371  -0.00052070  1
  H+  H241  1  0.89238789  0.62103029  0.50439569  1
  H+  H242  1  0.77631128  0.63546156  0.14821853  1
  H+  H243  1  0.86590540  0.38992804  0.84009601  1
  H+  H244  1  0.87897685  0.35263658  0.33440511  1
  H+  H245  1  0.77456749  0.64303325  0.50081647  1
  H+  H246  1  0.10772726  0.62265232  0.82765760  1
  H+  H247  1  0.78502487  0.65083972  0.34762877  1
  H+  H248  1  0.37048058  0.10355274  0.33333452  1
  H+  H249  1  0.89791834  0.78434843  0.84463901  1
  H+  H250  1  0.10471026  0.63560453  0.49306808  1
  H+  H251  1  0.60598641  0.37774181  0.34554161  1
  H+  H252  1  0.12502741  0.73414771  0.00424471  1
  H+  H253  1  0.12239069  0.14897183  0.66394640  1
  H+  H254  1  0.72273553  0.86752610  0.17146638  1
  H+  H255  1  0.59996532  0.47448237  0.82444822  1
  H+  H256  1  0.14724733  0.87536103  0.98741924  1
  H+  H257  1  0.11504375  -0.09773105  0.82199207  1
  H+  H258  1  0.12154719  0.24325635  0.65668009  1
  H+  H259  1  0.50509286  0.64380245  0.35804926  1
  H+  H260  1  0.88001604  0.88174927  0.67537175  1
  H+  H261  1  0.63283520  0.86052751  0.98255912  1
  H+  H262  1  0.08061070  0.41152510  0.76452875  1
  H+  H263  1  0.51092194  0.12883283  0.16296079  1
  H+  H264  1  0.86852931  0.13875929  0.49849871  1
  H+  H265  1  0.61597302  0.26096973  0.33992591  1
  H+  H266  1  0.63235719  0.26944152  -0.00344847  1
  H+  H267  1  0.61410814  0.47633271  0.67293056  1
  H+  H268  1  0.91250608  0.07260337  0.88479748  1
  H+  H269  1  0.07842008  0.18012399  0.72311823  1
  H+  H270  1  0.83416160  0.90581339  0.76624839  1
  H+  H271  1  0.86478116  0.23274148  0.17676238  1
  H+  H272  1  0.46602642  0.86212255  -0.01638270  1
  H+  H273  1  0.37275095  0.76762780  0.65894144  1
  H+  H274  1  0.32261097  0.40856901  0.40276921  1
  H+  H275  1  0.38615352  0.86002700  0.16958985  1
  H+  H276  1  0.25979767  0.63519459  0.52918332  1
  H+  H277  1  0.51980907  0.46355917  0.11134836  1
  H+  H278  1  0.35427411  0.37442558  0.82165810  1
  H+  H279  1  0.93925118  0.16821203  0.95198439  1
  H+  H280  1  0.74883315  0.16866492  0.32969481  1
  H+  H281  1  0.35078641  0.97481726  0.18949411  1
  H+  H282  1  0.33579457  0.61755430  0.53725612  1
  H+  H283  1  0.60811788  0.97018767  0.14914649  1
  H+  H284  1  0.33346144  0.62983252  0.31578784  1
  H+  H285  1  0.11690276  0.25686292  0.33777267  1
  H+  H286  1  0.72822274  0.61804280  0.82909802  1
  H+  H287  1  0.45046555  0.84498831  0.36110411  1
  H+  H288  1  0.74013569  0.54078878  0.29058074  1
  H+  H289  1  0.82104656  0.39398138  0.77759379  1
  H+  H290  1  0.60684695  0.23139026  0.49393625  1
  H+  H291  1  0.14786089  0.27634432  0.98731548  1
  H+  H292  1  0.61009262  0.88521806  0.50037839  1
  H+  H293  1  0.66454563  0.30147724  0.25188050  1
  H+  H294  1  0.33419910  0.17033778  0.73021901  1
  H+  H295  1  0.82498294  0.92140658  0.10150313  1
  H+  H296  1  0.47722333  0.59369705  0.81846376  1
  H+  H297  1  0.07377217  0.17015864  0.12281717  1
  H+  H298  1  0.84159952  0.17391672  0.11729696  1
  H+  H299  1  0.57980158  0.91131775  0.05396324  1
  H+  H300  1  0.35469095  0.97738965  0.06679395  1
  H+  H301  1  0.98746145  0.46012612  0.88916771  1
  H+  H302  1  0.48440715  0.84177512  0.25883119  1
  H+  H303  1  0.87154008  0.71581870  0.15226622  1
  H+  H304  1  0.60060621  0.92778572  0.41319557  1
  H+  H305  1  0.03948151  0.69597228  0.75271376  1
  H+  H306  1  0.38654422  0.01845841  0.88418974  1
  H+  H307  1  0.16512347  0.32456123  0.88900080  1
  H+  H308  1  0.67246212  0.14330566  0.72828700  1
  H+  H309  1  0.56779227  0.14928264  0.40858665  1
  H+  H310  1  0.32118276  0.41120898  0.73067845  1
  H+  H311  1  0.84077525  0.16825977  0.73392230  1
  H+  H312  1  0.59602888  0.67526705  0.06333047  1
  H+  H313  1  0.22109427  0.10836257  0.33150926  1
  H+  H314  1  0.87220018  0.96746211  0.67763807  1
  H+  H315  1  0.21223356  0.60213139  0.99306228  1
  H+  H316  1  0.58005942  0.16638110  0.06880475  1
  H+  H317  1  0.30632420  0.57784144  0.42989736  1
  H+  H318  1  0.33566940  0.40423323  0.05749726  1
  H+  H319  1  0.83805808  0.66478210  0.05304572  1
  H+  H320  1  0.43019741  0.13321568  0.94064959  1
  H+  H321  1  0.48024704  0.61610822  0.15195422  1
  H+  H322  1  0.11140204  0.40138791  0.45139320  1
  H+  H323  1  0.92424134  0.33166996  0.24507886  1
  H+  H324  1  0.57016030  0.89778054  0.73042897  1
  H+  H325  1  0.51197258  0.40940303  0.49196042  1
  H+  H326  1  0.41795709  0.32887028  0.92750687  1
  H+  H327  1  0.08059369  0.16045007  0.40671008  1
  H+  H328  1  0.32633993  0.17321443  0.07326451  1
  H+  H329  1  0.09489528  0.93262636  0.72918344  1
  H+  H330  1  0.66172270  0.31455562  0.91254802  1
  H+  H331  1  0.92490185  0.84628781  0.90257901  1
  H+  H332  1  0.60713905  0.20910634  0.16885408  1
  H+  H333  1  0.66271609  0.82695025  0.92496756  1
  H+  H334  1  0.40675036  0.82711516  0.92422924  1
  H+  H335  1  0.67053435  0.59570262  0.88861509  1
  H+  H336  1  0.92640511  0.69892588  0.80125243  1
  H+  H337  1  0.32049110  0.90921860  0.44280972  1
  H+  H338  1  0.87524340  0.18790953  0.41904332  1
  H+  H339  1  0.92296079  0.60335140  0.56662029  1
  H+  H340  1  0.41943455  0.32920769  0.23762013  1
  H+  H341  1  0.67687113  0.57762512  0.22375475  1
  H+  H342  1  0.08854880  0.91918602  0.10142335  1
  H+  H343  1  0.16471912  0.34966598  0.58850295  1
  H+  H344  1  0.83291452  0.43691765  0.68004693  1
  H+  H345  1  0.08952600  0.67554384  0.06247265  1
  H+  H346  1  0.08395310  0.65184728  0.68342930  1
  H+  H347  1  0.59343132  0.21799250  0.64290777  1
  H+  H348  1  0.61239858  0.05827348  0.26028537  1
  H+  H349  1  0.64385442  0.86374901  0.65993077  1
  H+  H350  1  0.91016952  0.58620328  0.23615474  1
  H+  H351  1  0.39330247  0.07571687  0.59207222  1
  H+  H352  1  0.18252178  0.56740377  0.90274556  1
  H+  H353  1  0.14026513  0.56553845  0.26815107  1
  H+  H354  1  0.90561519  0.27728749  0.51594311  1
  H+  H355  1  0.13903217  0.03330610  0.66135432  1
  H+  H356  1  0.13490416  0.57138453  0.57172778  1
  H+  H357  1  0.89272572  0.78069474  0.99150804  1
  H+  H358  1  0.46466995  0.86978682  0.26258564  1
  H+  H359  1  0.30961738  0.88911013  0.75257237  1
  H+  H360  1  0.07155234  0.65711242  0.40414490  1
  H+  H361  1  0.57534495  0.42957444  0.08169675  1
  H+  H362  1  0.57912209  0.42237643  0.39933514  1
  H+  H363  1  0.06552279  0.37088858  0.08085081  1
  H+  H364  1  0.27510513  0.45282403  0.52637705  1
  H+  H365  1  0.63629645  0.13304617  0.66200619  1
  H+  H366  1  0.57094822  0.41490255  0.76659015  1
  H+  H367  1  0.05282829  0.24237808  0.05072980  1
  H+  H368  1  0.17507841  0.09228906  0.89923270  1
  H+  H369  1  0.32372273  0.16613838  0.40104441  1
  H+  H370  1  0.92444705  0.33333862  0.60653077  1
  H+  H371  1  0.66931126  0.58367998  0.57358712  1
  H+  H372  1  0.15085629  0.82733009  0.27987341  1
  H+  H373  1  0.62155694  0.68216192  0.43502529  1
  H+  H374  1  0.16252788  0.84014486  0.92455662  1
  H+  H375  1  0.15973119  0.07501515  0.23866075  1
  H+  H376  1  0.35060787  0.53106810  0.24876579  1
  H+  H377  1  0.09553436  0.92519917  0.41784201  1
  H+  H378  1  0.91155524  0.08284638  0.27552538  1
  H+  H379  1  0.83455378  0.67376867  0.72714764  1
  H+  H380  1  0.33401028  0.55772168  0.42684000  1
  H+  H381  1  0.47837053  0.61626704  1.01326305  1
  H+  H382  1  0.35485294  0.93567388  0.06311349  1
  H+  H383  1  0.64925314  0.07574313  0.88962705  1
  O2-  O384  1  0.07564542  0.16689203  0.16778175  1
  O2-  O385  1  0.09290338  0.18888132  0.48416864  1
  O2-  O386  1  0.06603117  0.17499589  0.78351423  1
  O2-  O387  1  0.08128320  0.41083757  0.14772457  1
  O2-  O388  1  0.11552160  0.40342360  0.49686444  1
  O2-  O389  1  0.07994978  0.40703981  0.80985609  1
  O2-  O390  1  0.08000598  0.67012203  0.15049360  1
  O2-  O391  1  0.07800402  0.66805192  0.47679899  1
  O2-  O392  1  0.02040078  0.70331922  0.79728497  1
  O2-  O393  1  0.08635786  0.91932224  0.14707484  1
  O2-  O394  1  0.08790892  0.92472915  0.48222487  1
  O2-  O395  1  0.08646992  0.93436515  0.80667734  1
  O2-  O396  1  0.32463741  0.16054171  0.15029441  1
  O2-  O397  1  0.32308891  0.16604945  0.47994340  1
  O2-  O398  1  0.33452538  0.15994706  0.80879930  1
  O2-  O399  1  0.34016481  0.40775639  0.13610401  1
  O2-  O400  1  0.32013134  0.50566692  0.54850124  1
  O2-  O401  1  0.32450324  0.40493664  0.80622583  1
  O2-  O402  1  0.31548555  0.66098360  0.14278206  1
  O2-  O403  1  0.32265730  0.66453733  0.53681634  1
  O2-  O404  1  0.34949634  0.66239635  0.81157245  1
  O2-  O405  1  0.31616203  0.91125687  0.18038785  1
  O2-  O406  1  0.32490650  0.90877268  0.48802550  1
  O2-  O407  1  0.31252527  0.89040818  0.79787998  1
  O2-  O408  1  0.56983812  0.15582682  0.14476311  1
  O2-  O409  1  0.57679033  0.16780969  0.50265960  1
  O2-  O410  1  0.56103842  0.15893495  0.81001552  1
  O2-  O411  1  0.55728280  0.44097950  0.12253459  1
  O2-  O412  1  0.57057659  0.42829881  0.47609629  1
  O2-  O413  1  0.56742534  0.41387167  0.81185122  1
  O2-  O414  1  0.59118070  0.67459801  0.14250123  1
  O2-  O415  1  0.60122236  0.67475512  0.47848460  1
  O2-  O416  1  0.58445149  0.65996561  0.78486878  1
  O2-  O417  1  0.58271110  0.91160908  0.13128694  1
  O2-  O418  1  0.57983912  0.91458619  0.48317859  1
  O2-  O419  1  0.56947664  0.90365877  0.81173604  1
  O2-  O420  1  0.83068683  0.17069902  0.16101583  1
  O2-  O421  1  0.84393698  0.17311702  0.48031554  1
  O2-  O422  1  0.82700165  0.15877384  0.80688845  1
  O2-  O423  1  0.84365653  0.40841698  0.16221328  1
  O2-  O424  1  0.80595261  0.37410087  0.34071585  1
  O2-  O425  1  0.81803975  0.39693137  0.82299533  1
  O2-  O426  1  0.83574071  0.65912895  0.13191570  1
  O2-  O427  1  0.83290741  0.67570546  0.48211635  1
  O2-  O428  1  0.86670067  0.68342793  0.81533915  1
  O2-  O429  1  0.82029963  0.91730825  0.14616312  1
  O2-  O430  1  0.83829644  0.92667496  0.48035219  1
  O2-  O431  1  0.82702297  0.90856124  0.81176252  1
  O2-  O432  1  0.16166854  0.08144346  0.19353707  1
  O2-  O433  1  0.16734046  0.09610439  0.52403591  1
  O2-  O434  1  0.18065066  0.09517045  0.85465003  1
  O2-  O435  1  0.17806029  0.34908710  0.18483156  1
  O2-  O436  1  0.17148553  0.36631441  0.51275380  1
  O2-  O437  1  0.16134620  0.32356244  0.84378053  1
  O2-  O438  1  0.15149495  0.57573382  0.18870248  1
  O2-  O439  1  0.14820942  0.57262716  0.52775557  1
  O2-  O440  1  0.20244439  0.56429280  0.86069840  1
  O2-  O441  1  0.14649293  0.82407351  0.20284054  1
  O2-  O442  1  0.15382171  0.83653729  0.51677560  1
  O2-  O443  1  0.15493584  0.83960200  0.84704998  1
  O2-  O444  1  0.40974370  0.08118180  0.19677982  1
  O2-  O445  1  0.40432651  0.07928473  0.51650022  1
  O2-  O446  1  0.39911402  0.04714544  0.84373905  1
  O2-  O447  1  0.41513936  0.32537819  0.19205056  1
  O2-  O448  1  0.40927845  0.38511553  0.52573670  1
  O2-  O449  1  0.40909380  0.32475098  0.85333634  1
  O2-  O450  1  0.41686798  0.58062435  0.14466042  1
  O2-  O451  1  0.40603002  0.52073950  0.53229349  1
  O2-  O452  1  0.42188527  0.56539984  0.84002814  1
  O2-  O453  1  0.41649931  0.83485479  0.14853309  1
  O2-  O454  1  0.41829656  0.83469749  0.52722535  1
  O2-  O455  1  0.40342731  0.82283664  0.84679758  1
  O2-  O456  1  0.65214315  0.07255900  0.18354829  1
  O2-  O457  1  0.67919278  0.09001812  0.49583711  1
  O2-  O458  1  0.65229210  0.07402819  0.84432261  1
  O2-  O459  1  0.68420477  0.28614892  0.21278542  1
  O2-  O460  1  0.65770138  0.33723365  0.48618792  1
  O2-  O461  1  0.66389054  0.30945363  0.86356311  1
  O2-  O462  1  0.67346182  0.58852916  0.17968627  1
  O2-  O463  1  0.67046746  0.58369424  0.52794754  1
  O2-  O464  1  0.66886432  0.59315102  0.84298805  1
  O2-  O465  1  0.66146489  0.83457733  0.18737179  1
  O2-  O466  1  0.67364019  0.84339354  0.52110520  1
  O2-  O467  1  0.65982047  0.82317896  0.84502135  1
  O2-  O468  1  0.90899721  0.08032995  0.20096190  1
  O2-  O469  1  0.92569798  0.09246657  0.52061861  1
  O2-  O470  1  0.91065247  0.07240041  0.84043208  1
  O2-  O471  1  0.92169592  0.32867258  0.19968180  1
  O2-  O472  1  0.94248306  0.33336821  0.53581724  1
  O2-  O473  1  0.95721738  0.40131319  0.87361275  1
  O2-  O474  1  0.91305180  0.57984041  0.19121694  1
  O2-  O475  1  0.92510638  0.59525930  0.52146422  1
  O2-  O476  1  0.88390251  0.55847662  0.87936163  1
  O2-  O477  1  0.94218507  0.79912311  0.19934520  1
  O2-  O478  1  0.91882835  0.84082718  0.52282864  1
  O2-  O479  1  0.92284239  0.84568482  0.85701032  1
  O2-  O480  1  0.15963044  0.07155321  0.31859376  1
  O2-  O481  1  0.16737000  0.09528324  0.64674781  1
  O2-  O482  1  0.16534838  0.09042526  0.98495070  1
  O2-  O483  1  0.14329956  0.31848983  0.32703373  1
  O2-  O484  1  0.16316031  0.34059899  0.63440888  1
  O2-  O485  1  0.17582428  0.33339275  0.96824428  1
  O2-  O486  1  0.14298660  0.56590525  0.31353427  1
  O2-  O487  1  0.12767142  0.58276391  0.65109474  1
  O2-  O488  1  0.15413769  0.57120320  0.97496950  1
  O2-  O489  1  0.15452438  0.82941242  0.32547862  1
  O2-  O490  1  0.22224035  0.86361705  0.65097293  1
  O2-  O491  1  0.17871309  0.84881322  0.96862166  1
  O2-  O492  1  0.40027996  0.07265849  0.31860899  1
  O2-  O493  1  0.39709810  0.07765806  0.63768995  1
  O2-  O494  1  0.42160002  0.10910974  0.98148690  1
  O2-  O495  1  0.41591174  0.32693744  0.31476287  1
  O2-  O496  1  0.41241594  0.34289688  0.64428559  1
  O2-  O497  1  0.42577229  0.33668306  0.97323496  1
  O2-  O498  1  0.36354351  0.54084399  0.29207302  1
  O2-  O499  1  0.44307865  0.57984229  0.65587641  1
  O2-  O500  1  0.41557872  0.58703285  1.02269024  1
  O2-  O501  1  0.39149185  0.81702162  0.37536551  1
  O2-  O502  1  0.39389579  0.82816476  0.64768207  1
  O2-  O503  1  0.40559363  0.83611935  0.96925213  1
  O2-  O504  1  0.58231274  0.04740484  0.29982399  1
  O2-  O505  1  0.67533063  0.12232107  0.68821750  1
  O2-  O506  1  0.64709260  0.07704173  0.96757314  1
  O2-  O507  1  0.64827469  0.31945326  0.32159937  1
  O2-  O508  1  0.63482291  0.30104203  0.68630604  1
  O2-  O509  1  0.66336868  0.32640993  0.97477272  1
  O2-  O510  1  0.69666202  0.55708453  0.29826821  1
  O2-  O511  1  0.67116188  0.58189040  0.65134206  1
  O2-  O512  1  0.66752604  0.58731991  0.96714377  1
  O2-  O513  1  0.66913599  0.83663018  0.30988139  1
  O2-  O514  1  0.68234109  0.84707056  0.63841255  1
  O2-  O515  1  0.66625887  0.83192377  0.97025599  1
  O2-  O516  1  0.91477907  0.08355328  0.32145283  1
  O2-  O517  1  0.86922251  0.05466520  0.63662357  1
  O2-  O518  1  0.90780057  0.11424508  0.97442427  1
  O2-  O519  1  0.92247615  0.33282551  0.32380540  1
  O2-  O520  1  0.91847999  0.33355430  0.65273792  1
  O2-  O521  1  0.91686939  0.32684681  0.98279314  1
  O2-  O522  1  0.91150454  0.59359990  0.31563070  1
  O2-  O523  1  0.91642040  0.61785560  0.63999696  1
  O2-  O524  1  0.84221886  0.54606406  0.93876650  1
  O2-  O525  1  0.90966650  0.84671128  0.31676531  1
  O2-  O526  1  0.93090933  0.83679451  0.64715337  1
  O2-  O527  1  0.92504896  0.84299337  0.98021514  1
  O2-  O528  1  0.06072140  0.19114600  0.04544800  1
  O2-  O529  1  0.07818708  0.14961928  0.36204920  1
  O2-  O530  1  0.09066397  0.18178172  0.67370614  1
  O2-  O531  1  0.05107791  0.33678443  0.04121321  1
  O2-  O532  1  0.08089330  0.41105170  0.37345779  1
  O2-  O533  1  0.08127087  0.42291700  0.68738736  1
  O2-  O534  1  0.09124659  0.67390713  0.01767805  1
  O2-  O535  1  0.07057420  0.65639533  0.35774930  1
  O2-  O536  1  0.06329888  0.69211681  0.69171845  1
  O2-  O537  1  0.08957585  0.92236331  0.02395413  1
  O2-  O538  1  0.09763801  0.92266729  0.36940156  1
  O2-  O539  1  0.10230666  0.93363788  0.68398725  1
  O2-  O540  1  0.32734541  0.17655404  0.02761692  1
  O2-  O541  1  0.32351224  0.16276838  0.35583816  1
  O2-  O542  1  0.33126855  0.17363573  0.68483351  1
  O2-  O543  1  0.33718578  0.41276640  0.01250037  1
  O2-  O544  1  0.32221409  0.39743999  0.35935780  1
  O2-  O545  1  0.32382453  0.41762364  0.68509448  1
  O2-  O546  1  0.32224427  0.66897609  0.02120762  1
  O2-  O547  1  0.31306269  0.67100964  0.31498148  1
  O2-  O548  1  0.35101496  0.65596409  0.68360225  1
  O2-  O549  1  0.34825593  0.95034730  -0.05034128  1
  O2-  O550  1  0.31441633  0.90690775  0.36387336  1
  O2-  O551  1  0.30845746  0.90916048  0.67730840  1
  O2-  O552  1  0.58264197  0.16961066  0.02308966  1
  O2-  O553  1  0.56108051  0.15565739  0.36507242  1
  O2-  O554  1  0.57079268  0.15976890  0.62292711  1
  O2-  O555  1  0.59188674  0.41974977  0.00704275  1
  O2-  O556  1  0.58027959  0.41550926  0.35406710  1
  O2-  O557  1  0.57862949  0.41558488  0.68742904  1
  O2-  O558  1  0.58954392  0.66939996  0.01809160  1
  O2-  O559  1  0.67152080  0.70421845  0.36787839  1
  O2-  O560  1  0.59548215  0.66128539  0.71861047  1
  O2-  O561  1  0.57646527  0.90905489  0.00827872  1
  O2-  O562  1  0.62410599  0.94336519  0.36967942  1
  O2-  O563  1  0.57310896  0.89350116  0.68569894  1
  O2-  O564  1  0.80418073  0.17828106  0.02254217  1
  O2-  O565  1  0.90677054  0.20231286  0.37654787  1
  O2-  O566  1  0.84095680  0.17078490  0.68769438  1
  O2-  O567  1  0.84023621  0.42624354  0.00293050  1
  O2-  O568  1  0.83181497  0.44506623  0.38316693  1
  O2-  O569  1  0.81699408  0.38270292  0.69991557  1
  O2-  O570  1  0.83508390  0.67270033  0.00818724  1
  O2-  O571  1  0.84366104  0.68488761  0.36369428  1
  O2-  O572  1  0.83073762  0.67531958  0.68279656  1
  O2-  O573  1  0.82825597  0.91625485  0.01525365  1
  O2-  O574  1  0.83019501  0.92412221  0.35651893  1
  O2-  O575  1  0.84668973  0.90834626  0.69355995  1
