# generated using pymatgen
data_H2O
_symmetry_space_group_name_H-M   'P 1'
_cell_length_a   17.98099535
_cell_length_b   17.98170213
_cell_length_c   21.99743328
_cell_angle_alpha   89.99390042
_cell_angle_beta   90.00825948
_cell_angle_gamma   120.00028752
_symmetry_Int_Tables_number   1
_chemical_formula_structural   H2O
_chemical_formula_sum   'H384 O192'
_cell_volume   6159.50633042
_cell_formula_units_Z   192
loop_
 _symmetry_equiv_pos_site_id
 _symmetry_equiv_pos_as_xyz
  1  'x, y, z'
loop_
 _atom_type_symbol
 _atom_type_oxidation_number
  H+  1.0
  O2-  -2.0
loop_
 _atom_site_type_symbol
 _atom_site_label
 _atom_site_symmetry_multiplicity
 _atom_site_fract_x
 _atom_site_fract_y
 _atom_site_fract_z
 _atom_site_occupancy
  H+  H0  1  0.87552451  0.35320212  0.99068302  1
  H+  H1  1  0.88890335  0.40434734  0.33402273  1
  H+  H2  1  -0.05201646  0.83797639  0.83886180  1
  H+  H3  1  0.61710819  0.64319500  0.34294698  1
  H+  H4  1  0.36361834  0.38847442  0.83310718  1
  H+  H5  1  1.02008575  0.38715682  0.83898467  1
  H+  H6  1  0.12961496  0.25768542  0.66739263  1
  H+  H7  1  0.11292506  0.89103228  0.48861128  1
  H+  H8  1  0.64185503  1.01318779  0.16709965  1
  H+  H9  1  1.01768572  0.39411443  0.15009275  1
  H+  H10  1  0.09984658  0.63343050  0.66563406  1
  H+  H11  1  0.62367967  0.36120160  0.66998693  1
  H+  H12  1  0.47567696  0.37001239  0.99882870  1
  H+  H13  1  0.83125989  0.46959572  0.59858896  1
  H+  H14  1  0.67011678  0.58203680  0.91268124  1
  H+  H15  1  0.11896345  0.98308137  0.48359721  1
  H+  H16  1  0.36391157  0.96847551  0.33795502  1
  H+  H17  1  0.39963741  0.78360056  -0.00928416  1
  H+  H18  1  0.77214841  0.13718648  0.49213601  1
  H+  H19  1  0.13516811  0.61009190  0.83443522  1
  H+  H20  1  0.87377061  -0.02021113  0.67303502  1
  H+  H21  1  0.39724023  0.15298166  0.16542034  1
  H+  H22  1  0.66533349  0.60854243  0.64326484  1
  H+  H23  1  0.07289985  0.81300489  0.17339426  1
  H+  H24  1  0.37193183  0.72887117  0.16130836  1
  H+  H25  1  0.53080141  0.63452643  0.00661959  1
  H+  H26  1  0.12075630  0.38604200  0.67036736  1
  H+  H27  1  0.62725674  0.17952367  -0.06741244  1
  H+  H28  1  0.86275920  0.97080615  0.00963422  1
  H+  H29  1  0.11099588  0.62793316  0.14858597  1
  H+  H30  1  0.24219544  0.37266882  0.18421465  1
  H+  H31  1  0.73482547  0.86590500  0.65612494  1
  H+  H32  1  0.14424712  0.76722449  0.82712763  1
  H+  H33  1  0.39386931  0.78080893  0.83563592  1
  H+  H34  1  0.86733462  0.88544643  1.01152400  1
  H+  H35  1  1.03180205  0.38957450  0.33512629  1
  H+  H36  1  0.13601148  0.28265049  0.84446935  1
  H+  H37  1  0.15227183  0.87174700  0.65064913  1
  H+  H38  1  0.86306766  0.47854413  0.50348884  1
  H+  H39  1  0.15566951  0.63295140  0.99036875  1
  H+  H40  1  0.78450813  0.13820707  0.33304222  1
  H+  H41  1  0.11417420  0.13615622  0.49111509  1
  H+  H42  1  0.13307608  0.16427122  0.83527620  1
  H+  H43  1  -0.01961302  0.63492396  0.48053155  1
  H+  H44  1  0.12258626  0.39144311  0.33788431  1
  H+  H45  1  0.02439352  0.13748964  0.34287055  1
  H+  H46  1  -0.10902941  0.11503674  0.33464572  1
  H+  H47  1  0.10085205  0.07440447  0.97707612  1
  H+  H48  1  0.63906437  0.51893606  0.84851728  1
  H+  H49  1  0.94619981  0.52867061  0.54448303  1
  H+  H50  1  0.67204962  0.31534379  0.24330025  1
  H+  H51  1  0.33669986  0.42713070  0.06596104  1
  H+  H52  1  0.63872838  0.60456904  0.17892928  1
  H+  H53  1  0.72031191  0.11064096  0.16309257  1
  H+  H54  1  0.62521292  0.40648993  0.36827943  1
  H+  H55  1  0.61506469  0.88722278  0.34619520  1
  H+  H56  1  0.62140914  -0.02587636  0.82721832  1
  H+  H57  1  0.99973476  0.36668871  0.69555901  1
  H+  H58  1  0.06991068  0.43348245  0.06908724  1
  H+  H59  1  0.39480563  0.52055192  0.51540029  1
  H+  H60  1  0.89725047  0.53248977  0.99238402  1
  H+  H61  1  0.36590177  0.64031090  0.82497522  1
  H+  H62  1  0.09614836  0.67558599  0.06153018  1
  H+  H63  1  0.11721549  0.38837056  0.84171393  1
  H+  H64  1  0.47258889  0.10617012  0.33447693  1
  H+  H65  1  0.85519718  0.77489009  0.17667794  1
  H+  H66  1  0.89753597  0.24225852  0.69494889  1
  H+  H67  1  0.89038758  0.36205350  0.84473840  1
  H+  H68  1  0.36027868  0.39377255  0.00557323  1
  H+  H69  1  0.89306412  0.62162557  0.16504772  1
  H+  H70  1  0.88753255  0.10390115  0.18607942  1
  H+  H71  1  0.87423698  0.86361273  0.84504921  1
  H+  H72  1  -0.01094615  0.11412488  0.66130042  1
  H+  H73  1  0.60235402  0.21148213  0.33108113  1
  H+  H74  1  0.73278561  0.62119048  0.33089590  1
  H+  H75  1  0.25816726  0.86054110  0.48341820  1
  H+  H76  1  0.28615751  0.14581058  0.68178580  1
  H+  H77  1  -0.01211806  0.11931443  0.84589045  1
  H+  H78  1  0.27925517  0.86175583  0.16583647  1
  H+  H79  1  0.75504458  0.35532737  0.47545651  1
  H+  H80  1  0.13057963  0.17064035  0.02963225  1
  H+  H81  1  0.85886455  0.13035015  0.49462418  1
  H+  H82  1  0.91965812  0.83678375  0.94163620  1
  H+  H83  1  0.38842444  1.01017589  0.17732914  1
  H+  H84  1  0.35071112  0.46695430  0.67938616  1
  H+  H85  1  0.28164954  0.89113712  0.81568889  1
  H+  H86  1  0.88460288  0.28649626  0.16353257  1
  H+  H87  1  0.53541657  0.88716022  0.00291387  1
  H+  H88  1  0.49549480  0.38343582  0.17541916  1
  H+  H89  1  0.11917761  0.47570827  0.67236889  1
  H+  H90  1  0.61854529  0.39044266  0.83169418  1
  H+  H91  1  0.10945264  0.88125993  0.33222970  1
  H+  H92  1  0.63195093  0.04292323  0.50211488  1
  H+  H93  1  0.25875281  0.11243526  0.34706278  1
  H+  H94  1  0.25223506  0.14681195  0.84838528  1
  H+  H95  1  0.72108307  0.37719143  0.64725157  1
  H+  H96  1  0.27708127  0.39019304  0.35495120  1
  H+  H97  1  0.40034884  0.16362066  0.51075661  1
  H+  H98  1  0.88765386  0.78545824  0.50819433  1
  H+  H99  1  0.33360999  0.90702511  0.10297447  1
  H+  H100  1  -0.01979583  0.12047189  0.00291206  1
  H+  H101  1  0.84163341  0.72506291  0.83942495  1
  H+  H102  1  0.78572670  0.85102371  0.19800214  1
  H+  H103  1  0.63879470  0.37681251  0.99433393  1
  H+  H104  1  0.33668881  0.41877694  0.44698949  1
  H+  H105  1  0.85810145  0.47294271  0.14989841  1
  H+  H106  1  0.21992624  0.34452345  0.66636574  1
  H+  H107  1  0.84133510  0.42572135  0.90414304  1
  H+  H108  1  0.73019240  0.10621332  0.84049132  1
  H+  H109  1  0.27751815  0.64137011  0.82514393  1
  H+  H110  1  0.23214550  0.61072220  0.17007988  1
  H+  H111  1  0.89584138  0.27785239  0.32267449  1
  H+  H112  1  0.97807990  0.35993426  0.48032333  1
  H+  H113  1  0.11461249  0.22548035  0.49482197  1
  H+  H114  1  -0.01639991  0.12286406  0.18850149  1
  H+  H115  1  -0.00449499  0.87317936  0.66685620  1
  H+  H116  1  0.53392160  0.88014515  0.15579125  1
  H+  H117  1  0.22904337  0.38259014  0.99859009  1
  H+  H118  1  0.41918897  0.83003595  0.59545692  1
  H+  H119  1  0.11458167  0.37654676  0.48810084  1
  H+  H120  1  0.72151738  0.84992878  0.84064511  1
  H+  H121  1  0.29301784  0.65097133  0.00333379  1
  H+  H122  1  0.42004379  0.57851975  0.27521363  1
  H+  H123  1  0.39838663  0.77034090  0.50578360  1
  H+  H124  1  0.88883433  0.53772353  0.84568032  1
  H+  H125  1  0.38412653  0.52498053  0.83764311  1
  H+  H126  1  0.37358250  0.14079826  0.67860833  1
  H+  H127  1  0.73588136  0.62220705  0.99557990  1
  H+  H128  1  0.24055773  0.13191233  0.50293254  1
  H+  H129  1  0.38552274  0.28097043  0.99614935  1
  H+  H130  1  0.11767630  0.25030083  0.01918654  1
  H+  H131  1  0.27714579  0.88906618  1.00092358  1
  H+  H132  1  -0.10193821  0.53735141  0.31853535  1
  H+  H133  1  0.64426186  0.53469889  0.34092194  1
  H+  H134  1  0.88798474  0.83363584  0.23635435  1
  H+  H135  1  0.73172874  0.87914605  0.50812837  1
  H+  H136  1  0.85103776  0.20732492  0.99520135  1
  H+  H137  1  0.39472772  0.27706327  0.67412206  1
  H+  H138  1  0.22999089  0.36013989  0.51245563  1
  H+  H139  1  0.09927667  0.91330252  0.05141065  1
  H+  H140  1  0.45987062  0.60550714  0.68174327  1
  H+  H141  1  0.76712659  0.22342990  0.11105997  1
  H+  H142  1  0.86761515  0.89343523  0.50358994  1
  H+  H143  1  0.15052626  0.28811606  0.19005465  1
  H+  H144  1  0.48477485  0.37678590  0.84551792  1
  H+  H145  1  0.87040818  0.22166830  0.82755338  1
  H+  H146  1  0.07487844  0.97939946  0.83501559  1
  H+  H147  1  0.77332333  0.63588107  0.16334119  1
  H+  H148  1  0.11278088  0.14753735  0.17637628  1
  H+  H149  1  0.44044684  0.37112473  0.27553026  1
  H+  H150  1  -0.01375851  0.75246704  0.79636648  1
  H+  H151  1  0.12827473  0.00293133  0.99333124  1
  H+  H152  1  0.34970888  0.86428265  0.48729917  1
  H+  H153  1  0.13956449  0.86909123  0.98299689  1
  H+  H154  1  0.37842670  0.09456264  0.32993009  1
  H+  H155  1  0.10629527  0.77033129  0.49824123  1
  H+  H156  1  0.63974678  0.27454904  0.84295429  1
  H+  H157  1  0.61561554  0.88144131  0.82653598  1
  H+  H158  1  0.52730835  0.88951949  0.34063297  1
  H+  H159  1  0.64248456  0.50336358  0.55323036  1
  H+  H160  1  0.21686359  0.61509156  0.66615973  1
  H+  H161  1  0.58919019  0.68478378  0.43747527  1
  H+  H162  1  0.87461660  0.13449689  0.83386997  1
  H+  H163  1  0.52256119  0.12574787  0.16624176  1
  H+  H164  1  0.61648197  0.88575807  0.66866873  1
  H+  H165  1  0.38186999  0.63488715  0.49463382  1
  H+  H166  1  0.87472262  0.89170485  0.68327942  1
  H+  H167  1  0.77629963  0.88958924  0.35325662  1
  H+  H168  1  0.11296086  0.72874411  0.33369298  1
  H+  H169  1  0.60472529  0.71261838  0.80966350  1
  H+  H170  1  0.13249996  0.10952619  0.33199867  1
  H+  H171  1  0.60515920  0.36853293  0.50797303  1
  H+  H172  1  0.61560391  0.48332969  0.01065416  1
  H+  H173  1  0.14355707  1.00679387  0.65385552  1
  H+  H174  1  0.38469673  0.24020939  0.83297368  1
  H+  H175  1  0.49264342  0.39534053  0.33814760  1
  H+  H176  1  0.22544746  0.86042353  0.32328206  1
  H+  H177  1  0.64272959  0.13759619  0.50494422  1
  H+  H178  1  0.65000716  0.28423687  0.15695530  1
  H+  H179  1  0.64098175  0.85193489  -0.00562456  1
  H+  H180  1  0.58634851  0.91329549  0.72842842  1
  H+  H181  1  0.03714290  0.47331281  0.01429887  1
  H+  H182  1  0.33591152  0.19967240  0.44884276  1
  H+  H183  1  0.38912388  0.77943345  0.32573227  1
  H+  H184  1  0.86470008  0.73263993  0.33774825  1
  H+  H185  1  0.63198620  0.28598062  1.00102134  1
  H+  H186  1  0.90708681  0.35294309  0.67489322  1
  H+  H187  1  0.92000334  0.59287844  0.25668768  1
  H+  H188  1  0.43465622  0.12814625  0.56573374  1
  H+  H189  1  0.88598555  0.37400590  0.16736664  1
  H+  H190  1  0.25138953  0.59098459  0.52085547  1
  H+  H191  1  0.27355074  0.38846017  0.83397009  1
  H+  H192  1  0.85109725  0.36555404  0.47153332  1
  H+  H193  1  0.96355086  0.35227804  0.99262482  1
  H+  H194  1  0.39894898  0.86216027  0.16893656  1
  H+  H195  1  0.61775323  0.71559088  0.15914077  1
  H+  H196  1  0.38035923  0.64774402  1.00345141  1
  H+  H197  1  0.83938791  0.92448206  0.44356787  1
  H+  H198  1  0.64356600  0.61920561  -0.00323335  1
  H+  H199  1  0.23546556  0.86288497  0.65197745  1
  H+  H200  1  0.15776205  0.82357670  0.55820758  1
  H+  H201  1  0.39198080  0.61618419  0.17604051  1
  H+  H202  1  0.33850061  0.66311792  0.44012103  1
  H+  H203  1  0.09412748  0.57727782  0.51042220  1
  H+  H204  1  0.38015099  0.27540823  0.51767126  1
  H+  H205  1  0.40216349  0.12063189  0.84146147  1
  H+  H206  1  0.38310521  0.02765833  0.99606889  1
  H+  H207  1  0.36802739  0.89276901  0.00243571  1
  H+  H208  1  0.53405669  0.19197028  0.50379138  1
  H+  H209  1  0.63878580  0.73055888  0.65148408  1
  H+  H210  1  0.64694333  0.08890861  0.98780168  1
  H+  H211  1  0.98825908  0.62104773  0.99308623  1
  H+  H212  1  0.52316972  0.38219740  0.51529162  1
  H+  H213  1  0.84970791  0.64371689  0.49698560  1
  H+  H214  1  0.14206490  0.27752702  0.33420364  1
  H+  H215  1  0.37142521  0.89056195  0.66269833  1
  H+  H216  1  0.97276602  0.86432708  0.32365355  1
  H+  H217  1  0.26875918  0.14260381  1.01144925  1
  H+  H218  1  0.88940967  0.26775339  0.48032803  1
  H+  H219  1  0.12273536  0.73487792  0.00037183  1
  H+  H220  1  0.63950714  0.79221120  0.50549972  1
  H+  H221  1  0.98129308  0.61899505  0.16200555  1
  H+  H222  1  0.37669257  0.39926571  0.15750294  1
  H+  H223  1  0.12691204  0.61049648  0.32122252  1
  H+  H224  1  0.73067535  0.85341660  -0.00461002  1
  H+  H225  1  0.77200672  0.39094264  0.00299118  1
  H+  H226  1  0.62024797  0.72297673  1.01046793  1
  H+  H227  1  0.52536973  0.63920959  0.34203618  1
  H+  H228  1  0.63907312  0.77391430  0.33609205  1
  H+  H229  1  0.87046117  0.64519192  0.00732443  1
  H+  H230  1  0.61878458  0.14407109  0.67149862  1
  H+  H231  1  0.65263658  1.02421413  0.32523595  1
  H+  H232  1  0.91448370  0.77840670  0.66611264  1
  H+  H233  1  0.11066809  -0.03078493  0.83549314  1
  H+  H234  1  0.97588573  0.87264516  0.50576653  1
  H+  H235  1  0.33358745  0.67303487  0.73184310  1
  H+  H236  1  0.39683336  0.02897398  0.83709653  1
  H+  H237  1  0.87301505  0.73555496  0.00837943  1
  H+  H238  1  0.57106984  0.64178764  0.62369444  1
  H+  H239  1  0.76076258  0.38126252  0.15159991  1
  H+  H240  1  0.48550140  0.12286648  0.66300829  1
  H+  H241  1  0.89003986  0.02604646  0.51246962  1
  H+  H242  1  0.42947674  0.83534567  0.22956762  1
  H+  H243  1  0.97845755  0.11645395  0.50888739  1
  H+  H244  1  0.47880317  0.61150804  0.17691607  1
  H+  H245  1  0.37118018  0.89278230  0.81937689  1
  H+  H246  1  0.36963845  0.48408774  0.15884573  1
  H+  H247  1  0.52329034  0.38950147  0.68140688  1
  H+  H248  1  0.25277331  0.64723416  0.34591658  1
  H+  H249  1  0.11632181  0.48556009  0.83933554  1
  H+  H250  1  0.47204298  0.61220939  0.82697314  1
  H+  H251  1  0.62815221  0.47381857  0.16109195  1
  H+  H252  1  0.63494564  0.27044986  0.66794210  1
  H+  H253  1  0.63117607  0.38441740  0.15480825  1
  H+  H254  1  0.22081590  0.16938615  0.61558946  1
  H+  H255  1  0.14054507  0.38467876  0.99650226  1
  H+  H256  1  0.51357252  0.15947413  0.01804945  1
  H+  H257  1  0.36689575  0.38844092  0.50689766  1
  H+  H258  1  0.88665013  0.10974319  0.99646880  1
  H+  H259  1  0.37629642  0.61146103  0.66873786  1
  H+  H260  1  0.53419149  0.65297861  0.49801904  1
  H+  H261  1  0.39280551  0.53000921  0.99004713  1
  H+  H262  1  0.02568592  0.63576544  0.82063933  1
  H+  H263  1  0.14138592  0.13285159  0.66725331  1
  H+  H264  1  -0.03450450  0.90417536  0.15387497  1
  H+  H265  1  0.62707667  0.02686275  0.65605426  1
  H+  H266  1  0.35613250  0.14181196  0.00497432  1
  H+  H267  1  0.39795064  0.03265887  0.65521354  1
  H+  H268  1  0.03451063  0.80700082  0.15574914  1
  H+  H269  1  0.09535772  0.41725983  0.42850760  1
  H+  H270  1  0.76006955  0.11106984  -0.00567034  1
  H+  H271  1  0.88566230  0.86778661  0.33331729  1
  H+  H272  1  0.86401151  -0.01928204  0.83130680  1
  H+  H273  1  0.65959615  0.33246444  0.90422845  1
  H+  H274  1  0.61877991  0.90822459  0.49618419  1
  H+  H275  1  0.89119016  0.14117030  0.67640176  1
  H+  H276  1  0.47774065  0.85927462  0.65572540  1
  H+  H277  1  0.83363302  0.41735212  0.06150349  1
  H+  H278  1  -0.00721928  0.86746853  -0.00548353  1
  H+  H279  1  0.58469603  0.13921625  0.93214346  1
  H+  H280  1  0.06485191  0.57389946  0.48472942  1
  H+  H281  1  0.13125695  0.84618671  0.82227620  1
  H+  H282  1  0.36150069  0.72687409  0.66929579  1
  H+  H283  1  0.10552514  0.03079342  0.17450990  1
  H+  H284  1  0.39237696  0.86772312  0.32171275  1
  H+  H285  1  0.91892489  0.07932749  0.27752292  1
  H+  H286  1  0.62984425  -0.02873900  1.00030821  1
  H+  H287  1  0.08115656  0.65974298  0.75880894  1
  H+  H288  1  0.48418224  0.86847399  0.83488237  1
  H+  H289  1  0.16125021  0.50247326  0.51611365  1
  H+  H290  1  0.86563132  0.97942962  0.34984361  1
  H+  H291  1  0.39224043  0.52655646  0.33769388  1
  H+  H292  1  0.09428984  0.17927986  0.77332367  1
  H+  H293  1  0.69568670  0.35190547  0.31403154  1
  H+  H294  1  0.42324889  0.34407207  0.90446764  1
  H+  H295  1  0.17164290  0.83611747  0.92526691  1
  H+  H296  1  0.67597396  0.84289386  0.59544096  1
  H+  H297  1  0.57462043  0.18041284  0.07675772  1
  H+  H298  1  0.92582172  0.09002183  0.60130122  1
  H+  H299  1  0.83867352  0.67722681  0.43340794  1
  H+  H300  1  0.68157662  0.07625432  0.26274873  1
  H+  H301  1  0.38765828  0.36331452  0.67367485  1
  H+  H302  1  0.57827622  0.19105929  0.40098389  1
  H+  H303  1  0.59527366  0.17559349  0.73475922  1
  H+  H304  1  0.81154517  0.17571523  0.08047613  1
  H+  H305  1  0.41663316  0.08647009  0.93675429  1
  H+  H306  1  0.62335509  0.13820675  0.82831230  1
  H+  H307  1  0.68617406  0.84147781  0.28170292  1
  H+  H308  1  0.10991372  0.72674041  0.66769595  1
  H+  H309  1  0.17232107  0.59234175  0.89703464  1
  H+  H310  1  0.83810583  0.16970286  0.39537632  1
  H+  H311  1  0.35230426  0.17757414  0.77464241  1
  H+  H312  1  0.08038396  0.91011297  0.39333199  1
  H+  H313  1  0.86773797  0.64496626  0.33411394  1
  H+  H314  1  0.17023658  0.57201799  0.60530615  1
  H+  H315  1  0.04148609  0.67374306  0.42252010  1
  H+  H316  1  0.34303860  0.92197688  0.72171750  1
  H+  H317  1  0.27973721  0.72538268  0.38931608  1
  H+  H318  1  0.92825087  0.08693154  0.90596667  1
  H+  H319  1  0.67310833  0.07164361  0.90156160  1
  H+  H320  1  0.42045509  0.58170501  0.57347875  1
  H+  H321  1  0.58555431  0.92992578  0.43516020  1
  H+  H322  1  0.34484641  0.67177449  0.10120294  1
  H+  H323  1  0.83440175  0.92390851  0.77031233  1
  H+  H324  1  0.08435744  0.18682490  0.12116052  1
  H+  H325  1  0.85284026  0.15959767  0.74307080  1
  H+  H326  1  0.41779214  0.06809425  0.23787358  1
  H+  H327  1  0.84708915  0.42703294  0.39008673  1
  H+  H328  1  0.92815365  0.60331210  0.89894114  1
  H+  H329  1  0.66176211  0.81315218  0.89852172  1
  H+  H330  1  0.85289911  0.64103643  0.83547570  1
  H+  H331  1  0.12712682  0.01708091  0.32760357  1
  H+  H332  1  0.17333185  0.82086970  0.26209669  1
  H+  H333  1  0.47956426  0.86725256  0.50401215  1
  H+  H334  1  0.18303302  0.34278143  0.27737299  1
  H+  H335  1  0.18718568  0.10971918  0.90530548  1
  H+  H336  1  0.58889556  0.42140508  0.06976548  1
  H+  H337  1  -0.01367856  0.81972851  0.75095807  1
  H+  H338  1  0.41112482  0.29631445  0.18157445  1
  H+  H339  1  0.60954366  0.12350839  0.16085388  1
  H+  H340  1  0.83108150  0.67278606  0.10262980  1
  H+  H341  1  0.42625155  0.84208941  0.93063216  1
  H+  H342  1  0.53489517  0.13886815  0.82812069  1
  H+  H343  1  0.01298934  0.94355512  0.09175876  1
  H+  H344  1  0.32792036  0.89995953  0.39386504  1
  H+  H345  1  0.59195732  0.42616606  0.77326158  1
  H+  H346  1  0.86902427  0.34496286  0.59017553  1
  H+  H347  1  0.16463166  0.08035868  0.55456991  1
  H+  H348  1  0.22197348  0.76132422  0.21843735  1
  H+  H349  1  0.83181644  0.50000010  0.66468733  1
  H+  H350  1  0.02164702  0.64269401  0.32744146  1
  H+  H351  1  0.16367643  0.32337264  0.56799975  1
  H+  H352  1  0.80928673  0.62944578  0.64113556  1
  H+  H353  1  0.61790430  0.47272250  0.67191669  1
  H+  H354  1  0.32561755  0.40958557  0.73916379  1
  H+  H355  1  0.42606257  0.58916366  0.93002112  1
  H+  H356  1  0.65744096  0.09041513  0.59904950  1
  H+  H357  1  0.95567119  0.63614430  0.67716929  1
  H+  H358  1  0.05107731  0.08479849  0.71821025  1
  H+  H359  1  0.37130063  0.39957682  0.35271506  1
  H+  H360  1  0.36671771  0.18632656  0.10922028  1
  H+  H361  1  0.92399550  0.33690608  0.26245633  1
  H+  H362  1  0.29909703  0.09264731  0.40395253  1
  H+  H363  1  0.11194937  0.47902343  0.15100164  1
  H+  H364  1  0.91226531  0.38507879  0.58922933  1
  H+  H365  1  0.15652662  0.54480458  0.99071548  1
  H+  H366  1  0.77238733  0.38928822  0.85310004  1
  H+  H367  1  0.08422164  0.16790614  0.40152724  1
  H+  H368  1  0.15394446  0.08131170  0.23496710  1
  H+  H369  1  0.58162287  0.66096552  0.74743163  1
  H+  H370  1  0.72280431  0.40725524  0.34056400  1
  H+  H371  1  0.13182722  0.72340094  0.16019184  1
  H+  H372  1  0.67160447  0.57993055  0.23909006  1
  H+  H373  1  0.59232002  0.43162201  0.42687330  1
  H+  H374  1  0.58310728  0.65226649  0.10362448  1
  H+  H375  1  0.91642916  0.32567631  0.90028789  1
  H+  H376  1  0.59166943  0.91081818  0.09431919  1
  H+  H377  1  0.41849186  0.33781891  0.57798077  1
  H+  H378  1  0.13508963  0.52471185  0.32359312  1
  H+  H379  1  0.16850583  0.58031552  0.22737574  1
  H+  H380  1  0.12564681  0.95624991  0.71443278  1
  H+  H381  1  0.73422434  0.61661838  0.84698453  1
  H+  H382  1  0.16595723  0.34248002  0.90571986  1
  H+  H383  1  0.64820492  0.86063094  0.15592545  1
  O2-  O384  1  0.08422819  0.18344967  0.16587865  1
  O2-  O385  1  0.08064575  0.16500516  0.47932379  1
  O2-  O386  1  0.09401455  0.18552656  0.81870141  1
  O2-  O387  1  0.07512871  0.42339800  0.12933876  1
  O2-  O388  1  0.08975070  0.41217330  0.47391606  1
  O2-  O389  1  0.08455834  0.42035224  0.82874155  1
  O2-  O390  1  0.08936820  0.66663701  0.13572595  1
  O2-  O391  1  0.02398384  0.68844600  0.46155484  1
  O2-  O392  1  0.08519440  0.65947288  0.80461720  1
  O2-  O393  1  0.02304111  0.94024433  0.13481977  1
  O2-  O394  1  0.08422668  0.92159799  0.47105849  1
  O2-  O395  1  0.01299205  0.81416601  0.78957515  1
  O2-  O396  1  0.38592678  0.19887847  0.15159401  1
  O2-  O397  1  0.32897292  0.18866021  0.49264090  1
  O2-  O398  1  0.35548741  0.17865502  0.82009137  1
  O2-  O399  1  0.34230874  0.42476906  0.14092004  1
  O2-  O400  1  0.33527075  0.41848819  0.49299123  1
  O2-  O401  1  0.33231055  0.41714691  0.81632052  1
  O2-  O402  1  0.33977898  0.66782175  0.14632969  1
  O2-  O403  1  0.34952888  0.66528243  0.48438241  1
  O2-  O404  1  0.33752665  0.67308428  0.81017351  1
  O2-  O405  1  0.33949139  0.90459660  0.14760502  1
  O2-  O406  1  0.31677694  0.88698847  0.46584655  1
  O2-  O407  1  0.34268114  0.92400006  0.80237341  1
  O2-  O408  1  0.58169761  0.15692145  0.14823439  1
  O2-  O409  1  0.59749128  0.21397545  0.48634623  1
  O2-  O410  1  0.59565378  0.17109728  0.81284857  1
  O2-  O411  1  0.59651077  0.41595478  0.14240017  1
  O2-  O412  1  0.58678460  0.41265001  0.50625455  1
  O2-  O413  1  0.59209299  0.42578993  0.81874065  1
  O2-  O414  1  0.58295405  0.65322795  0.14910803  1
  O2-  O415  1  0.59218800  0.69320105  0.48233496  1
  O2-  O416  1  0.56639728  0.65603120  0.79061400  1
  O2-  O417  1  0.59444285  0.90942023  0.14021869  1
  O2-  O418  1  0.58485282  0.93459551  0.48074763  1
  O2-  O419  1  0.58896135  0.91424166  0.80994814  1
  O2-  O420  1  0.80074248  0.19622456  0.12146819  1
  O2-  O421  1  0.83040796  0.15908995  0.47427477  1
  O2-  O422  1  0.84278741  0.16094128  0.81377130  1
  O2-  O423  1  0.83006340  0.41336700  0.13428781  1
  O2-  O424  1  0.81639886  0.39540898  0.46420088  1
  O2-  O425  1  0.83677354  0.42273440  0.85976721  1
  O2-  O426  1  0.83344465  0.67402428  0.14786729  1
  O2-  O427  1  0.83475003  0.68338040  0.47806364  1
  O2-  O428  1  0.81496561  0.66433240  0.82363619  1
  O2-  O429  1  0.73970771  0.86607931  0.20807306  1
  O2-  O430  1  0.83779422  0.92605100  0.48910710  1
  O2-  O431  1  0.83135352  0.92067600  0.81563791  1
  O2-  O432  1  0.14902006  0.08767761  0.19049189  1
  O2-  O433  1  0.17195072  0.08880295  0.51053927  1
  O2-  O434  1  0.19532244  0.13452160  0.86394785  1
  O2-  O435  1  0.18675585  0.34736460  0.20616934  1
  O2-  O436  1  0.16706915  0.32638004  0.52286950  1
  O2-  O437  1  0.16526436  0.34424348  0.86014931  1
  O2-  O438  1  0.17028330  0.57835088  0.18204232  1
  O2-  O439  1  0.20288603  0.54636207  0.54477736  1
  O2-  O440  1  0.16593558  0.58100064  0.85199024  1
  O2-  O441  1  0.19835065  0.79359108  0.19868499  1
  O2-  O442  1  0.15403988  0.82692301  0.51338254  1
  O2-  O443  1  0.17126728  0.82912198  0.83886568  1
  O2-  O444  1  0.42038966  0.07056866  0.19237372  1
  O2-  O445  1  0.44477034  0.14660580  0.52281801  1
  O2-  O446  1  0.43023741  0.08738834  0.85536563  1
  O2-  O447  1  0.43597620  0.35855549  0.19218101  1
  O2-  O448  1  0.41928563  0.33953761  0.53295273  1
  O2-  O449  1  0.42357367  0.34461260  0.85864511  1
  O2-  O450  1  0.41819992  0.58231404  0.19159772  1
  O2-  O451  1  0.42765723  0.58250106  0.52895228  1
  O2-  O452  1  0.41595854  0.58683719  0.84965039  1
  O2-  O453  1  0.43066596  0.83246272  0.18413516  1
  O2-  O454  1  0.41986122  0.83059709  0.52007282  1
  O2-  O455  1  0.42339080  0.84157158  0.84994695  1
  O2-  O456  1  0.66558543  0.07212340  0.18444176  1
  O2-  O457  1  0.66726219  0.10219556  0.51908230  1
  O2-  O458  1  0.66986844  0.07682839  0.85455055  1
  O2-  O459  1  0.68081078  0.34348396  0.17231685  1
  O2-  O460  1  0.64976765  0.30016346  0.50347861  1
  O2-  O461  1  0.66532522  0.33505137  0.85830101  1
  O2-  O462  1  0.67398602  0.57946391  0.19358669  1
  O2-  O463  1  0.67518884  0.56569416  0.56571059  1
  O2-  O464  1  0.66929751  0.58002034  0.86527746  1
  O2-  O465  1  0.67864059  0.82575407  0.15849413  1
  O2-  O466  1  0.67071217  0.85292119  0.52255090  1
  O2-  O467  1  0.66045745  0.81484968  0.85306271  1
  O2-  O468  1  0.92330256  0.08265560  0.20302677  1
  O2-  O469  1  0.91937343  0.08778716  0.52712841  1
  O2-  O470  1  0.92693291  0.08694702  0.86011583  1
  O2-  O471  1  0.91850493  0.34440021  0.18183039  1
  O2-  O472  1  0.91442770  0.33102489  0.48236041  1
  O2-  O473  1  0.92237218  0.33152815  0.85449458  1
  O2-  O474  1  0.92128235  0.58859046  0.17813531  1
  O2-  O475  1  0.89488442  0.53012923  0.53219311  1
  O2-  O476  1  0.92213803  0.60064456  0.85345723  1
  O2-  O477  1  0.86926053  0.83237372  0.19311794  1
  O2-  O478  1  0.91807163  0.84540771  0.52455984  1
  O2-  O479  1  0.89619467  0.82647926  0.86247768  1
  O2-  O480  1  0.16185150  0.07885651  0.31555304  1
  O2-  O481  1  0.18971877  0.12115282  0.64329417  1
  O2-  O482  1  0.15307549  0.07144651  0.98226294  1
  O2-  O483  1  0.17557270  0.33979646  0.32359086  1
  O2-  O484  1  0.16051245  0.31508192  0.64901657  1
  O2-  O485  1  0.16741471  0.35130279  0.98360940  1
  O2-  O486  1  0.16267933  0.58500906  0.30726159  1
  O2-  O487  1  0.15801417  0.58257402  0.64867627  1
  O2-  O488  1  0.18706681  0.60366790  0.97350026  1
  O2-  O489  1  0.16543328  0.83134660  0.30701532  1
  O2-  O490  1  0.17327254  0.83202982  0.63993034  1
  O2-  O491  1  0.17110613  0.83664528  0.97016936  1
  O2-  O492  1  0.41341646  0.06916407  0.31541969  1
  O2-  O493  1  0.42563555  0.09563176  0.64706032  1
  O2-  O494  1  0.40852287  0.08824938  0.98137311  1
  O2-  O495  1  0.43467681  0.37001239  0.32041461  1
  O2-  O496  1  0.42362079  0.33826463  0.65993293  1
  O2-  O497  1  0.41631529  0.34203467  0.98124580  1
  O2-  O498  1  0.42621566  0.58510413  0.31991608  1
  O2-  O499  1  0.40620885  0.57763001  0.65878953  1
  O2-  O500  1  0.42761780  0.59067901  0.97545196  1
  O2-  O501  1  0.42472396  0.83760395  0.30827341  1
  O2-  O502  1  0.41679777  0.82991343  0.64136402  1
  O2-  O503  1  0.42753420  0.84423616  0.97599661  1
  O2-  O504  1  0.69148094  0.08127522  0.30733609  1
  O2-  O505  1  0.65402614  0.08799655  0.64423825  1
  O2-  O506  1  0.67857067  0.06247072  0.97137479  1
  O2-  O507  1  0.66869773  0.29722545  0.28770691  1
  O2-  O508  1  0.65517584  0.33244983  0.65121540  1
  O2-  O509  1  0.66692124  0.34384550  0.97950469  1
  O2-  O510  1  0.67092342  0.58949943  0.31760562  1
  O2-  O511  1  0.68609158  0.56768210  0.63229369  1
  O2-  O512  1  0.67491137  0.58955221  0.98024631  1
  O2-  O513  1  0.67260065  0.83740220  0.32560859  1
  O2-  O514  1  0.67466170  0.83320719  0.64118492  1
  O2-  O515  1  0.66950221  0.81931039  0.97998005  1
  O2-  O516  1  0.91912571  0.08045324  0.32341424  1
  O2-  O517  1  0.92692563  0.08880139  0.64753828  1
  O2-  O518  1  0.92409975  0.08567166  0.98261111  1
  O2-  O519  1  0.92885195  0.33853076  0.30761214  1
  O2-  O520  1  0.93352627  0.33047213  0.70244332  1
  O2-  O521  1  0.90494065  0.32202214  0.97458073  1
  O2-  O522  1  0.92152308  0.59751778  0.30212631  1
  O2-  O523  1  0.89414365  0.61578010  0.68694049  1
  O2-  O524  1  0.92777228  0.59275168  0.97721274  1
  O2-  O525  1  0.91068908  0.83607205  0.31177367  1
  O2-  O526  1  0.93992829  0.83508934  0.68671665  1
  O2-  O527  1  0.92725682  0.83662966  0.98635630  1
  O2-  O528  1  0.08995121  0.19095835  0.03650389  1
  O2-  O529  1  0.08623490  0.16840734  0.35602093  1
  O2-  O530  1  0.07943040  0.14059671  0.69791012  1
  O2-  O531  1  0.06619180  0.44002622  0.01893111  1
  O2-  O532  1  0.09208554  0.42312838  0.35100787  1
  O2-  O533  1  0.09510630  0.41723102  0.69042221  1
  O2-  O534  1  0.09563701  0.67385760  0.01523684  1
  O2-  O535  1  0.07958963  0.66718307  0.34770354  1
  O2-  O536  1  0.07325137  0.66662947  0.68266041  1
  O2-  O537  1  0.09154350  0.91579999  0.00773406  1
  O2-  O538  1  0.07753634  0.90983169  0.34776140  1
  O2-  O539  1  0.11637404  0.94768219  0.67071337  1
  O2-  O540  1  0.33053024  0.17613735  0.02103463  1
  O2-  O541  1  0.31486776  0.12802547  0.36741624  1
  O2-  O542  1  0.34606960  0.17237240  0.69745359  1
  O2-  O543  1  0.33195143  0.42640519  0.01990165  1
  O2-  O544  1  0.33643461  0.42315433  0.37228389  1
  O2-  O545  1  0.32428668  0.40633445  0.69359079  1
  O2-  O546  1  0.35232103  0.67955377  0.02013389  1
  O2-  O547  1  0.30244190  0.69132792  0.37112470  1
  O2-  O548  1  0.32961319  0.66714583  0.68655252  1
  O2-  O549  1  0.33593021  0.92026079  0.01901571  1
  O2-  O550  1  0.33221837  0.90508724  0.34784508  1
  O2-  O551  1  0.34165762  0.92236920  0.67630706  1
  O2-  O552  1  0.57237351  0.19701247  0.03356021  1
  O2-  O553  1  0.56556613  0.16494503  0.36039857  1
  O2-  O554  1  0.59368796  0.17997533  0.68931952  1
  O2-  O555  1  0.58325878  0.42223279  0.02347708  1
  O2-  O556  1  0.59549907  0.43694420  0.38145099  1
  O2-  O557  1  0.58582538  0.41728446  0.69444526  1
  O2-  O558  1  0.58947678  0.66102954  0.02479077  1
  O2-  O559  1  0.58704740  0.67402804  0.35704644  1
  O2-  O560  1  0.61075081  0.66582137  0.65786006  1
  O2-  O561  1  0.59473129  0.91044802  0.01898705  1
  O2-  O562  1  0.58598443  0.91969437  0.35897661  1
  O2-  O563  1  0.58342105  0.91319440  0.68312814  1
  O2-  O564  1  0.82464662  0.15012436  0.01455808  1
  O2-  O565  1  0.84521373  0.17369567  0.35036887  1
  O2-  O566  1  0.86300542  0.17276877  0.69738886  1
  O2-  O567  1  0.83441813  0.41753670  0.01446924  1
  O2-  O568  1  0.86879030  0.44399331  0.34781707  1
  O2-  O569  1  0.81094805  0.44694648  0.64032389  1
  O2-  O570  1  0.83792661  0.67319302  0.02137241  1
  O2-  O571  1  0.83622855  0.67200422  0.35293875  1
  O2-  O572  1  0.87306129  0.66537315  0.64368518  1
  O2-  O573  1  0.83051690  0.91009791  0.02249689  1
  O2-  O574  1  0.83787910  0.91915970  0.36631658  1
  O2-  O575  1  0.84095496  0.92070209  0.69053814  1
