# generated using pymatgen
data_H2O
_symmetry_space_group_name_H-M   'P 1'
_cell_length_a   17.95420852
_cell_length_b   17.95340564
_cell_length_c   21.94923852
_cell_angle_alpha   89.98630982
_cell_angle_beta   90.03614143
_cell_angle_gamma   119.96930789
_symmetry_Int_Tables_number   1
_chemical_formula_structural   H2O
_chemical_formula_sum   'H384 O192'
_cell_volume   6129.10897104
_cell_formula_units_Z   192
loop_
 _symmetry_equiv_pos_site_id
 _symmetry_equiv_pos_as_xyz
  1  'x, y, z'
loop_
 _atom_type_symbol
 _atom_type_oxidation_number
  H+  1.0
  O2-  -2.0
loop_
 _atom_site_type_symbol
 _atom_site_label
 _atom_site_symmetry_multiplicity
 _atom_site_fract_x
 _atom_site_fract_y
 _atom_site_fract_z
 _atom_site_occupancy
  H+  H0  1  0.39209669  0.77235038  0.83893499  1
  H+  H1  1  0.11274554  0.88111631  0.67722586  1
  H+  H2  1  0.69515776  0.09395566  0.49497400  1
  H+  H3  1  0.96825650  0.60052707  0.82915544  1
  H+  H4  1  0.89897001  1.00829384  0.52643834  1
  H+  H5  1  0.62409371  0.66424318  0.34078552  1
  H+  H6  1  0.36513766  0.22649935  1.00572114  1
  H+  H7  1  0.11425485  0.21525920  0.67419158  1
  H+  H8  1  0.39198597  0.64241459  0.32564574  1
  H+  H9  1  0.38750347  0.77705683  0.98760273  1
  H+  H10  1  0.15633090  0.88213764  0.30110447  1
  H+  H11  1  0.27386869  0.89685198  0.47934817  1
  H+  H12  1  0.78197267  0.87641468  0.69385428  1
  H+  H13  1  0.88390126  0.85072372  0.67575542  1
  H+  H14  1  0.15328325  0.86250456  0.85286705  1
  H+  H15  1  0.62255856  0.88208873  0.67779317  1
  H+  H16  1  -0.05468199  0.32674867  0.71622900  1
  H+  H17  1  0.90059789  0.37817457  0.50542584  1
  H+  H18  1  0.35571412  0.13371603  0.99922253  1
  H+  H19  1  0.88367274  0.90777722  0.34239137  1
  H+  H20  1  0.50291204  0.41348630  0.49849719  1
  H+  H21  1  0.61941571  0.77829856  0.32500684  1
  H+  H22  1  0.26461553  0.63700892  0.50046607  1
  H+  H23  1  1.01941220  0.87207169  0.68053808  1
  H+  H24  1  0.59999993  0.23023370  0.49313742  1
  H+  H25  1  0.75616672  0.62469948  0.99110203  1
  H+  H26  1  0.12035365  1.00207579  0.15327187  1
  H+  H27  1  0.08892235  0.91628260  0.07052259  1
  H+  H28  1  0.85931446  0.48296196  0.17797700  1
  H+  H29  1  0.16639369  0.12061821  0.85510137  1
  H+  H30  1  0.62476616  0.60796897  0.98357308  1
  H+  H31  1  0.35500025  0.89192151  0.15447707  1
  H+  H32  1  0.12465027  0.47531461  0.00229899  1
  H+  H33  1  0.63440481  0.11903996  0.97815605  1
  H+  H34  1  0.98842987  0.62769310  0.49997522  1
  H+  H35  1  0.08831786  0.10476308  0.15884660  1
  H+  H36  1  -0.08111969  0.30074611  0.52394028  1
  H+  H37  1  0.78788120  0.46094670  1.05198157  1
  H+  H38  1  0.11705139  0.74195574  0.33615874  1
  H+  H39  1  0.08972986  0.41561280  0.77021398  1
  H+  H40  1  0.72337524  0.38970873  0.33516034  1
  H+  H41  1  0.84453190  0.40176768  0.21548753  1
  H+  H42  1  0.63471779  1.01409381  0.65702542  1
  H+  H43  1  0.16092435  0.68102263  0.24267088  1
  H+  H44  1  0.88384258  0.36018674  0.83897907  1
  H+  H45  1  0.52418883  0.64623631  0.15342617  1
  H+  H46  1  0.87948857  0.24882478  0.67787761  1
  H+  H47  1  0.48043399  0.64222868  0.32546446  1
  H+  H48  1  0.90770850  0.33875426  1.00917313  1
  H+  H49  1  0.23024182  0.35461800  0.65336185  1
  H+  H50  1  0.51990904  0.39546934  0.82553380  1
  H+  H51  1  0.72127450  0.82679542  0.86420834  1
  H+  H52  1  0.62089269  0.28159392  0.19111034  1
  H+  H53  1  0.63227939  0.76524365  -0.04156223  1
  H+  H54  1  0.23551852  0.11746999  0.95749799  1
  H+  H55  1  1.00184143  0.33061177  0.18722698  1
  H+  H56  1  0.76354366  0.13932230  0.16587985  1
  H+  H57  1  0.96693016  0.86353825  0.11706782  1
  H+  H58  1  0.61421251  0.64779969  0.15297646  1
  H+  H59  1  0.22404563  0.11684954  0.36977899  1
  H+  H60  1  0.68590633  0.91870505  0.54459210  1
  H+  H61  1  0.12230285  0.73300319  -0.00070552  1
  H+  H62  1  0.62748471  0.35830425  0.82017522  1
  H+  H63  1  0.22033971  0.85876644  0.15447594  1
  H+  H64  1  0.83391710  0.91342386  0.44602581  1
  H+  H65  1  -0.00573059  0.43194209  0.58597744  1
  H+  H66  1  0.23270478  0.85942481  0.30831121  1
  H+  H67  1  0.11490370  0.65302641  0.35107813  1
  H+  H68  1  0.84145208  0.82632336  0.87239434  1
  H+  H69  1  0.95783403  0.09805841  0.17111166  1
  H+  H70  1  0.27443545  0.63407406  0.83112518  1
  H+  H71  1  0.26259411  0.11038044  0.68750947  1
  H+  H72  1  0.34427209  0.22236046  0.15741251  1
  H+  H73  1  0.36226142  0.74082247  0.15716007  1
  H+  H74  1  0.48081968  0.60442835  0.65920840  1
  H+  H75  1  0.28023039  0.88305053  0.83403318  1
  H+  H76  1  0.86529979  0.47983007  0.49233305  1
  H+  H77  1  0.91805332  0.33021842  0.89691479  1
  H+  H78  1  0.32173815  0.17276796  0.50857773  1
  H+  H79  1  0.11928344  0.98363503  0.25246723  1
  H+  H80  1  0.51499287  0.89613704  0.01338723  1
  H+  H81  1  0.87032518  0.48960821  0.33770603  1
  H+  H82  1  0.63012097  0.51866527  0.98699344  1
  H+  H83  1  0.86106686  0.21026830  1.00054872  1
  H+  H84  1  0.14143168  0.36167626  0.84177200  1
  H+  H85  1  0.51758063  0.38003359  0.66892614  1
  H+  H86  1  0.37766243  0.63544858  0.67939028  1
  H+  H87  1  0.52244738  0.66197940  0.49351084  1
  H+  H88  1  0.76879858  0.13182693  0.82875610  1
  H+  H89  1  0.37800223  0.13661220  0.82972298  1
  H+  H90  1  0.85279241  0.36267217  0.68391174  1
  H+  H91  1  0.61214018  0.63126738  0.68187593  1
  H+  H92  1  0.39251046  0.84018315  0.23596636  1
  H+  H93  1  0.77455659  0.72326913  0.53828622  1
  H+  H94  1  0.11194665  0.21828402  1.00604794  1
  H+  H95  1  0.10922686  0.37544840  0.33939958  1
  H+  H96  1  0.61147130  0.22006567  0.81582393  1
  H+  H97  1  0.48137667  0.86032253  0.67103060  1
  H+  H98  1  0.37127351  0.02215482  0.16772043  1
  H+  H99  1  0.36716510  0.10906816  0.17469441  1
  H+  H100  1  0.77222624  0.62752997  0.67689466  1
  H+  H101  1  0.37766714  0.39251496  1.01628727  1
  H+  H102  1  0.14067163  0.79742018  0.50270132  1
  H+  H103  1  0.59167539  0.85729027  0.32040709  1
  H+  H104  1  0.58333095  0.95761211  0.48518933  1
  H+  H105  1  0.97718250  0.36898652  0.33915485  1
  H+  H106  1  0.83338494  0.82197804  0.51615804  1
  H+  H107  1  0.83306453  0.85897898  0.80513115  1
  H+  H108  1  0.88519536  0.11413198  0.83781098  1
  H+  H109  1  0.12427695  0.17016547  0.77408505  1
  H+  H110  1  0.38174450  0.62276954  0.50774430  1
  H+  H111  1  0.61365799  0.71916978  0.67399519  1
  H+  H112  1  0.59714327  0.89288478  0.16436309  1
  H+  H113  1  0.76741255  0.62225945  0.82681498  1
  H+  H114  1  0.39495216  0.63233695  0.16809270  1
  H+  H115  1  0.88484700  0.74875236  0.33307123  1
  H+  H116  1  0.76530423  0.88847109  0.50194179  1
  H+  H117  1  0.59871149  0.23936712  0.97854171  1
  H+  H118  1  0.25760281  0.22610676  0.57955258  1
  H+  H119  1  0.07195471  0.15430038  0.06362073  1
  H+  H120  1  0.20345083  0.09117704  0.17056499  1
  H+  H121  1  0.59260172  0.87464298  0.48954793  1
  H+  H122  1  0.16583046  0.83560947  1.04120888  1
  H+  H123  1  0.12136939  0.88264794  -0.01297931  1
  H+  H124  1  -0.00984995  0.63382753  0.64838607  1
  H+  H125  1  0.79867541  0.93737216  0.05512107  1
  H+  H126  1  0.46818741  0.37841094  0.32862171  1
  H+  H127  1  0.31614381  0.16202882  0.09836355  1
  H+  H128  1  0.13327783  0.37627896  0.15185612  1
  H+  H129  1  0.39411236  0.86300465  0.83513870  1
  H+  H130  1  0.89707903  0.03254250  0.83341376  1
  H+  H131  1  0.10307322  0.87520187  0.13240374  1
  H+  H132  1  0.79102959  0.34063680  -0.01894632  1
  H+  H133  1  0.74796266  0.77268803  0.02008762  1
  H+  H134  1  0.99132390  0.11471111  0.98987313  1
  H+  H135  1  0.63481147  0.64382482  0.51378137  1
  H+  H136  1  0.76714940  0.11600750  0.67274214  1
  H+  H137  1  0.09894147  0.62203486  0.82301250  1
  H+  H138  1  0.13273776  0.09910014  0.67498896  1
  H+  H139  1  0.63522967  0.52193775  0.65898933  1
  H+  H140  1  0.59872211  0.13965651  0.49519601  1
  H+  H141  1  0.87761623  0.65560927  0.32848809  1
  H+  H142  1  0.86147756  0.71715969  0.68100791  1
  H+  H143  1  0.83299341  0.47770451  0.06361145  1
  H+  H144  1  0.12259245  0.74752162  0.66886131  1
  H+  H145  1  0.11443825  0.64668679  0.24501380  1
  H+  H146  1  0.62952354  0.11684964  0.19215494  1
  H+  H147  1  0.39488086  0.76851272  0.67385246  1
  H+  H148  1  0.60718337  0.71699959  0.83810549  1
  H+  H149  1  0.35338717  0.72697175  0.50827086  1
  H+  H150  1  0.22701896  0.66179768  0.62832657  1
  H+  H151  1  0.47860224  0.87011959  0.33566670  1
  H+  H152  1  0.09704212  0.19714142  0.16247057  1
  H+  H153  1  0.35023678  0.23097069  0.34690410  1
  H+  H154  1  0.62493753  0.41708348  0.49131048  1
  H+  H155  1  0.39029801  0.27004185  0.49402342  1
  H+  H156  1  0.87886455  0.03229583  0.98798743  1
  H+  H157  1  0.17854301  0.49304054  0.69241707  1
  H+  H158  1  0.60135656  0.39450587  0.16436879  1
  H+  H159  1  0.71206754  0.36941795  0.18630051  1
  H+  H160  1  0.79661717  0.90942982  0.34272457  1
  H+  H161  1  0.49748969  0.37334467  0.00543028  1
  H+  H162  1  0.63777389  0.01780831  0.83656613  1
  H+  H163  1  0.65516758  0.56703091  0.50900501  1
  H+  H164  1  0.62264820  0.37817525  0.98624174  1
  H+  H165  1  0.82125150  0.14446066  0.73585494  1
  H+  H166  1  0.13724646  0.52032573  0.83997944  1
  H+  H167  1  0.65135631  0.07012250  0.56100776  1
  H+  H168  1  0.63376579  0.53431821  0.17215715  1
  H+  H169  1  0.87091314  -0.03701728  0.69836199  1
  H+  H170  1  0.28065016  0.64698315  0.14529117  1
  H+  H171  1  0.45558741  0.84908057  0.51536098  1
  H+  H172  1  0.62444206  0.77432608  0.17021206  1
  H+  H173  1  0.63226617  0.35415566  0.65727389  1
  H+  H174  1  0.85063839  0.63232013  -0.01131444  1
  H+  H175  1  0.61485077  0.13166034  0.81978274  1
  H+  H176  1  0.84425096  0.88612644  0.13131423  1
  H+  H177  1  0.38254172  0.37111232  0.17334397  1
  H+  H178  1  0.35976330  0.49656487  0.48567535  1
  H+  H179  1  0.13156777  0.52603263  0.49431267  1
  H+  H180  1  0.08984492  0.90898605  0.78244130  1
  H+  H181  1  0.35964206  0.38230395  0.82035046  1
  H+  H182  1  0.36451102  0.87979667  0.67863527  1
  H+  H183  1  0.38618856  0.51687882  0.83438281  1
  H+  H184  1  0.37400201  0.25924544  0.84895135  1
  H+  H185  1  0.98975626  0.88451243  -0.01987930  1
  H+  H186  1  1.03065313  0.64396239  0.99084173  1
  H+  H187  1  0.36874455  0.97239904  0.82518586  1
  H+  H188  1  0.46541072  0.11138019  -0.01591414  1
  H+  H189  1  0.33387967  0.15240276  0.74049924  1
  H+  H190  1  0.89113039  0.63748703  0.48700547  1
  H+  H191  1  0.72179185  0.36564912  0.50137388  1
  H+  H192  1  0.37186726  0.49931591  0.16478450  1
  H+  H193  1  0.14599044  0.36211531  0.65593848  1
  H+  H194  1  0.90294998  0.84117795  0.06294519  1
  H+  H195  1  0.89128513  0.53747700  0.98566216  1
  H+  H196  1  0.76672868  0.38046480  0.82357320  1
  H+  H197  1  1.00040835  0.89396024  0.30088053  1
  H+  H198  1  0.87466341  0.23617749  0.37278566  1
  H+  H199  1  0.86428992  0.21227775  0.17353476  1
  H+  H200  1  0.12512788  0.66108962  0.67079835  1
  H+  H201  1  0.20688724  0.33509949  0.33090772  1
  H+  H202  1  0.85857468  0.22219047  0.82653695  1
  H+  H203  1  0.35365794  0.36418456  0.66396795  1
  H+  H204  1  0.76421075  0.30630112  1.00399645  1
  H+  H205  1  0.98309063  0.62885635  0.32160845  1
  H+  H206  1  0.84444773  -0.02926765  0.15605199  1
  H+  H207  1  0.02224129  0.38180567  0.82645280  1
  H+  H208  1  0.33636023  0.37109599  0.33579521  1
  H+  H209  1  0.23036275  0.61388006  0.99083652  1
  H+  H210  1  0.12305798  -0.03218284  0.84098687  1
  H+  H211  1  0.86113222  0.61412562  0.82533291  1
  H+  H212  1  0.50178852  0.13590997  0.18530684  1
  H+  H213  1  0.15104744  0.89245728  0.50087791  1
  H+  H214  1  0.87002070  0.10217530  0.17038285  1
  H+  H215  1  0.34381174  0.74116027  0.34866340  1
  H+  H216  1  0.37992446  0.09567151  0.65805258  1
  H+  H217  1  0.22231741  0.27925447  0.19719191  1
  H+  H218  1  0.28711966  0.13053558  0.83858218  1
  H+  H219  1  0.85730555  0.72630051  0.12905131  1
  H+  H220  1  0.39797191  0.27240813  0.59380999  1
  H+  H221  1  0.61158903  1.00425640  0.33014845  1
  H+  H222  1  0.38075342  1.00658025  0.49378461  1
  H+  H223  1  0.12094706  0.45841822  0.15010287  1
  H+  H224  1  0.61090194  0.48194721  0.82312656  1
  H+  H225  1  0.72525914  0.78357391  0.62435638  1
  H+  H226  1  0.13338748  0.11315026  0.36681589  1
  H+  H227  1  0.82883463  0.65071710  0.76288564  1
  H+  H228  1  0.38365083  0.00882425  0.65871250  1
  H+  H229  1  0.76930007  0.37202722  0.67451978  1
  H+  H230  1  0.17949880  0.33667629  0.90016133  1
  H+  H231  1  0.36291324  0.63129925  0.83458809  1
  H+  H232  1  0.97592675  0.61395589  0.15962529  1
  H+  H233  1  0.88250645  0.15350467  0.36564645  1
  H+  H234  1  0.12134832  0.47218074  0.34698091  1
  H+  H235  1  1.02687298  0.12706522  0.68744460  1
  H+  H236  1  0.13949901  0.61135604  -0.01056016  1
  H+  H237  1  0.08651804  0.45274364  0.66322414  1
  H+  H238  1  0.14302169  0.37721564  0.50395248  1
  H+  H239  1  0.85533504  0.74968689  -0.03805826  1
  H+  H240  1  0.47238863  0.11019811  0.50471739  1
  H+  H241  1  0.47563420  0.60540199  0.83997442  1
  H+  H242  1  0.52841073  0.87979035  0.82837421  1
  H+  H243  1  0.12625248  1.00447834  0.67533201  1
  H+  H244  1  0.46642874  0.07862721  0.32675154  1
  H+  H245  1  0.36784038  0.41277201  0.48323496  1
  H+  H246  1  0.88665483  0.09154767  0.67555783  1
  H+  H247  1  0.22971161  0.62133347  0.35253514  1
  H+  H248  1  0.24226578  0.38500159  0.50280335  1
  H+  H249  1  0.91029730  1.05051861  0.33156453  1
  H+  H250  1  0.39276884  0.51444525  0.65362638  1
  H+  H251  1  0.64190079  0.61400469  0.83560563  1
  H+  H252  1  0.11149893  0.71398603  0.14313619  1
  H+  H253  1  0.92601897  0.59919364  0.56016343  1
  H+  H254  1  0.13146114  0.59871619  0.14346213  1
  H+  H255  1  0.35740549  0.23005749  0.65788578  1
  H+  H256  1  0.11433502  0.65112829  0.49029363  1
  H+  H257  1  0.60817325  0.50146615  0.34071551  1
  H+  H258  1  0.32655543  0.29376180  0.88950268  1
  H+  H259  1  0.66260412  0.45576046  0.04554667  1
  H+  H260  1  0.46318202  0.87274689  0.18083991  1
  H+  H261  1  0.48222075  0.10925304  0.83515704  1
  H+  H262  1  0.73572912  0.63857562  0.32265156  1
  H+  H263  1  0.99442540  0.35200966  0.98508292  1
  H+  H264  1  0.23523161  0.87174116  0.65842400  1
  H+  H265  1  0.15334413  0.23559927  0.83005498  1
  H+  H266  1  0.72097731  0.11381594  -0.01178224  1
  H+  H267  1  0.84481061  0.15909775  0.53165350  1
  H+  H268  1  0.75712309  0.91073721  -0.01202059  1
  H+  H269  1  0.16503502  0.29870979  0.24131739  1
  H+  H270  1  -0.00555143  0.49986679  0.63112730  1
  H+  H271  1  0.60327631  0.98426644  0.01348852  1
  H+  H272  1  0.85872133  0.71834329  0.49018997  1
  H+  H273  1  0.59695835  0.11640062  0.34296985  1
  H+  H274  1  0.38718377  0.52132210  0.99415412  1
  H+  H275  1  0.51915785  0.12490032  0.66497172  1
  H+  H276  1  0.12646748  0.98892619  0.43755739  1
  H+  H277  1  0.03495617  0.39484160  0.49230653  1
  H+  H278  1  0.27447972  0.38773775  0.81955180  1
  H+  H279  1  0.27094417  0.88540830  0.00154538  1
  H+  H280  1  0.20453914  0.62493031  0.65048683  1
  H+  H281  1  0.60920407  0.75375822  0.49788528  1
  H+  H282  1  0.23674033  0.35705000  -0.00467557  1
  H+  H283  1  0.73812174  0.77655436  0.05255904  1
  H+  H284  1  0.88874271  0.61969189  0.16046420  1
  H+  H285  1  0.36401820  0.88998461  -0.00185894  1
  H+  H286  1  0.46499567  0.36186853  0.17218403  1
  H+  H287  1  0.36676141  0.63935041  0.00019633  1
  H+  H288  1  0.33249130  0.92193154  0.09057628  1
  H+  H289  1  0.91893019  0.32139551  0.28354134  1
  H+  H290  1  0.17770088  0.85188699  0.59700384  1
  H+  H291  1  0.92550923  0.59810850  0.26018947  1
  H+  H292  1  0.51861229  0.63535379  0.99624424  1
  H+  H293  1  0.84746320  0.28068102  0.10245703  1
  H+  H294  1  0.67377684  0.60855048  0.26461834  1
  H+  H295  1  0.33144665  0.68305574  0.41005801  1
  H+  H296  1  0.34792777  0.18732876  0.40967812  1
  H+  H297  1  0.16435496  0.59135573  0.29785591  1
  H+  H298  1  0.89320657  0.61229899  0.65258684  1
  H+  H299  1  0.65958326  0.07284413  0.27879160  1
  H+  H300  1  0.58365549  0.66778514  0.77275805  1
  H+  H301  1  0.43541143  0.34290690  0.94779587  1
  H+  H302  1  0.64679546  0.33080450  0.88345749  1
  H+  H303  1  0.34131302  0.42514475  0.07061314  1
  H+  H304  1  0.12069137  0.56142388  0.55564481  1
  H+  H305  1  0.58535057  0.67588489  0.05100400  1
  H+  H306  1  0.40992635  0.82184659  0.58077022  1
  H+  H307  1  0.07313431  0.65972524  0.76550016  1
  H+  H308  1  0.37411392  0.94729613  0.32315626  1
  H+  H309  1  0.86514588  0.39760228  0.34066226  1
  H+  H310  1  0.14992174  0.36042630  0.99150586  1
  H+  H311  1  0.34820518  0.66389083  0.74065603  1
  H+  H312  1  0.40107556  0.05293160  0.26929663  1
  H+  H313  1  0.12740650  1.00004088  0.32331715  1
  H+  H314  1  0.44252021  0.39996878  0.55517132  1
  H+  H315  1  0.61164971  0.41439766  0.34424634  1
  H+  H316  1  0.59089136  0.18695702  0.03748113  1
  H+  H317  1  0.61704632  0.88013790  0.83730650  1
  H+  H318  1  0.91516694  0.09385212  0.26803281  1
  H+  H319  1  0.91279732  0.58355892  0.92071020  1
  H+  H320  1  0.63017628  0.26417400  0.65308789  1
  H+  H321  1  0.66663566  0.59428761  0.60616111  1
  H+  H322  1  0.14491698  1.01412004  0.50479566  1
  H+  H323  1  0.59243181  0.69446489  0.40115897  1
  H+  H324  1  0.56778587  0.16634476  0.13253245  1
  H+  H325  1  0.58029291  0.15623285  0.72376128  1
  H+  H326  1  0.65839017  0.35784045  0.27942663  1
  H+  H327  1  0.91562759  0.85125480  0.26141160  1
  H+  H328  1  0.66237398  0.33697854  0.56012198  1
  H+  H329  1  0.67919525  0.82938080  0.59097837  1
  H+  H330  1  0.86088344  0.37239941  0.11404136  1
  H+  H331  1  0.42181931  0.83844392  0.92939971  1
  H+  H332  1  0.33252275  0.91172077  0.73591679  1
  H+  H333  1  0.71202775  0.86441512  0.17261070  1
  H+  H334  1  0.82774914  0.40721454  0.76479406  1
  H+  H335  1  0.41819122  0.58837696  0.56185988  1
  H+  H336  1  0.59743535  0.45237566  0.43286171  1
  H+  H337  1  0.81964657  0.65136515  0.08371120  1
  H+  H338  1  0.33393934  0.40390940  0.72365833  1
  H+  H339  1  0.09161825  0.41153026  0.43099251  1
  H+  H340  1  0.92532110  0.06018400  0.62189658  1
  H+  H341  1  0.89209190  0.81095978  0.61193644  1
  H+  H342  1  0.63248335  0.10245683  0.65409764  1
  H+  H343  1  0.09377908  0.40845346  0.05861880  1
  H+  H344  1  0.57442524  0.41487762  0.72867083  1
  H+  H345  1  0.59671121  0.91166446  0.73869683  1
  H+  H346  1  0.92906635  0.08682616  0.92234587  1
  H+  H347  1  0.16656909  0.58194094  0.89783322  1
  H+  H348  1  0.28442111  0.40786875  0.16732926  1
  H+  H349  1  0.72543948  0.61924942  0.16479076  1
  H+  H350  1  0.30411270  0.40563592  0.39161786  1
  H+  H351  1  1.04236096  0.18505577  0.32637988  1
  H+  H352  1  0.37762683  0.01902747  0.98671094  1
  H+  H353  1  0.08626635  0.68835967  0.43354905  1
  H+  H354  1  0.33806922  0.91470275  0.42173079  1
  H+  H355  1  0.88328398  0.18729833  0.46422914  1
  H+  H356  1  0.54299409  0.88885042  0.39424522  1
  H+  H357  1  0.70049440  0.35785178  0.96774126  1
  H+  H358  1  0.15912651  0.82584114  0.21192052  1
  H+  H359  1  0.57426896  0.42153885  0.10231739  1
  H+  H360  1  0.41827139  0.07963112  0.89444664  1
  H+  H361  1  0.40784314  0.06202356  0.56529277  1
  H+  H362  1  0.56775591  0.92773224  0.10712257  1
  H+  H363  1  0.66364541  0.07891303  0.89533680  1
  H+  H364  1  0.17615349  0.34221074  0.56662249  1
  H+  H365  1  0.41256643  0.57504733  0.93133927  1
  H+  H366  1  0.41031646  0.33910671  0.26857967  1
  H+  H367  1  0.64058703  0.83468553  0.25731408  1
  H+  H368  1  0.56147902  0.15318474  0.39431964  1
  H+  H369  1  0.83664540  0.42242918  0.43300229  1
  H+  H370  1  0.87482425  0.51026765  0.83293155  1
  H+  H371  1  0.12581673  0.97482079  -0.02734299  1
  H+  H372  1  0.16649805  0.57472256  0.20065534  1
  H+  H373  1  0.97952674  0.25590192  0.23354335  1
  H+  H374  1  0.18880442  0.83947603  0.91149949  1
  H+  H375  1  0.82031685  0.15776887  0.06164184  1
  H+  H376  1  0.62795690  0.02834673  0.17960136  1
  H+  H377  1  0.86122309  0.67998515  0.41925116  1
  H+  H378  1  0.34315054  0.67747127  0.05838098  1
  H+  H379  1  0.19417694  0.08723245  0.59428077  1
  H+  H380  1  0.42456014  0.60901869  0.23094429  1
  H+  H381  1  0.66544578  0.57901709  0.89529100  1
  H+  H382  1  0.08012149  0.65718828  0.08244876  1
  H+  H383  1  0.93225913  0.10846901  0.52915615  1
  O2-  O384  1  0.06072131  0.13905314  0.14511561  1
  O2-  O385  1  0.21150751  0.18949073  0.55063662  1
  O2-  O386  1  0.14989333  0.18166317  0.81542459  1
  O2-  O387  1  0.09223209  0.39531333  0.14172612  1
  O2-  O388  1  0.09584700  0.41868377  0.47681436  1
  O2-  O389  1  0.08473771  0.41160770  0.81518760  1
  O2-  O390  1  0.08008073  0.65296072  0.12872414  1
  O2-  O391  1  0.08612470  0.68531467  0.47923616  1
  O2-  O392  1  0.05837409  0.64044389  0.80812225  1
  O2-  O393  1  0.07739676  0.90891698  0.11570480  1
  O2-  O394  1  0.11701349  0.96292445  0.47833905  1
  O2-  O395  1  0.09386650  0.90759369  0.82719539  1
  O2-  O396  1  0.31389760  0.16127538  0.14365743  1
  O2-  O397  1  0.37809628  0.21037844  0.48995037  1
  O2-  O398  1  0.34422644  0.16628839  0.81844147  1
  O2-  O399  1  0.34235726  0.43770241  0.14959944  1
  O2-  O400  1  0.32768310  0.43419178  0.47222702  1
  O2-  O401  1  0.33410635  0.41447108  0.80123924  1
  O2-  O402  1  0.34294334  0.68341483  0.13738123  1
  O2-  O403  1  0.32531469  0.66760786  0.48703839  1
  O2-  O404  1  0.33650017  0.66502775  0.81893970  1
  O2-  O405  1  0.32499721  0.92113208  0.13614959  1
  O2-  O406  1  0.33495374  0.92762642  0.46512039  1
  O2-  O407  1  0.33851104  0.91117973  0.81191212  1
  O2-  O408  1  0.56614699  0.17011855  0.17660446  1
  O2-  O409  1  0.56632626  0.16798780  0.48151283  1
  O2-  O410  1  0.58218628  0.15867198  0.80245027  1
  O2-  O411  1  0.57125626  0.42452290  0.14746386  1
  O2-  O412  1  0.60274023  0.45581871  0.47892117  1
  O2-  O413  1  0.57620045  0.42166613  0.80590421  1
  O2-  O414  1  0.58426971  0.67792614  0.13681500  1
  O2-  O415  1  0.58430169  0.69521143  0.48038228  1
  O2-  O416  1  0.58204722  0.65955626  0.81802070  1
  O2-  O417  1  0.56815022  0.92581392  0.15389525  1
  O2-  O418  1  0.55593420  0.89680790  0.47175383  1
  O2-  O419  1  0.59072208  0.90937141  0.81523908  1
  O2-  O420  1  0.82237519  0.16513735  0.14684248  1
  O2-  O421  1  0.89807842  0.19517177  0.50974169  1
  O2-  O422  1  0.82948452  0.16096741  0.81270261  1
  O2-  O423  1  0.82568243  0.41813482  0.17876157  1
  O2-  O424  1  0.83649969  0.41913687  0.47868424  1
  O2-  O425  1  0.82856123  0.41072421  0.81163036  1
  O2-  O426  1  0.82792114  0.66206997  0.12872720  1
  O2-  O427  1  0.85890290  0.67051319  0.46520270  1
  O2-  O428  1  0.82880606  0.64780536  0.81015333  1
  O2-  O429  1  0.80842600  0.91406517  0.13553753  1
  O2-  O430  1  0.82681396  0.90403766  0.49051271  1
  O2-  O431  1  0.80124228  0.82446568  0.84049397  1
  O2-  O432  1  0.14181889  0.05317459  0.18111739  1
  O2-  O433  1  0.21776194  0.11088011  0.55173327  1
  O2-  O434  1  0.18846371  0.08166875  0.87330396  1
  O2-  O435  1  0.18146785  0.30021020  0.19674519  1
  O2-  O436  1  0.17941645  0.35057808  0.51986883  1
  O2-  O437  1  0.17945648  0.33864731  0.85440387  1
  O2-  O438  1  0.16511401  0.56959789  0.15649074  1
  O2-  O439  1  0.14823828  0.58152132  0.51542044  1
  O2-  O440  1  0.16658039  0.58200108  0.85218906  1
  O2-  O441  1  0.15792773  0.82324398  0.16663035  1
  O2-  O442  1  0.17673615  0.85766442  0.51686858  1
  O2-  O443  1  0.19095233  0.83953767  0.86698870  1
  O2-  O444  1  0.39793226  0.07903073  0.18920873  1
  O2-  O445  1  0.41134834  0.06653490  0.51907580  1
  O2-  O446  1  0.42078620  0.08043020  0.84870364  1
  O2-  O447  1  0.40398907  0.33202147  0.18658396  1
  O2-  O448  1  0.44021789  0.38603374  0.51205832  1
  O2-  O449  1  0.38220475  0.31371182  0.86975397  1
  O2-  O450  1  0.42349525  0.60122532  0.18508542  1
  O2-  O451  1  0.41700113  0.59413178  0.51656238  1
  O2-  O452  1  0.41450251  0.57469143  0.85416111  1
  O2-  O453  1  0.40014590  0.83968514  0.19021339  1
  O2-  O454  1  0.39938656  0.81681447  0.53598052  1
  O2-  O455  1  0.42634429  0.83436989  0.85091688  1
  O2-  O456  1  0.66409332  0.08813743  0.19652408  1
  O2-  O457  1  0.63988678  0.06843532  0.51575854  1
  O2-  O458  1  0.66532622  0.07938464  0.84917423  1
  O2-  O459  1  0.65051298  0.34497558  0.19752415  1
  O2-  O460  1  0.66086666  0.34019134  0.51463975  1
  O2-  O461  1  0.65496604  0.32742346  0.83838618  1
  O2-  O462  1  0.66784237  0.59598250  0.18448972  1
  O2-  O463  1  0.67130768  0.62133932  0.53128903  1
  O2-  O464  1  0.67096045  0.58105361  0.84898546  1
  O2-  O465  1  0.65191564  0.83332504  0.18962129  1
  O2-  O466  1  0.67205386  0.86139026  0.53126559  1
  O2-  O467  1  0.66063143  0.81597031  0.87511890  1
  O2-  O468  1  0.89874874  0.07253695  0.18926221  1
  O2-  O469  1  0.93808597  0.06219743  0.54844852  1
  O2-  O470  1  0.92139679  0.08913613  0.85190227  1
  O2-  O471  1  0.95530588  0.28836505  0.21466461  1
  O2-  O472  1  0.94276612  0.36422858  0.52480407  1
  O2-  O473  1  0.91605553  0.33032236  0.85129399  1
  O2-  O474  1  0.91863788  0.59121465  0.17988773  1
  O2-  O475  1  0.92541371  0.59619271  0.51304170  1
  O2-  O476  1  0.90547134  0.57305612  0.84609310  1
  O2-  O477  1  0.90397836  0.83629176  0.10815938  1
  O2-  O478  1  0.83486453  0.77141036  0.53592933  1
  O2-  O479  1  0.88594497  0.80296680  0.93619725  1
  O2-  O480  1  0.15866548  0.07630444  0.37183859  1
  O2-  O481  1  0.16267304  0.06680594  0.66248429  1
  O2-  O482  1  0.17655079  0.08318169  0.93955019  1
  O2-  O483  1  0.14147334  0.30218391  0.31273416  1
  O2-  O484  1  0.16971371  0.32782779  0.63710159  1
  O2-  O485  1  0.17763604  0.32674413  0.97764598  1
  O2-  O486  1  0.16499868  0.58352732  0.34166377  1
  O2-  O487  1  0.03255961  0.48181077  0.61276374  1
  O2-  O488  1  0.16920685  0.57899560  0.97689304  1
  O2-  O489  1  0.17191931  0.83674911  0.29513590  1
  O2-  O490  1  0.17478468  0.84526816  0.64237678  1
  O2-  O491  1  0.16887747  0.83082732  0.99715325  1
  O2-  O492  1  0.40580042  0.03634473  0.31134922  1
  O2-  O493  1  0.41103759  0.06807607  0.63961335  1
  O2-  O494  1  0.40444042  0.08011346  0.97060470  1
  O2-  O495  1  0.40804980  0.34249466  0.31373917  1
  O2-  O496  1  0.37559184  0.28325223  0.63137652  1
  O2-  O497  1  0.43628562  0.34311809  0.99278500  1
  O2-  O498  1  0.42424894  0.61827527  0.30501693  1
  O2-  O499  1  0.42221202  0.57548812  0.64048147  1
  O2-  O500  1  0.41496896  0.58081814  0.97687154  1
  O2-  O501  1  0.38001131  0.83455733  0.31281543  1
  O2-  O502  1  0.42021322  0.82992819  0.65863756  1
  O2-  O503  1  0.41631210  0.83858819  0.97477621  1
  O2-  O504  1  0.65200269  0.06594978  0.32351052  1
  O2-  O505  1  0.66277126  0.07227655  0.63781918  1
  O2-  O506  1  0.66096026  0.08346650  0.96967028  1
  O2-  O507  1  0.66267899  0.36787788  0.32392110  1
  O2-  O508  1  0.66199736  0.32545252  0.63940586  1
  O2-  O509  1  0.63973806  0.33588226  0.95855627  1
  O2-  O510  1  0.67480737  0.61320730  0.31008203  1
  O2-  O511  1  0.66826105  0.58503726  0.65118966  1
  O2-  O512  1  0.65503214  0.57766916  0.96719698  1
  O2-  O513  1  0.63537063  0.83707227  0.30478444  1
  O2-  O514  1  0.68957013  0.80862059  0.63477067  1
  O2-  O515  1  0.66356013  0.82523399  0.94184005  1
  O2-  O516  1  0.93104720  0.10721064  0.31197174  1
  O2-  O517  1  0.92154027  0.06328759  0.66797847  1
  O2-  O518  1  0.93003449  0.08743469  0.96901243  1
  O2-  O519  1  0.91584154  0.33882284  0.32573885  1
  O2-  O520  1  0.91354472  0.31316851  0.67801336  1
  O2-  O521  1  0.93204396  0.32248346  0.97443282  1
  O2-  O522  1  0.92281923  0.59779113  0.30564888  1
  O2-  O523  1  0.93210359  0.59801785  0.62988457  1
  O2-  O524  1  0.91710397  0.59384876  0.96625481  1
  O2-  O525  1  0.93488493  0.85784397  0.30364187  1
  O2-  O526  1  0.90846982  0.81715447  0.65553515  1
  O2-  O527  1  0.92746681  0.87012632  0.98290240  1
  O2-  O528  1  0.07498651  0.15725413  0.01849141  1
  O2-  O529  1  0.10305187  0.21578077  0.34147424  1
  O2-  O530  1  0.09035374  0.15993509  0.69607475  1
  O2-  O531  1  0.09816550  0.41289977  0.01365020  1
  O2-  O532  1  0.08506459  0.40987005  0.35734495  1
  O2-  O533  1  0.12374154  0.43927688  0.69010303  1
  O2-  O534  1  0.08857014  0.66689566  0.00882405  1
  O2-  O535  1  0.08331824  0.68474393  0.35709241  1
  O2-  O536  1  0.08974322  0.68562981  0.68350276  1
  O2-  O537  1  0.09155163  0.91881689  -0.00641642  1
  O2-  O538  1  0.10520085  0.95202875  0.29169487  1
  O2-  O539  1  0.07890542  0.90519289  0.69662861  1
  O2-  O540  1  0.32453508  0.16445519  0.01233859  1
  O2-  O541  1  0.32406430  0.17476315  0.36773185  1
  O2-  O542  1  0.32647521  0.14361245  0.69534107  1
  O2-  O543  1  0.34155307  0.41901372  0.02543083  1
  O2-  O544  1  0.29302466  0.38813819  0.34833212  1
  O2-  O545  1  0.33250556  0.40271905  0.67786060  1
  O2-  O546  1  0.33701096  0.67125345  0.01319317  1
  O2-  O547  1  0.32570226  0.68109828  0.36451106  1
  O2-  O548  1  0.35214707  0.66912641  0.69544559  1
  O2-  O549  1  0.33468297  0.92143646  0.01369809  1
  O2-  O550  1  0.33789597  0.88181382  0.33881054  1
  O2-  O551  1  0.33407133  0.91198160  0.68987590  1
  O2-  O552  1  0.57681198  0.17813712  -0.00560255  1
  O2-  O553  1  0.55930360  0.14200453  0.35037010  1
  O2-  O554  1  0.58072028  0.15629725  0.67804148  1
  O2-  O555  1  0.60928932  0.43075115  0.02211820  1
  O2-  O556  1  0.57785335  0.44307339  0.35866161  1
  O2-  O557  1  0.57722092  0.41298687  0.68306514  1
  O2-  O558  1  0.58184453  0.66829428  0.00606178  1
  O2-  O559  1  0.59313498  0.69445506  0.35547971  1
  O2-  O560  1  0.58075382  0.66182653  0.69451708  1
  O2-  O561  1  0.57035535  0.92913318  0.03562612  1
  O2-  O562  1  0.54042626  0.88847539  0.34857000  1
  O2-  O563  1  0.59517632  0.91377256  0.69277487  1
  O2-  O564  1  0.81520815  0.15499439  0.01697978  1
  O2-  O565  1  0.86166769  0.18220994  0.39358719  1
  O2-  O566  1  0.82590925  0.14147061  0.69042914  1
  O2-  O567  1  0.88086450  0.34043576  0.08877001  1
  O2-  O568  1  0.83723452  0.43066557  0.35488615  1
  O2-  O569  1  0.82681150  0.39897585  0.69382629  1
  O2-  O570  1  0.81768232  0.65903560  0.00513773  1
  O2-  O571  1  0.85173141  0.68838082  0.34791030  1
  O2-  O572  1  0.83206590  0.65464709  0.69373363  1
  O2-  O573  1  0.80084217  0.95787344  0.01289457  1
  O2-  O574  1  0.85366723  0.93621085  0.36129190  1
  O2-  O575  1  0.83957887  0.90124513  0.71243372  1
