# generated using pymatgen
data_H2O
_symmetry_space_group_name_H-M   'P 1'
_cell_length_a   18.00086868
_cell_length_b   18.00633793
_cell_length_c   22.00539281
_cell_angle_alpha   90.03510634
_cell_angle_beta   90.00373348
_cell_angle_gamma   120.01680106
_symmetry_Int_Tables_number   1
_chemical_formula_structural   H2O
_chemical_formula_sum   'H384 O192'
_cell_volume   6175.96669352
_cell_formula_units_Z   192
loop_
 _symmetry_equiv_pos_site_id
 _symmetry_equiv_pos_as_xyz
  1  'x, y, z'
loop_
 _atom_type_symbol
 _atom_type_oxidation_number
  H+  1.0
  O2-  -2.0
loop_
 _atom_site_type_symbol
 _atom_site_label
 _atom_site_symmetry_multiplicity
 _atom_site_fract_x
 _atom_site_fract_y
 _atom_site_fract_z
 _atom_site_occupancy
  H+  H0  1  0.81776026  0.63112106  0.50050177  1
  H+  H1  1  0.32768431  0.57114067  0.31886525  1
  H+  H2  1  0.07102984  0.15595338  0.31942805  1
  H+  H3  1  0.62458329  0.02243996  0.50665047  1
  H+  H4  1  0.10756601  0.21244492  0.84221017  1
  H+  H5  1  0.39074193  0.02476313  0.50079056  1
  H+  H6  1  0.65928490  0.14207967  0.68687994  1
  H+  H7  1  0.13712027  0.85623704  0.32419205  1
  H+  H8  1  0.91654353  0.83259049  0.93001298  1
  H+  H9  1  0.11743468  0.88082682  0.15553241  1
  H+  H10  1  0.12758659  0.35085229  0.66447022  1
  H+  H11  1  0.71468831  0.60379602  0.66254166  1
  H+  H12  1  0.85382891  0.86293013  1.00871464  1
  H+  H13  1  0.83137886  0.65284167  0.73393654  1
  H+  H14  1  0.71821450  0.60362737  0.99278674  1
  H+  H15  1  0.13224309  0.26774163  0.19958802  1
  H+  H16  1  0.07166252  0.67489162  0.10268114  1
  H+  H17  1  1.06871456  0.37256193  1.00050425  1
  H+  H18  1  0.43531858  0.37940296  0.49904260  1
  H+  H19  1  0.40676522  0.03398977  0.16713783  1
  H+  H20  1  0.61168207  -0.02817728  0.17536939  1
  H+  H21  1  0.60887012  0.88513918  0.00102850  1
  H+  H22  1  0.21546218  0.61796807  0.83726725  1
  H+  H23  1  0.61181957  0.38330571  0.67700168  1
  H+  H24  1  0.09161663  0.38936115  0.47255284  1
  H+  H25  1  0.27326106  0.64692550  0.67358890  1
  H+  H26  1  0.53465806  0.15364324  0.33050072  1
  H+  H27  1  0.50046033  0.11958122  0.17055396  1
  H+  H28  1  0.97132764  0.62181343  0.83597764  1
  H+  H29  1  0.14114288  0.15876045  1.02301955  1
  H+  H30  1  0.58341895  0.72045760  0.00968489  1
  H+  H31  1  0.21852993  0.61506798  0.98618442  1
  H+  H32  1  0.37490418  0.85574646  0.18273650  1
  H+  H33  1  0.48133339  0.62526930  0.16989015  1
  H+  H34  1  0.82837424  0.90703409  0.77395755  1
  H+  H35  1  0.02338615  0.37806967  0.67789052  1
  H+  H36  1  0.85703214  0.26598997  0.33260973  1
  H+  H37  1  0.10928148  0.87943316  0.82748284  1
  H+  H38  1  0.57630259  -0.06365840  0.73742380  1
  H+  H39  1  0.81147606  0.91255743  0.15119035  1
  H+  H40  1  0.99902439  0.63834515  0.64326770  1
  H+  H41  1  0.64490495  1.02603360  0.00261579  1
  H+  H42  1  0.35381887  0.65456856  0.82746058  1
  H+  H43  1  0.38962626  0.25418901  0.84401174  1
  H+  H44  1  0.41723839  0.34564597  0.23086812  1
  H+  H45  1  0.24241309  0.39360478  0.42374891  1
  H+  H46  1  0.98796049  0.86847754  0.16974074  1
  H+  H47  1  0.63217836  0.52391208  0.83802123  1
  H+  H48  1  -0.02113040  0.86413654  -0.01092997  1
  H+  H49  1  0.06767390  -0.05548035  0.50056514  1
  H+  H50  1  0.62656162  0.53783045  0.16731820  1
  H+  H51  1  0.34646530  0.37740511  0.15474420  1
  H+  H52  1  0.10467383  0.28902279  0.33196404  1
  H+  H53  1  0.61779629  0.22856163  1.01470135  1
  H+  H54  1  0.98863581  0.36010329  0.84441791  1
  H+  H55  1  0.02618056  0.74202919  0.04537164  1
  H+  H56  1  0.85056686  0.49698304  0.16168049  1
  H+  H57  1  0.28038880  0.90607990  0.33573497  1
  H+  H58  1  0.97100218  0.85055102  0.66770573  1
  H+  H59  1  0.41210789  0.13330134  0.31603154  1
  H+  H60  1  0.57680832  0.05936568  0.70076489  1
  H+  H61  1  0.34382765  0.37614372  -0.00186448  1
  H+  H62  1  0.45482973  0.61194084  0.99669259  1
  H+  H63  1  0.37225044  -0.00648582  0.33456804  1
  H+  H64  1  0.48363979  0.11374617  0.84254510  1
  H+  H65  1  0.60076360  0.63318805  0.67406348  1
  H+  H66  1  0.86050824  0.74136420  0.15962687  1
  H+  H67  1  0.42008728  0.29930892  0.33017828  1
  H+  H68  1  0.08372037  0.39722686  0.09404542  1
  H+  H69  1  0.12277455  0.25840367  0.66992420  1
  H+  H70  1  0.63677273  0.36415024  0.84177459  1
  H+  H71  1  0.39358136  0.14319120  0.48850823  1
  H+  H72  1  0.09378024  0.36742584  0.15941640  1
  H+  H73  1  0.36677964  0.54515349  0.84432838  1
  H+  H74  1  0.08087656  0.28507918  0.90842106  1
  H+  H75  1  0.91694900  0.14741728  0.17566832  1
  H+  H76  1  0.27200141  0.44129814  0.42595217  1
  H+  H77  1  0.52345400  0.89124447  0.00257416  1
  H+  H78  1  0.50331667  0.88541871  0.34585420  1
  H+  H79  1  0.43397800  0.27899387  0.50676397  1
  H+  H80  1  0.15815812  0.78096653  0.32253138  1
  H+  H81  1  0.67484997  0.20234601  0.17225460  1
  H+  H82  1  0.87281137  0.61603208  0.99108581  1
  H+  H83  1  0.61689479  0.74361860  0.47923007  1
  H+  H84  1  0.62979139  0.11018551  0.32082795  1
  H+  H85  1  0.83955048  0.88373507  0.50482670  1
  H+  H86  1  0.09265463  0.12094561  0.68394948  1
  H+  H87  1  0.00693612  0.12683261  0.68200265  1
  H+  H88  1  0.86261860  0.97212633  0.68517618  1
  H+  H89  1  0.61576001  0.10625798  0.16091891  1
  H+  H90  1  0.36636917  0.65172458  0.55698402  1
  H+  H91  1  0.10574274  0.72222357  0.82611855  1
  H+  H92  1  0.86200061  0.37935208  0.68794273  1
  H+  H93  1  0.87979002  0.11131395  0.66967763  1
  H+  H94  1  0.37455037  0.13956272  0.00580008  1
  H+  H95  1  0.51391379  0.91318308  0.67934426  1
  H+  H96  1  0.46744980  0.86968920  0.50919343  1
  H+  H97  1  0.63233968  0.26401206  0.66765116  1
  H+  H98  1  0.11648558  0.13102533  0.19581384  1
  H+  H99  1  0.55214374  0.64344104  0.47808091  1
  H+  H100  1  0.75058982  0.12988389  0.34755516  1
  H+  H101  1  0.63989531  0.37946509  0.32125842  1
  H+  H102  1  0.90165481  0.09036516  0.23612255  1
  H+  H103  1  0.12116830  0.38916764  0.83492002  1
  H+  H104  1  0.10599285  0.50108075  0.15887169  1
  H+  H105  1  0.41219179  0.32341567  0.93725601  1
  H+  H106  1  0.64576702  0.39992920  0.49299313  1
  H+  H107  1  0.32357930  0.68029106  0.76566844  1
  H+  H108  1  0.47182197  0.37345940  0.17023046  1
  H+  H109  1  0.64624465  0.57103812  0.60617268  1
  H+  H110  1  0.64005543  0.49503540  0.33088482  1
  H+  H111  1  0.48807738  0.11578607  0.00024879  1
  H+  H112  1  0.85889080  0.74115278  0.34858143  1
  H+  H113  1  0.64563312  0.62154135  0.32285900  1
  H+  H114  1  0.35603568  0.76014363  0.18236761  1
  H+  H115  1  0.34930456  -0.03211310  0.67692939  1
  H+  H116  1  0.08511895  0.91423207  0.06001513  1
  H+  H117  1  0.24879400  0.47463071  0.54825281  1
  H+  H118  1  0.34287694  0.56671372  0.22522622  1
  H+  H119  1  0.14111271  0.78926108  0.98978663  1
  H+  H120  1  0.63915159  0.29384732  0.17311011  1
  H+  H121  1  0.14712623  0.51754390  -0.01248130  1
  H+  H122  1  0.81725357  0.24301592  0.18002980  1
  H+  H123  1  0.38001156  0.26926358  0.99782155  1
  H+  H124  1  0.41755994  0.84314002  0.92913437  1
  H+  H125  1  0.21164792  0.35554827  0.17705054  1
  H+  H126  1  0.85722888  0.72748667  0.83305804  1
  H+  H127  1  0.38437385  0.14765408  0.15811778  1
  H+  H128  1  0.61529072  0.61953482  0.17531018  1
  H+  H129  1  0.14296261  0.77504848  0.17104324  1
  H+  H130  1  0.37425270  0.87209728  0.66887490  1
  H+  H131  1  0.38845776  0.50773442  0.62749777  1
  H+  H132  1  0.84640362  0.39703259  0.00538804  1
  H+  H133  1  0.09827794  0.62968953  0.82952225  1
  H+  H134  1  0.77495006  0.40236535  0.35043357  1
  H+  H135  1  0.08153551  0.65968536  0.73021049  1
  H+  H136  1  0.61877113  0.35739200  -0.00288306  1
  H+  H137  1  0.23519042  0.86605006  0.67573909  1
  H+  H138  1  0.05220561  0.66300593  0.33850123  1
  H+  H139  1  0.63597878  0.86305132  0.13712656  1
  H+  H140  1  0.12143081  0.97140249  0.15228396  1
  H+  H141  1  0.24354214  0.62157265  0.14782672  1
  H+  H142  1  0.15755232  0.57860913  0.89754827  1
  H+  H143  1  0.60716067  0.40364154  0.16032246  1
  H+  H144  1  0.11186162  0.87027658  0.68289434  1
  H+  H145  1  0.11542199  0.95493923  0.36322483  1
  H+  H146  1  0.61480333  0.97624826  0.83464824  1
  H+  H147  1  0.84481211  0.46850234  0.50390317  1
  H+  H148  1  0.09922362  0.20589859  0.49295410  1
  H+  H149  1  0.77372720  0.37930958  0.68418426  1
  H+  H150  1  0.52426927  0.13946269  0.48521698  1
  H+  H151  1  0.54803287  0.40956113  0.33770084  1
  H+  H152  1  0.17103638  0.07720536  0.50507001  1
  H+  H153  1  0.86042989  0.35702373  0.33406152  1
  H+  H154  1  0.36676697  0.12643610  0.83277820  1
  H+  H155  1  0.63405797  0.86064260  0.83790714  1
  H+  H156  1  0.87791744  0.08868833  1.00044185  1
  H+  H157  1  0.62895612  0.61163800  0.83868371  1
  H+  H158  1  0.28817467  0.62852343  0.51411845  1
  H+  H159  1  0.13913910  0.52823907  0.50162826  1
  H+  H160  1  0.86273735  0.88360207  0.68558205  1
  H+  H161  1  0.31791297  0.16652172  0.48151557  1
  H+  H162  1  0.71452768  0.05905893  0.67443026  1
  H+  H163  1  -0.04467460  0.10907825  0.50905193  1
  H+  H164  1  0.87963934  0.27351343  0.51291542  1
  H+  H165  1  0.63523385  0.27868263  0.32168799  1
  H+  H166  1  0.83890499  0.13246838  0.34595353  1
  H+  H167  1  0.73288179  0.82005480  0.08963320  1
  H+  H168  1  0.39673572  0.11719756  0.66193218  1
  H+  H169  1  0.84544575  0.76429184  0.51971561  1
  H+  H170  1  -0.05982849  0.10878436  0.33165729  1
  H+  H171  1  0.87916300  0.20141038  0.10253177  1
  H+  H172  1  0.36376424  0.21870281  0.67585859  1
  H+  H173  1  0.96634119  0.36455826  0.50897947  1
  H+  H174  1  -0.06145900  0.84517274  0.51759536  1
  H+  H175  1  0.65579390  0.82355097  0.93035447  1
  H+  H176  1  0.28334687  0.90006904  0.15846259  1
  H+  H177  1  0.51109181  0.38506995  0.00944723  1
  H+  H178  1  0.70738822  0.86994184  0.50978769  1
  H+  H179  1  0.52447415  0.37971959  0.83035707  1
  H+  H180  1  0.02251472  0.88953312  0.33955479  1
  H+  H181  1  0.40649895  0.40555892  0.42482951  1
  H+  H182  1  0.22624265  0.86159752  0.83128422  1
  H+  H183  1  0.88451044  0.20993960  0.00579968  1
  H+  H184  1  0.25001958  0.58066298  0.29203094  1
  H+  H185  1  0.13862211  0.10420560  0.84461433  1
  H+  H186  1  0.36979602  0.89319654  0.00379547  1
  H+  H187  1  0.96136141  0.95163873  0.29634218  1
  H+  H188  1  0.60287452  0.86100929  0.65806141  1
  H+  H189  1  0.86234895  0.99460017  -0.00779497  1
  H+  H190  1  0.10692965  0.51243277  0.31435217  1
  H+  H191  1  0.14764214  0.34842992  0.27472957  1
  H+  H192  1  0.85308154  0.48838767  1.00091109  1
  H+  H193  1  -0.01496941  0.38253760  0.33379231  1
  H+  H194  1  0.21413144  0.19352115  0.27666171  1
  H+  H195  1  0.63209040  0.26684485  0.51049586  1
  H+  H196  1  0.17082041  0.25619733  0.02515456  1
  H+  H197  1  0.22692685  0.10178314  0.84335239  1
  H+  H198  1  0.77208163  0.40582041  0.83382987  1
  H+  H199  1  0.40873284  0.59029462  0.48797886  1
  H+  H200  1  0.91370027  0.65044482  0.33201747  1
  H+  H201  1  0.11626439  -0.02105086  1.00322447  1
  H+  H202  1  0.78599866  0.13594795  1.01675072  1
  H+  H203  1  0.85814404  -0.03680118  0.83593855  1
  H+  H204  1  0.39776864  0.02792747  0.99682058  1
  H+  H205  1  0.12550448  0.72903864  0.67744034  1
  H+  H206  1  0.97241423  0.62454153  0.17340202  1
  H+  H207  1  0.40031574  0.45682743  0.87642145  1
  H+  H208  1  0.38841224  0.34739193  0.64611101  1
  H+  H209  1  0.26234677  0.36223331  0.64488318  1
  H+  H210  1  0.48063179  0.35582968  0.66446524  1
  H+  H211  1  0.47909018  0.10552674  0.65948939  1
  H+  H212  1  0.60409303  0.47211363  1.00577762  1
  H+  H213  1  0.87958040  0.62435144  0.83868360  1
  H+  H214  1  0.23964128  0.11110744  0.15758395  1
  H+  H215  1  0.72289662  0.35229214  0.51874225  1
  H+  H216  1  0.13634532  0.51826244  0.65930984  1
  H+  H217  1  0.62100296  0.22826762  0.82997847  1
  H+  H218  1  0.77772523  0.64964864  0.33802973  1
  H+  H219  1  0.61264102  0.14016056  0.48586780  1
  H+  H220  1  0.27747951  0.12590731  0.67585912  1
  H+  H221  1  0.39851453  0.45373865  0.80599736  1
  H+  H222  1  0.60980236  0.47283223  0.67578779  1
  H+  H223  1  0.59478210  0.88774399  0.34671260  1
  H+  H224  1  0.38891882  0.34295289  0.84773375  1
  H+  H225  1  0.71178194  0.36763098  -0.00363125  1
  H+  H226  1  0.71191409  0.84703387  0.99091221  1
  H+  H227  1  0.94406787  0.34404918  1.00016395  1
  H+  H228  1  0.84495162  0.88936523  0.34851695  1
  H+  H229  1  0.11186031  0.85057067  0.52354720  1
  H+  H230  1  0.91039757  0.88785571  0.16815898  1
  H+  H231  1  0.86877800  0.11187449  0.51454501  1
  H+  H232  1  0.76591049  0.15538289  0.82773702  1
  H+  H233  1  0.17965860  0.33096434  0.91630845  1
  H+  H234  1  0.33334824  0.62563764  0.14982681  1
  H+  H235  1  0.76433487  0.13932055  0.50037617  1
  H+  H236  1  0.64980129  0.11731282  1.00367146  1
  H+  H237  1  0.07878452  0.38969167  0.33600077  1
  H+  H238  1  0.15015110  0.65380768  0.49277792  1
  H+  H239  1  0.35747604  0.74036130  0.67702068  1
  H+  H240  1  0.62932449  0.51544484  0.51401908  1
  H+  H241  1  0.56873978  0.92413620  0.43656492  1
  H+  H242  1  0.47097641  0.59907874  0.64404190  1
  H+  H243  1  0.51483201  0.64009751  0.83065040  1
  H+  H244  1  0.23287932  0.10813905  0.99602331  1
  H+  H245  1  0.19775494  0.34386674  0.51007286  1
  H+  H246  1  0.17579998  0.11820695  0.32221903  1
  H+  H247  1  0.17169157  0.83516248  0.89268692  1
  H+  H248  1  0.10984428  0.96874699  0.83054618  1
  H+  H249  1  0.72172084  0.85626201  0.83970768  1
  H+  H250  1  0.64134688  0.03900256  0.23103522  1
  H+  H251  1  0.97023559  0.85791819  0.83766194  1
  H+  H252  1  0.63636397  0.10941119  0.85309532  1
  H+  H253  1  0.36047595  0.97597161  0.82324579  1
  H+  H254  1  0.61879542  1.01672895  0.33301346  1
  H+  H255  1  0.30711940  0.36835074  0.58427725  1
  H+  H256  1  0.13790610  -0.01252157  0.66007420  1
  H+  H257  1  0.71107731  0.86511919  0.33041555  1
  H+  H258  1  0.65758181  0.08502897  0.56470040  1
  H+  H259  1  0.21235130  0.46491110  0.56926730  1
  H+  H260  1  0.60835683  0.72302462  0.32665259  1
  H+  H261  1  0.83319218  0.43048719  0.76950800  1
  H+  H262  1  0.38423721  0.87104085  0.33658307  1
  H+  H263  1  0.49261326  0.58943067  0.32329180  1
  H+  H264  1  0.41116812  0.44820062  0.33085136  1
  H+  H265  1  0.59789005  0.76972988  0.65705385  1
  H+  H266  1  1.00117894  0.65845092  1.00885473  1
  H+  H267  1  0.92268041  0.60495700  0.48165620  1
  H+  H268  1  0.95365332  0.28066211  0.13935822  1
  H+  H269  1  0.89163484  1.00889657  0.15884177  1
  H+  H270  1  0.14090735  0.61297159  0.31374728  1
  H+  H271  1  0.85534267  0.71436098  0.67777975  1
  H+  H272  1  0.80556346  0.28040971  0.24057440  1
  H+  H273  1  0.38578409  0.78232978  0.98844432  1
  H+  H274  1  0.55107866  0.72266685  0.16351627  1
  H+  H275  1  0.38264954  0.78378344  0.83640229  1
  H+  H276  1  0.42285439  0.47569117  0.48037623  1
  H+  H277  1  0.86062788  0.72934022  0.00273102  1
  H+  H278  1  0.31929835  0.67417003  0.05903522  1
  H+  H279  1  0.03128037  0.13595565  0.20851050  1
  H+  H280  1  0.36275397  -0.10174987  0.49188095  1
  H+  H281  1  0.85702726  0.38471368  0.50756312  1
  H+  H282  1  0.14829502  0.87850887  0.98548096  1
  H+  H283  1  0.28204611  0.89566613  0.00381244  1
  H+  H284  1  0.35107296  0.64369945  0.00150971  1
  H+  H285  1  0.84558403  0.97636399  0.50166585  1
  H+  H286  1  0.76859300  0.65451990  0.15861653  1
  H+  H287  1  0.85431348  0.01638588  0.33245318  1
  H+  H288  1  0.36660618  0.50373836  0.73485090  1
  H+  H289  1  0.59524094  0.67603878  0.39081890  1
  H+  H290  1  0.59255240  0.18459479  0.39165328  1
  H+  H291  1  0.88271478  0.26308125  0.66752460  1
  H+  H292  1  0.44281099  0.56886671  0.54717088  1
  H+  H293  1  0.04567630  0.88054285  0.44466429  1
  H+  H294  1  0.07226927  0.10909974  0.48920894  1
  H+  H295  1  0.72796935  0.38759742  0.17180827  1
  H+  H296  1  0.67163878  0.61379670  0.51585798  1
  H+  H297  1  0.07053073  0.66616014  0.49442884  1
  H+  H298  1  0.34379727  0.16809208  0.06523224  1
  H+  H299  1  -0.03047513  0.09034005  0.84789288  1
  H+  H300  1  0.60624810  0.72407034  0.82645842  1
  H+  H301  1  0.82914842  0.67400305  0.06432548  1
  H+  H302  1  0.81716004  0.43690506  0.10160212  1
  H+  H303  1  0.42883360  0.54621041  0.26703052  1
  H+  H304  1  0.66674432  0.34363478  0.25538995  1
  H+  H305  1  0.67295656  0.08220281  0.91000561  1
  H+  H306  1  0.16024085  0.30112476  0.57484402  1
  H+  H307  1  0.21500958  0.01745780  0.61460294  1
  H+  H308  1  0.56362897  0.65875067  0.73052161  1
  H+  H309  1  0.87928620  0.85818179  0.83964041  1
  H+  H310  1  0.52313846  0.89057087  0.82938609  1
  H+  H311  1  0.13360222  0.04880838  0.57025112  1
  H+  H312  1  0.41042892  0.84762039  0.60828613  1
  H+  H313  1  0.44762625  0.32955237  0.57143429  1
  H+  H314  1  0.67403757  0.59562403  0.26155646  1
  H+  H315  1  0.76694584  0.63686748  0.83381441  1
  H+  H316  1  0.16761518  0.57865728  0.56586726  1
  H+  H317  1  0.05466736  0.42351147  0.42152563  1
  H+  H318  1  0.07906617  0.90761346  0.73765511  1
  H+  H319  1  0.69429839  0.76210005  0.14780256  1
  H+  H320  1  0.13859207  0.56178873  0.21765319  1
  H+  H321  1  0.12054966  0.47831002  0.82800820  1
  H+  H322  1  0.16720433  0.39836883  1.01098065  1
  H+  H323  1  0.80621457  0.67292664  0.44137176  1
  H+  H324  1  0.65808590  0.85110006  0.26958920  1
  H+  H325  1  0.42653147  0.08435027  0.90279575  1
  H+  H326  1  0.07945009  0.15964315  0.77943112  1
  H+  H327  1  0.91309681  0.59901555  0.55488211  1
  H+  H328  1  0.37692366  0.19281320  0.39289223  1
  H+  H329  1  0.32831445  0.91669575  0.76003162  1
  H+  H330  1  0.90149279  0.82337521  0.61348795  1
  H+  H331  1  0.42418540  0.08892459  0.56137644  1
  H+  H332  1  0.31952374  0.17795200  0.33266598  1
  H+  H333  1  0.81713682  0.18435730  0.76462398  1
  H+  H334  1  0.90774879  0.63371743  0.64770935  1
  H+  H335  1  0.16612378  0.83349407  0.61712331  1
  H+  H336  1  0.59679271  0.15838971  0.77614448  1
  H+  H337  1  0.33494077  0.15547904  0.77343846  1
  H+  H338  1  0.34300920  0.92581588  0.09983733  1
  H+  H339  1  0.37337677  0.23139067  0.16007190  1
  H+  H340  1  0.43685692  0.09494055  0.25809072  1
  H+  H341  1  0.82113500  0.16690849  0.44054936  1
  H+  H342  1  0.58213501  0.41391839  0.76982160  1
  H+  H343  1  0.90608386  0.06052873  0.90428586  1
  H+  H344  1  0.16206904  0.80002528  0.51701800  1
  H+  H345  1  0.90958068  0.08235253  0.60990440  1
  H+  H346  1  0.32093194  0.49446771  0.73635054  1
  H+  H347  1  0.88621158  0.63043965  0.17439640  1
  H+  H348  1  0.54519085  0.66561687  0.07070399  1
  H+  H349  1  0.86460283  0.50883742  0.83011304  1
  H+  H350  1  0.89066970  0.28118561  0.84453476  1
  H+  H351  1  0.93300064  0.86874926  0.25737669  1
  H+  H352  1  0.36501696  0.52167397  0.98905974  1
  H+  H353  1  0.57664988  0.88374951  0.09793606  1
  H+  H354  1  0.17124616  0.07981772  0.93798950  1
  H+  H355  1  0.05732142  0.16111432  0.39298895  1
  H+  H356  1  0.57410593  0.42549940  0.09901415  1
  H+  H357  1  0.08945085  0.41202719  0.73391105  1
  H+  H358  1  0.40228445  0.82569905  0.28172426  1
  H+  H359  1  0.09845703  0.62825913  0.15406331  1
  H+  H360  1  0.65899926  0.57411568  0.93415885  1
  H+  H361  1  0.81218825  0.91282010  0.41001882  1
  H+  H362  1  0.63155127  0.43739948  0.43091160  1
  H+  H363  1  0.17436258  0.83773071  0.22863801  1
  H+  H364  1  0.59993291  0.89372441  0.49549409  1
  H+  H365  1  0.91553911  0.32795218  0.61090048  1
  H+  H366  1  0.84825408  0.91680673  0.06495788  1
  H+  H367  1  0.63592922  0.83156371  0.56309522  1
  H+  H368  1  0.94965928  0.31620606  0.93127599  1
  H+  H369  1  0.82444615  0.41288489  0.41228920  1
  H+  H370  1  0.30865695  0.40054017  0.09627368  1
  H+  H371  1  0.19426094  0.08011084  0.21950719  1
  H+  H372  1  0.93859524  0.62245915  0.27033771  1
  H+  H373  1  0.65930790  0.31963219  0.60703504  1
  H+  H374  1  0.38479413  0.77766693  0.51546494  1
  H+  H375  1  0.13508770  0.60724665  0.65875144  1
  H+  H376  1  0.11788634  0.68326662  0.39436112  1
  H+  H377  1  0.34185631  0.93536912  0.43154831  1
  H+  H378  1  0.60314227  0.17096294  0.07455763  1
  H+  H379  1  0.34872359  0.50275172  0.17319053  1
  H+  H380  1  0.90776701  0.59015743  0.93129909  1
  H+  H381  1  0.38687118  0.87395555  0.83501508  1
  H+  H382  1  0.66299051  0.33362492  0.90222845  1
  H+  H383  1  0.40312742  0.59776587  0.90513051  1
  O2-  O384  1  0.09250260  0.15876692  0.22186013  1
  O2-  O385  1  0.05769174  0.15104846  0.47211859  1
  O2-  O386  1  0.08416717  0.15447228  0.82401187  1
  O2-  O387  1  0.05961377  0.38762132  0.13622601  1
  O2-  O388  1  0.06502603  0.42461596  0.46766528  1
  O2-  O389  1  0.09491241  0.41770805  0.81242048  1
  O2-  O390  1  0.07657683  0.66920252  0.14719833  1
  O2-  O391  1  0.12700318  0.69046947  0.47581930  1
  O2-  O392  1  0.06918550  0.66092611  0.81326372  1
  O2-  O393  1  0.08575797  0.90996070  0.13980900  1
  O2-  O394  1  0.04019251  0.88287061  0.48931654  1
  O2-  O395  1  0.07730022  0.90895866  0.81379699  1
  O2-  O396  1  0.34830004  0.17196909  0.14370441  1
  O2-  O397  1  0.37680222  0.18640996  0.46916080  1
  O2-  O398  1  0.33396313  0.15540352  0.81865852  1
  O2-  O399  1  0.31092552  0.40255964  0.14140434  1
  O2-  O400  1  0.40485486  0.41319202  0.46991362  1
  O2-  O401  1  0.36348058  0.42639323  0.84184968  1
  O2-  O402  1  0.30523079  0.65759011  0.13582765  1
  O2-  O403  1  0.35234502  0.65866369  0.51519072  1
  O2-  O404  1  0.32066482  0.68112267  0.81207442  1
  O2-  O405  1  0.34437839  0.93098525  0.14515206  1
  O2-  O406  1  0.34326355  0.93777943  0.47683521  1
  O2-  O407  1  0.32910983  0.91597638  0.80850889  1
  O2-  O408  1  0.61727382  0.16286186  0.15330664  1
  O2-  O409  1  0.58456039  0.17169788  0.46924530  1
  O2-  O410  1  0.58952851  0.16593580  0.82012656  1
  O2-  O411  1  0.57530854  0.43160170  0.14494385  1
  O2-  O412  1  0.65199199  0.45196284  0.47291288  1
  O2-  O413  1  0.58470459  0.41556410  0.81539604  1
  O2-  O414  1  0.54240185  0.66491952  0.15743354  1
  O2-  O415  1  0.60554810  0.68919343  0.45925366  1
  O2-  O416  1  0.57292666  0.66236246  0.81302873  1
  O2-  O417  1  0.58397782  0.86759725  0.13999175  1
  O2-  O418  1  0.57105973  0.92704122  0.48244645  1
  O2-  O419  1  0.58412070  0.91823550  0.81496547  1
  O2-  O420  1  0.90100671  0.22380630  0.14434703  1
  O2-  O421  1  0.82524119  0.16910646  0.48623514  1
  O2-  O422  1  0.81216561  0.20476794  0.80579123  1
  O2-  O423  1  0.81143111  0.43761840  0.14618338  1
  O2-  O424  1  0.82038205  0.40743915  0.49108215  1
  O2-  O425  1  0.83167068  0.44231830  0.81602000  1
  O2-  O426  1  0.82864902  0.68142258  0.14378011  1
  O2-  O427  1  0.79707541  0.66963789  0.48594383  1
  O2-  O428  1  0.82774073  0.66577649  0.81887372  1
  O2-  O429  1  0.87306362  0.95006296  0.14186327  1
  O2-  O430  1  0.81448086  0.91652951  0.48485708  1
  O2-  O431  1  0.82546283  0.90135038  0.82014690  1
  O2-  O432  1  0.18100635  0.07681531  0.17598823  1
  O2-  O433  1  0.11654335  0.05084173  0.52668711  1
  O2-  O434  1  0.16673828  0.07123972  0.85877600  1
  O2-  O435  1  0.15495889  0.33062032  0.19788494  1
  O2-  O436  1  0.17749988  0.29115122  0.53335788  1
  O2-  O437  1  0.13348256  0.30843090  0.88440893  1
  O2-  O438  1  0.13704005  0.56239179  0.17197488  1
  O2-  O439  1  0.17711838  0.58522560  0.52040012  1
  O2-  O440  1  0.15487605  0.58029340  0.85130415  1
  O2-  O441  1  0.17345978  0.83696662  0.18308152  1
  O2-  O442  1  0.15849358  0.84386959  0.54141827  1
  O2-  O443  1  0.16552459  0.82976741  0.84760711  1
  O2-  O444  1  0.43943386  0.09517103  0.18229968  1
  O2-  O445  1  0.42447212  0.08918453  0.51596519  1
  O2-  O446  1  0.42303268  0.08360874  0.85741426  1
  O2-  O447  1  0.41174155  0.33775597  0.18631707  1
  O2-  O448  1  0.46121086  0.33713365  0.52635057  1
  O2-  O449  1  0.42224354  0.31516506  0.85978310  1
  O2-  O450  1  0.37803297  0.56191208  0.19073690  1
  O2-  O451  1  0.44553782  0.56690762  0.50056874  1
  O2-  O452  1  0.40672851  0.60307889  0.85890574  1
  O2-  O453  1  0.38488200  0.81433076  0.20541694  1
  O2-  O454  1  0.40699992  0.83902419  0.52455738  1
  O2-  O455  1  0.41748401  0.84423254  0.85181390  1
  O2-  O456  1  0.63429268  0.03270116  0.18650258  1
  O2-  O457  1  0.65775039  0.08526768  0.52037428  1
  O2-  O458  1  0.66688354  0.07825313  0.86476242  1
  O2-  O459  1  0.66446826  0.35144630  0.19066683  1
  O2-  O460  1  0.66119203  0.32264687  0.53276559  1
  O2-  O461  1  0.67174547  0.33859824  0.85705454  1
  O2-  O462  1  0.65571604  0.59840306  0.18299492  1
  O2-  O463  1  0.62545335  0.56251824  0.53568866  1
  O2-  O464  1  0.66157130  0.58384697  0.85386204  1
  O2-  O465  1  0.71188329  0.81879729  0.13145557  1
  O2-  O466  1  0.64442838  0.83818231  0.51747238  1
  O2-  O467  1  0.65986709  0.82627335  0.85345603  1
  O2-  O468  1  0.92701342  0.10194779  0.19450397  1
  O2-  O469  1  0.89810392  0.07986975  0.52890069  1
  O2-  O470  1  0.90817585  0.05888584  0.85878250  1
  O2-  O471  1  0.77715588  0.25683669  0.20115990  1
  O2-  O472  1  0.91006129  0.33318641  0.52998753  1
  O2-  O473  1  0.93514789  0.33138983  0.86872383  1
  O2-  O474  1  0.91279889  0.59757403  0.19032576  1
  O2-  O475  1  0.88163259  0.57637710  0.51423647  1
  O2-  O476  1  0.91030089  0.59187095  0.85270550  1
  O2-  O477  1  0.92836831  0.84789193  0.18633278  1
  O2-  O478  1  0.88082007  0.82472869  0.53584311  1
  O2-  O479  1  0.91108419  0.82788088  0.85515936  1
  O2-  O480  1  0.22451592  0.15008424  0.29520985  1
  O2-  O481  1  0.18051834  0.03943835  0.63329930  1
  O2-  O482  1  0.17146332  0.07848530  0.98333304  1
  O2-  O483  1  0.13753738  0.34948930  0.31922541  1
  O2-  O484  1  0.15362386  0.31560201  0.64964121  1
  O2-  O485  1  0.22720185  0.35886270  0.98660460  1
  O2-  O486  1  0.14883202  0.56750221  0.29389109  1
  O2-  O487  1  0.16457443  0.57697202  0.64146089  1
  O2-  O488  1  0.16015102  0.57397773  0.97070415  1
  O2-  O489  1  0.17793437  0.84078347  0.30650107  1
  O2-  O490  1  0.16802825  0.83058498  0.66248187  1
  O2-  O491  1  0.17841744  0.84694155  0.97220660  1
  O2-  O492  1  0.43724663  0.09727955  0.30388585  1
  O2-  O493  1  0.42342025  0.08749958  0.64043274  1
  O2-  O494  1  0.42943381  0.08892613  0.98203811  1
  O2-  O495  1  0.44469604  0.36098082  0.31479159  1
  O2-  O496  1  0.42346030  0.31852776  0.64374207  1
  O2-  O497  1  0.40566498  0.32953405  0.98177481  1
  O2-  O498  1  0.43522954  0.53983490  0.31080947  1
  O2-  O499  1  0.42142774  0.56853268  0.61547980  1
  O2-  O500  1  0.39551407  0.58283023  0.97649985  1
  O2-  O501  1  0.41157742  0.83652397  0.32646584  1
  O2-  O502  1  0.41255178  0.84765860  0.65331644  1
  O2-  O503  1  0.41949671  0.84369049  0.97485543  1
  O2-  O504  1  0.65562840  0.07407156  0.31264689  1
  O2-  O505  1  0.74148915  0.11787724  0.65863255  1
  O2-  O506  1  0.68034539  0.08719777  0.98914799  1
  O2-  O507  1  0.66544659  0.34141059  0.30408861  1
  O2-  O508  1  0.66014739  0.32308707  0.65313027  1
  O2-  O509  1  0.65202954  0.32987858  0.98169077  1
  O2-  O510  1  0.67906342  0.59406656  0.30666323  1
  O2-  O511  1  0.65244052  0.57391817  0.65257419  1
  O2-  O512  1  0.65857371  0.56663459  0.97884789  1
  O2-  O513  1  0.65192472  0.83545947  0.31240168  1
  O2-  O514  1  0.62124048  0.82548303  0.63611120  1
  O2-  O515  1  0.65261417  0.82343575  0.97611230  1
  O2-  O516  1  0.88134126  0.07468591  0.31397296  1
  O2-  O517  1  0.91386068  0.08345379  0.65504539  1
  O2-  O518  1  0.90015323  0.05438809  0.98009790  1
  O2-  O519  1  0.88128301  0.32217633  0.31128938  1
  O2-  O520  1  0.91737958  0.32614420  0.65606285  1
  O2-  O521  1  0.96126134  0.30867351  0.97753719  1
  O2-  O522  1  0.95866701  0.64327521  0.31215179  1
  O2-  O523  1  0.94943626  0.63233056  0.61913514  1
  O2-  O524  1  0.90560612  0.58706523  0.97672896  1
  O2-  O525  1  0.93944122  0.89021311  0.30142346  1
  O2-  O526  1  0.90842775  0.82143105  0.65838746  1
  O2-  O527  1  0.91731945  0.83119743  0.97600026  1
  O2-  O528  1  0.13673457  0.20186221  0.04769042  1
  O2-  O529  1  0.04417402  0.17289445  0.35107301  1
  O2-  O530  1  0.06869099  0.15564893  0.69852087  1
  O2-  O531  1  0.12270335  0.41579736  0.02065284  1
  O2-  O532  1  0.04522571  0.41830726  0.35013256  1
  O2-  O533  1  0.08614728  0.40952571  0.68845516  1
  O2-  O534  1  0.04973192  0.70626984  0.03207111  1
  O2-  O535  1  0.11381521  0.68260424  0.34929141  1
  O2-  O536  1  0.09171985  0.66480450  0.68565332  1
  O2-  O537  1  0.08421803  0.91559983  0.01468109  1
  O2-  O538  1  0.07173334  0.89441393  0.36408903  1
  O2-  O539  1  0.07974991  0.90300246  0.69207933  1
  O2-  O540  1  0.34064961  0.16669299  0.01992214  1
  O2-  O541  1  0.37908496  0.20054381  0.34760712  1
  O2-  O542  1  0.33578581  0.15932195  0.69326817  1
  O2-  O543  1  0.31560843  0.40954478  0.01181421  1
  O2-  O544  1  0.39148006  0.38791425  0.34875387  1
  O2-  O545  1  0.32121665  0.38560456  0.62684587  1
  O2-  O546  1  0.32557408  0.67955222  0.01374691  1
  O2-  O547  1  0.30946387  0.59194442  0.28429679  1
  O2-  O548  1  0.32979262  0.68067087  0.69346561  1
  O2-  O549  1  0.34130130  0.92463916  0.02101949  1
  O2-  O550  1  0.33888518  0.93630052  0.35405433  1
  O2-  O551  1  0.32178389  0.91013642  0.69426855  1
  O2-  O552  1  0.59389118  0.16850848  0.02963824  1
  O2-  O553  1  0.59552837  0.18946644  0.34606479  1
  O2-  O554  1  0.59936664  0.12244882  0.69997681  1
  O2-  O555  1  0.57143825  0.41237192  0.02469392  1
  O2-  O556  1  0.61065306  0.43362456  0.34605194  1
  O2-  O557  1  0.57972650  0.41169377  0.69175795  1
  O2-  O558  1  0.54545482  0.66203015  0.02608678  1
  O2-  O559  1  0.58952195  0.66562009  0.34430349  1
  O2-  O560  1  0.56408566  0.65822078  0.68532691  1
  O2-  O561  1  0.58275136  0.91720809  0.01989236  1
  O2-  O562  1  0.56669596  0.91936262  0.36163706  1
  O2-  O563  1  0.57457497  0.95175667  0.69396134  1
  O2-  O564  1  0.84634758  0.15874814  0.03098060  1
  O2-  O565  1  0.81060440  0.16255915  0.36444883  1
  O2-  O566  1  0.82701872  0.16033504  0.68965988  1
  O2-  O567  1  0.81867759  0.42865954  0.01883024  1
  O2-  O568  1  0.83154825  0.41990027  0.36735460  1
  O2-  O569  1  0.83132154  0.40896584  0.70304194  1
  O2-  O570  1  0.82920774  0.66926574  0.01914664  1
  O2-  O571  1  0.83323951  0.68150172  0.36117253  1
  O2-  O572  1  0.82765385  0.65222474  0.68889674  1
  O2-  O573  1  0.81564667  0.88151377  0.02922606  1
  O2-  O574  1  0.80988097  0.91317871  0.36383966  1
  O2-  O575  1  0.83332030  0.91342264  0.70200129  1
