# generated using pymatgen
data_H2O
_symmetry_space_group_name_H-M   'P 1'
_cell_length_a   17.99537817
_cell_length_b   17.99825816
_cell_length_c   22.01535014
_cell_angle_alpha   90.00167811
_cell_angle_beta   89.99224990
_cell_angle_gamma   120.02174472
_symmetry_Int_Tables_number   1
_chemical_formula_structural   H2O
_chemical_formula_sum   'H384 O192'
_cell_volume   6173.79886938
_cell_formula_units_Z   192
loop_
 _symmetry_equiv_pos_site_id
 _symmetry_equiv_pos_as_xyz
  1  'x, y, z'
loop_
 _atom_type_symbol
 _atom_type_oxidation_number
  H+  1.0
  O2-  -2.0
loop_
 _atom_site_type_symbol
 _atom_site_label
 _atom_site_symmetry_multiplicity
 _atom_site_fract_x
 _atom_site_fract_y
 _atom_site_fract_z
 _atom_site_occupancy
  H+  H0  1  0.62650405  0.97253898  0.49320602  1
  H+  H1  1  0.34692389  0.96900992  0.48918026  1
  H+  H2  1  0.37488646  0.79044541  0.99566528  1
  H+  H3  1  0.35872184  0.88356615  0.34075671  1
  H+  H4  1  0.67115131  0.56405484  0.50883079  1
  H+  H5  1  0.62401814  0.38863581  0.01003685  1
  H+  H6  1  0.11943656  0.21445243  0.16247016  1
  H+  H7  1  0.34853583  0.96469267  0.82505437  1
  H+  H8  1  0.50645485  0.38028468  0.15139059  1
  H+  H9  1  0.63831683  0.77941048  0.17443826  1
  H+  H10  1  0.22255306  0.10513563  0.51317129  1
  H+  H11  1  0.88505439  0.07170964  0.99660526  1
  H+  H12  1  0.49203614  0.57382740  -0.01634627  1
  H+  H13  1  0.72159631  0.86415203  0.83740337  1
  H+  H14  1  0.59770847  0.64710928  0.35880831  1
  H+  H15  1  0.38490168  0.25910686  0.51736702  1
  H+  H16  1  0.10887579  0.97542729  0.15775263  1
  H+  H17  1  0.08295234  0.91405135  0.39523790  1
  H+  H18  1  0.12363104  0.69952588  0.86646673  1
  H+  H19  1  0.61251418  0.89644219  0.33664541  1
  H+  H20  1  0.59639310  0.47695973  0.14789726  1
  H+  H21  1  0.40703475  0.63822730  1.04333723  1
  H+  H22  1  0.67293989  0.84514890  0.23088737  1
  H+  H23  1  0.75272439  0.14547983  0.65747888  1
  H+  H24  1  0.53475991  0.14819833  0.16970975  1
  H+  H25  1  0.11813247  0.64651698  0.49343097  1
  H+  H26  1  0.64861327  0.28036464  0.18545881  1
  H+  H27  1  0.97026149  0.86505567  0.33257712  1
  H+  H28  1  0.02734795  0.14467079  0.49695518  1
  H+  H29  1  0.82326962  0.66383307  0.16697672  1
  H+  H30  1  0.26935457  0.46911700  0.91584560  1
  H+  H31  1  0.34812087  0.47132020  0.33071167  1
  H+  H32  1  0.61805451  0.74197471  0.51126937  1
  H+  H33  1  0.33892734  0.87679673  0.48996857  1
  H+  H34  1  0.17077273  0.33317452  0.94504367  1
  H+  H35  1  0.22301068  0.10553688  0.00777425  1
  H+  H36  1  0.89535097  0.76725888  -0.03023867  1
  H+  H37  1  0.23495099  0.08977885  0.87327269  1
  H+  H38  1  0.36819201  0.38618246  0.81138602  1
  H+  H39  1  0.79567123  0.39031329  0.67233355  1
  H+  H40  1  0.11575992  0.14056022  0.82581680  1
  H+  H41  1  0.27718144  0.13558539  0.17132120  1
  H+  H42  1  0.85202705  0.34556167  0.82751727  1
  H+  H43  1  0.11880508  0.61475860  0.64689179  1
  H+  H44  1  0.68863153  0.71753171  0.38147486  1
  H+  H45  1  0.51455871  0.88195836  0.83652031  1
  H+  H46  1  0.73405989  0.88063020  0.32563441  1
  H+  H47  1  0.88962186  0.86730933  0.17330451  1
  H+  H48  1  0.46703407  0.36799182  0.31980440  1
  H+  H49  1  0.63098603  0.26345867  0.68147783  1
  H+  H50  1  0.83979884  0.66653366  0.88687406  1
  H+  H51  1  0.39810198  0.77706184  0.18334378  1
  H+  H52  1  0.63020297  1.02430848  0.33190820  1
  H+  H53  1  0.87061832  0.13971940  0.67051050  1
  H+  H54  1  0.15413641  0.83010984  0.60088604  1
  H+  H55  1  0.27290353  0.89880160  0.15406264  1
  H+  H56  1  0.98093374  0.61683666  0.51041583  1
  H+  H57  1  0.87208698  0.47083809  -0.01112027  1
  H+  H58  1  0.10798272  0.96948824  0.01176318  1
  H+  H59  1  0.12907809  0.58878099  0.85133100  1
  H+  H60  1  0.87246273  0.13953808  0.48671839  1
  H+  H61  1  0.89246364  1.02614683  0.50630899  1
  H+  H62  1  0.88273174  0.23428210  0.67359926  1
  H+  H63  1  0.47457934  0.09592246  0.50121633  1
  H+  H64  1  0.73464174  0.86652203  0.51029810  1
  H+  H65  1  0.97767829  0.34687609  0.84047862  1
  H+  H66  1  0.12501608  0.89904086  0.82727219  1
  H+  H67  1  0.61260808  0.13765092  0.68336904  1
  H+  H68  1  0.26276146  0.12809243  0.65542227  1
  H+  H69  1  0.11109487  0.88363031  0.33562239  1
  H+  H70  1  0.36687226  0.85453863  0.83965723  1
  H+  H71  1  0.26636830  0.14165363  0.79726598  1
  H+  H72  1  0.33212019  0.15179444  0.57347491  1
  H+  H73  1  0.21820847  0.63723255  0.65152322  1
  H+  H74  1  0.07620411  0.91129099  0.09768907  1
  H+  H75  1  0.32878454  0.15772499  0.74207684  1
  H+  H76  1  0.17137943  0.59830087  0.56156870  1
  H+  H77  1  0.85500657  0.87668573  0.49723473  1
  H+  H78  1  0.64051619  0.02660091  0.17420230  1
  H+  H79  1  0.61257846  0.47740530  0.31672371  1
  H+  H80  1  0.91739229  0.29826247  -0.05422639  1
  H+  H81  1  0.22309783  0.37130835  0.51482039  1
  H+  H82  1  0.10068613  0.45643836  0.17576775  1
  H+  H83  1  0.47597546  0.62585759  0.51409781  1
  H+  H84  1  0.34038253  0.45364923  -0.00254693  1
  H+  H85  1  0.35193799  0.22245465  0.65634081  1
  H+  H86  1  0.77617735  0.12627727  0.17274611  1
  H+  H87  1  0.48756318  0.86544362  0.18196795  1
  H+  H88  1  0.36508401  0.47933788  0.15535118  1
  H+  H89  1  0.39410410  0.78325314  0.65572057  1
  H+  H90  1  0.91802782  0.08726276  0.56473464  1
  H+  H91  1  0.89045884  0.65122297  0.20238934  1
  H+  H92  1  0.59795855  0.60922647  0.65651953  1
  H+  H93  1  0.62682888  0.35635966  0.32738965  1
  H+  H94  1  0.13195607  0.85919407  0.17297533  1
  H+  H95  1  0.12976284  0.10442828  0.16726326  1
  H+  H96  1  0.07332518  0.69678085  0.66022348  1
  H+  H97  1  0.88448062  1.02725654  0.65742810  1
  H+  H98  1  1.01311235  0.61690384  1.01183283  1
  H+  H99  1  0.73676901  0.11391200  0.49771641  1
  H+  H100  1  0.77669394  0.88069254  0.16470023  1
  H+  H101  1  1.03251964  0.62867767  0.84178123  1
  H+  H102  1  0.25218035  0.88171208  0.82512147  1
  H+  H103  1  0.38188962  0.10889666  0.32254178  1
  H+  H104  1  0.15790675  0.38512749  0.84968626  1
  H+  H105  1  0.51645017  0.13809625  -0.00646172  1
  H+  H106  1  0.78280093  0.39017968  0.51658448  1
  H+  H107  1  0.64019644  0.35878611  0.85088383  1
  H+  H108  1  0.13576751  0.28303870  0.51074835  1
  H+  H109  1  0.10413935  0.22635972  0.34194550  1
  H+  H110  1  0.85758956  0.88147573  0.34562827  1
  H+  H111  1  0.88751024  0.29882431  0.36133228  1
  H+  H112  1  0.21697409  0.36070580  0.32979991  1
  H+  H113  1  0.24347383  0.34086245  0.18102724  1
  H+  H114  1  0.97692859  0.11372876  0.65780900  1
  H+  H115  1  0.61299686  0.73321931  0.67259812  1
  H+  H116  1  1.01808639  0.88440392  0.48898402  1
  H+  H117  1  0.88995038  0.25745527  0.84264350  1
  H+  H118  1  0.88544327  0.10658109  0.84122894  1
  H+  H119  1  -0.01704131  0.87226906  0.66696801  1
  H+  H120  1  0.26329139  0.62006330  0.34585084  1
  H+  H121  1  0.72642515  0.61742749  0.84493502  1
  H+  H122  1  0.88524812  0.77375682  0.33405073  1
  H+  H123  1  0.02224702  0.13200234  0.16050274  1
  H+  H124  1  0.78569661  0.63109952  -0.02724953  1
  H+  H125  1  0.63601250  0.86394874  0.65787049  1
  H+  H126  1  0.47141242  0.34932953  1.00362622  1
  H+  H127  1  0.51913155  0.88706528  0.34466501  1
  H+  H128  1  0.62343188  0.48240578  0.83646654  1
  H+  H129  1  0.76820131  0.12830222  0.82470814  1
  H+  H130  1  0.87688464  0.62718344  0.97346544  1
  H+  H131  1  0.22510518  0.85975055  0.32525278  1
  H+  H132  1  0.40201971  0.43147908  0.47398483  1
  H+  H133  1  0.86173395  -0.02654354  0.34566360  1
  H+  H134  1  0.66531522  0.39469723  0.55047119  1
  H+  H135  1  0.64103487  0.03511193  0.98561481  1
  H+  H136  1  0.79028110  0.63275710  0.32741206  1
  H+  H137  1  0.71783734  0.33888965  0.84736710  1
  H+  H138  1  0.10253541  0.12616911  0.66893235  1
  H+  H139  1  0.83664002  0.72387399  0.67259620  1
  H+  H140  1  0.64484459  0.79623109  0.32528274  1
  H+  H141  1  0.83937859  0.93136034  1.00628053  1
  H+  H142  1  0.63178098  0.10647379  0.83535592  1
  H+  H143  1  0.82933798  0.89267677  0.07213944  1
  H+  H144  1  0.14310831  1.02180285  0.84527487  1
  H+  H145  1  -0.02660958  0.07752536  -0.01286206  1
  H+  H146  1  0.35583711  0.21730049  0.02091759  1
  H+  H147  1  0.38963713  0.52134278  0.82001360  1
  H+  H148  1  0.87298500  0.63472951  0.49040443  1
  H+  H149  1  0.63187563  0.11499823  0.32858017  1
  H+  H150  1  0.97126412  0.32786303  1.00679070  1
  H+  H151  1  0.61706776  0.47723548  0.00727420  1
  H+  H152  1  0.89970039  0.54293170  0.66565834  1
  H+  H153  1  0.11129540  0.36963742  1.02280906  1
  H+  H154  1  0.47904467  0.35758952  0.83158777  1
  H+  H155  1  0.13025367  0.61312670  0.16185033  1
  H+  H156  1  0.88710964  0.52795983  0.32272654  1
  H+  H157  1  0.24231364  0.65343087  0.01518711  1
  H+  H158  1  0.38691755  0.36344351  0.16546907  1
  H+  H159  1  0.36704886  0.60735025  0.32316073  1
  H+  H160  1  0.12656963  0.10944458  0.32555106  1
  H+  H161  1  0.88700925  0.48219285  0.18265853  1
  H+  H162  1  0.11280699  0.88538896  0.67554782  1
  H+  H163  1  0.37491270  0.10604738  0.83028150  1
  H+  H164  1  0.36651359  0.12257836  0.51830563  1
  H+  H165  1  0.12597144  0.77465302  0.50489087  1
  H+  H166  1  0.12716891  0.02030881  0.32429235  1
  H+  H167  1  0.73168186  0.36587509  -0.00477189  1
  H+  H168  1  0.50667612  0.60761842  0.95940956  1
  H+  H169  1  0.39047764  0.27264940  0.81477493  1
  H+  H170  1  0.62286490  0.14773256  0.16947715  1
  H+  H171  1  0.38855140  0.53641440  0.50472008  1
  H+  H172  1  0.65906163  0.62562492  0.99771540  1
  H+  H173  1  -0.02558943  0.10976477  0.33392903  1
  H+  H174  1  0.63033277  0.11707850  0.98059640  1
  H+  H175  1  0.61239932  0.72852450  0.82411729  1
  H+  H176  1  0.89257439  0.34795755  0.20433052  1
  H+  H177  1  0.60606380  0.22189170  1.00681580  1
  H+  H178  1  0.38942289  0.03081101  0.16938723  1
  H+  H179  1  0.21144355  0.84937471  0.66034119  1
  H+  H180  1  0.77498831  0.29385105  0.78358466  1
  H+  H181  1  0.38751635  0.27263152  0.17169898  1
  H+  H182  1  0.00318041  0.36085185  0.65733205  1
  H+  H183  1  0.02412521  0.63109699  0.33716539  1
  H+  H184  1  0.13876514  0.35413076  0.61220338  1
  H+  H185  1  0.10442728  0.45434958  0.02219626  1
  H+  H186  1  0.35147977  0.96295861  0.67522055  1
  H+  H187  1  0.15727276  0.56141293  0.11894662  1
  H+  H188  1  0.85819857  0.97565838  0.82587974  1
  H+  H189  1  0.60506024  -0.03005474  0.83360590  1
  H+  H190  1  0.14289776  0.86561195  0.98569770  1
  H+  H191  1  0.87171479  0.39260207  0.50615476  1
  H+  H192  1  0.59860097  0.21654722  0.83573199  1
  H+  H193  1  0.34733615  0.47211349  0.66664083  1
  H+  H194  1  0.26344573  0.36480955  0.01337156  1
  H+  H195  1  0.37009372  0.76676959  0.84353173  1
  H+  H196  1  0.92503273  0.84721788  0.88968276  1
  H+  H197  1  0.26897091  0.63943739  0.48982424  1
  H+  H198  1  0.25180561  0.39019195  0.67117353  1
  H+  H199  1  0.37732352  0.11442417  -0.00699723  1
  H+  H200  1  0.86761465  0.96950049  0.16485890  1
  H+  H201  1  0.50823790  0.12744734  0.83134679  1
  H+  H202  1  0.90210947  0.28041224  0.50347018  1
  H+  H203  1  0.91800395  0.37135514  0.65854265  1
  H+  H204  1  0.71573341  0.76672609  0.03708180  1
  H+  H205  1  0.43500618  0.68132366  0.02898578  1
  H+  H206  1  0.52070288  0.89733154  0.00664049  1
  H+  H207  1  0.35688930  0.63053981  0.82566304  1
  H+  H208  1  0.52306468  0.89384285  0.65560999  1
  H+  H209  1  0.74074959  0.36469434  0.19350764  1
  H+  H210  1  0.51854327  0.64404698  0.15282846  1
  H+  H211  1  0.13768180  0.76944688  0.32512401  1
  H+  H212  1  0.38036779  0.02812285  0.98649170  1
  H+  H213  1  0.38344802  0.77151168  0.33338064  1
  H+  H214  1  0.64037275  0.63390424  0.51644137  1
  H+  H215  1  0.35543758  0.22076445  0.32693142  1
  H+  H216  1  0.86674065  0.89559957  0.67438906  1
  H+  H217  1  0.90354879  0.78302816  0.19671503  1
  H+  H218  1  0.86363988  0.72917998  0.83181286  1
  H+  H219  1  0.36470239  0.35696344  0.65396912  1
  H+  H220  1  1.02193558  0.63471701  0.16605899  1
  H+  H221  1  0.21698103  0.58943765  0.84803081  1
  H+  H222  1  0.27201480  0.64119587  0.16221147  1
  H+  H223  1  0.15470734  0.55930914  0.94455315  1
  H+  H224  1  0.11977982  0.40252579  0.48711873  1
  H+  H225  1  0.39977050  0.08236916  0.89549630  1
  H+  H226  1  0.08237526  0.66961533  0.43446185  1
  H+  H227  1  0.76368054  0.13214859  0.32913616  1
  H+  H228  1  0.36623777  0.90322676  0.99937855  1
  H+  H229  1  0.88949871  0.87228930  0.83142621  1
  H+  H230  1  0.85161106  0.20238176  0.30007131  1
  H+  H231  1  0.88161088  0.64153390  0.33235926  1
  H+  H232  1  0.27402337  0.89814934  -0.00672399  1
  H+  H233  1  0.11240108  0.13002268  1.01040119  1
  H+  H234  1  0.85082933  0.41190492  0.73026135  1
  H+  H235  1  0.12822031  0.79697098  0.82530842  1
  H+  H236  1  0.03479306  0.90580281  0.82366318  1
  H+  H237  1  0.38016580  0.86366121  0.65872819  1
  H+  H238  1  0.66854649  0.62165027  0.29104312  1
  H+  H239  1  0.60379895  0.11649069  0.48722641  1
  H+  H240  1  0.86814919  0.21099424  0.17904177  1
  H+  H241  1  0.26782710  0.13273382  0.32741885  1
  H+  H242  1  0.69690055  0.60487116  0.13053313  1
  H+  H243  1  0.86211471  0.74595543  0.50587015  1
  H+  H244  1  0.88940614  0.57114989  1.03569705  1
  H+  H245  1  0.76814562  0.40018955  0.33706630  1
  H+  H246  1  0.90157442  0.58416413  0.14316799  1
  H+  H247  1  0.13530366  0.37074497  0.32142363  1
  H+  H248  1  0.10578758  0.62021670  0.34724256  1
  H+  H249  1  0.35150624  0.32274434  0.50842621  1
  H+  H250  1  0.62210522  0.61552991  0.15889570  1
  H+  H251  1  0.11724530  0.58807290  0.00204445  1
  H+  H252  1  0.13012251  0.25793652  0.99686655  1
  H+  H253  1  0.85881246  0.40616289  0.34811854  1
  H+  H254  1  0.62151870  0.89592271  0.15639206  1
  H+  H255  1  0.51849366  0.13318612  0.33652427  1
  H+  H256  1  0.61482534  0.97742603  0.65517739  1
  H+  H257  1  0.90036925  0.61333996  0.84219696  1
  H+  H258  1  0.88288209  0.10470706  0.32592868  1
  H+  H259  1  0.64104837  0.35695763  0.68154333  1
  H+  H260  1  0.38337754  0.61883628  0.16242666  1
  H+  H261  1  0.47251356  0.60960310  0.66076363  1
  H+  H262  1  0.38514901  0.64779973  0.67829449  1
  H+  H263  1  0.59182734  0.51150358  0.65734756  1
  H+  H264  1  0.52340808  0.63756914  0.82302990  1
  H+  H265  1  0.24753480  0.38628383  0.84572190  1
  H+  H266  1  0.03097996  0.40011457  0.48603086  1
  H+  H267  1  0.38327477  0.34991766  1.00448804  1
  H+  H268  1  0.47257138  1.10032823  0.66418726  1
  H+  H269  1  0.35304999  0.38450065  0.33258502  1
  H+  H270  1  0.36037046  0.64241522  0.49375172  1
  H+  H271  1  0.59220065  0.91229424  0.43532654  1
  H+  H272  1  0.89257854  0.52636305  0.51565655  1
  H+  H273  1  0.54294342  0.76556593  0.95250447  1
  H+  H274  1  0.11052286  0.46035729  0.82347968  1
  H+  H275  1  0.88472738  0.09771507  0.18197799  1
  H+  H276  1  0.63026737  0.73948234  0.00512655  1
  H+  H277  1  0.14115342  0.53680854  0.50162519  1
  H+  H278  1  0.62908231  0.86230279  0.83715512  1
  H+  H279  1  0.49563578  0.38356073  0.67618442  1
  H+  H280  1  0.13503719  1.01624609  0.65905604  1
  H+  H281  1  0.60766055  0.22368106  0.34004150  1
  H+  H282  1  0.99356731  0.87640418  0.16712428  1
  H+  H283  1  0.57747648  0.40866363  0.48164318  1
  H+  H284  1  0.36992519  0.77477600  0.50031846  1
  H+  H285  1  0.13087722  0.02111281  0.50052606  1
  H+  H286  1  0.45401987  0.60593756  0.31734024  1
  H+  H287  1  0.11602885  0.14488691  0.49543656  1
  H+  H288  1  0.38599925  0.10220349  0.65362892  1
  H+  H289  1  0.60959211  0.42118152  0.78042796  1
  H+  H290  1  0.57177025  0.14822475  0.43077493  1
  H+  H291  1  0.41137692  0.83813353  0.93180366  1
  H+  H292  1  0.67108775  0.44004234  0.45912539  1
  H+  H293  1  0.60282083  0.88870872  0.00246152  1
  H+  H294  1  0.39712444  0.83451744  0.55922957  1
  H+  H295  1  0.08188889  0.17098464  0.40283951  1
  H+  H296  1  0.59702830  0.68691559  0.10173515  1
  H+  H297  1  0.14291855  0.53864195  0.28554949  1
  H+  H298  1  0.87173701  0.69280099  0.07877719  1
  H+  H299  1  0.86273859  0.17745972  1.01808292  1
  H+  H300  1  0.15406401  0.07524753  0.22943679  1
  H+  H301  1  0.91477897  0.06836201  0.89725924  1
  H+  H302  1  0.65994883  0.58139007  0.93425653  1
  H+  H303  1  0.68702119  0.57731040  0.23878506  1
  H+  H304  1  0.64528696  0.86899393  0.50712775  1
  H+  H305  1  0.85733106  0.41238099  0.13075348  1
  H+  H306  1  0.57184836  0.15608106  0.74353733  1
  H+  H307  1  0.09309898  0.92687724  0.73509226  1
  H+  H308  1  0.88439708  0.84622978  0.99198722  1
  H+  H309  1  0.84698426  0.66383639  0.42776809  1
  H+  H310  1  0.36905368  0.13785385  0.17216684  1
  H+  H311  1  1.02045713  0.87906272  1.00525588  1
  H+  H312  1  0.92025915  0.83637704  0.60936141  1
  H+  H313  1  0.10526120  0.45601381  0.39480920  1
  H+  H314  1  0.63490383  0.61410297  0.83780090  1
  H+  H315  1  0.32561219  0.41129815  0.75626640  1
  H+  H316  1  0.84648900  0.12851190  0.07970275  1
  H+  H317  1  0.38273916  0.01980767  0.32681492  1
  H+  H318  1  0.67288256  0.32874280  0.58898781  1
  H+  H319  1  0.52671937  0.43694333  0.73521513  1
  H+  H320  1  0.11484122  0.72581543  0.16368561  1
  H+  H321  1  0.10554732  0.88176850  0.49325779  1
  H+  H322  1  0.41907717  0.08151525  0.23332147  1
  H+  H323  1  0.29430978  0.54916441  0.95909239  1
  H+  H324  1  0.82725569  0.91811171  0.76578563  1
  H+  H325  1  0.16387130  0.07723403  0.94727948  1
  H+  H326  1  0.92839734  0.58718229  0.26312319  1
  H+  H327  1  0.57682713  0.41452958  0.08418491  1
  H+  H328  1  0.32876345  0.93252323  0.09348011  1
  H+  H329  1  0.83412643  0.91482084  0.43696537  1
  H+  H330  1  0.93743638  0.33644330  0.56436339  1
  H+  H331  1  0.63261704  0.81436185  0.91875426  1
  H+  H332  1  0.32858944  0.65835301  0.40161443  1
  H+  H333  1  0.68223613  0.08793850  0.55860222  1
  H+  H334  1  0.66666721  0.08138109  0.23622383  1
  H+  H335  1  0.32634616  0.68804629  0.10528457  1
  H+  H336  1  0.31893691  0.90294788  0.73448205  1
  H+  H337  1  0.63685080  0.57970081  0.59041626  1
  H+  H338  1  0.09374289  0.39998760  0.76434332  1
  H+  H339  1  0.58558377  0.92431499  0.09961373  1
  H+  H340  1  0.67076503  0.83362254  0.60258500  1
  H+  H341  1  0.07147020  0.39019761  0.12266364  1
  H+  H342  1  0.33811842  0.42865588  0.42425997  1
  H+  H343  1  0.86895671  0.37827439  -0.00607425  1
  H+  H344  1  0.16586360  0.83248178  0.23146173  1
  H+  H345  1  0.66227824  0.33113642  0.94360387  1
  H+  H346  1  0.91863969  0.59646488  0.60566823  1
  H+  H347  1  0.25418738  0.73725930  0.04581759  1
  H+  H348  1  0.15510179  0.07207875  0.59676027  1
  H+  H349  1  0.21337188  0.86509083  0.50331563  1
  H+  H350  1  0.39424573  0.56626983  0.88143786  1
  H+  H351  1  0.07594440  0.15834238  0.72782884  1
  H+  H352  1  0.92056799  0.57638449  0.89985092  1
  H+  H353  1  0.40615567  0.33449985  0.59662160  1
  H+  H354  1  0.41024576  0.33831107  0.26028645  1
  H+  H355  1  0.77422645  0.88967865  0.67269482  1
  H+  H356  1  0.42144961  0.83241336  0.27508525  1
  H+  H357  1  0.32370787  0.66410030  0.77299583  1
  H+  H358  1  0.41981917  0.06367787  0.56379080  1
  H+  H359  1  0.71152886  0.18801927  0.61741891  1
  H+  H360  1  0.58824394  0.43865085  0.38277608  1
  H+  H361  1  0.97740323  0.34251782  0.20161208  1
  H+  H362  1  0.41161301  0.58416765  0.60174030  1
  H+  H363  1  0.66695916  0.33099897  0.27181348  1
  H+  H364  1  0.66525183  0.08349834  0.89590867  1
  H+  H365  1  0.17245529  0.85023594  0.92046048  1
  H+  H366  1  0.83165563  0.63673488  0.66455570  1
  H+  H367  1  0.58345548  0.67206262  0.73323919  1
  H+  H368  1  0.33401489  0.41582906  0.09772517  1
  H+  H369  1  0.92343154  0.34229040  0.29805696  1
  H+  H370  1  0.40869144  0.58682586  0.22181910  1
  H+  H371  1  0.02453081  0.13196270  0.82354316  1
  H+  H372  1  0.83575866  0.70290291  0.07963642  1
  H+  H373  1  0.17983855  0.31046485  0.23796407  1
  H+  H374  1  0.58732907  0.68432092  0.45243152  1
  H+  H375  1  0.91946183  0.06750965  0.23795215  1
  H+  H376  1  0.83355662  0.16078989  0.76744902  1
  H+  H377  1  0.84487302  0.17093774  0.42717368  1
  H+  H378  1  0.32196058  0.91197527  0.39721694  1
  H+  H379  1  0.81314913  0.76497102  0.55603520  1
  H+  H380  1  0.07669797  0.64927225  0.06959150  1
  H+  H381  1  0.43824077  0.72844913  0.71936332  1
  H+  H382  1  0.32861812  0.15613255  0.07934001  1
  H+  H383  1  0.07511082  0.16058314  0.06413924  1
  O2-  O384  1  0.07975536  0.15852198  0.14097143  1
  O2-  O385  1  0.08813357  0.17814790  0.48214287  1
  O2-  O386  1  0.08318927  0.16372329  0.80583814  1
  O2-  O387  1  0.07161903  0.39435351  0.16769920  1
  O2-  O388  1  0.09146316  0.43343162  0.47016681  1
  O2-  O389  1  0.08534627  0.39956057  0.80926188  1
  O2-  O390  1  0.08491694  0.66432182  0.15044017  1
  O2-  O391  1  0.08399407  0.67377798  0.47962620  1
  O2-  O392  1  0.09667372  0.65531008  0.83547524  1
  O2-  O393  1  0.07542047  0.91309531  0.14420042  1
  O2-  O394  1  0.07771092  0.91489290  0.47547618  1
  O2-  O395  1  0.09654302  0.93723714  0.81163365  1
  O2-  O396  1  0.33788320  0.16907928  0.15767013  1
  O2-  O397  1  0.33433172  0.15445177  0.52872924  1
  O2-  O398  1  0.32659419  0.16127054  0.78725797  1
  O2-  O399  1  0.33935989  0.41810085  0.14325396  1
  O2-  O400  1  0.35022557  0.43574530  0.46954848  1
  O2-  O401  1  0.33741941  0.41839626  0.80084523  1
  O2-  O402  1  0.33293154  0.67393661  0.14789364  1
  O2-  O403  1  0.32989886  0.66840934  0.47278557  1
  O2-  O404  1  0.32009369  0.65673556  0.81768440  1
  O2-  O405  1  0.33180366  0.93529301  0.13852051  1
  O2-  O406  1  0.31007544  0.90938754  0.47334517  1
  O2-  O407  1  0.31634297  0.90432453  0.81086943  1
  O2-  O408  1  0.59678925  0.18348725  0.16038700  1
  O2-  O409  1  0.56729601  0.14084731  0.47575902  1
  O2-  O410  1  0.56941711  0.15825858  0.81667327  1
  O2-  O411  1  0.56880817  0.41571689  0.13404045  1
  O2-  O412  1  0.62736393  0.45696293  0.46246341  1
  O2-  O413  1  0.59781969  0.41999096  0.82387120  1
  O2-  O414  1  0.58249469  0.67403668  0.14581413  1
  O2-  O415  1  0.58259760  0.67887130  0.49694416  1
  O2-  O416  1  0.58451514  0.66750098  0.80888188  1
  O2-  O417  1  0.58867737  0.92470380  0.14510367  1
  O2-  O418  1  0.60034836  0.91182035  0.47998076  1
  O2-  O419  1  0.57533801  0.90731215  0.82427591  1
  O2-  O420  1  0.83893587  0.15173364  0.16233633  1
  O2-  O421  1  0.84348325  0.17155739  0.47179337  1
  O2-  O422  1  0.83065641  0.15768573  0.81264788  1
  O2-  O423  1  0.85825192  0.41770965  0.17482581  1
  O2-  O424  1  0.84054330  0.42399139  0.49866531  1
  O2-  O425  1  0.80517139  0.34906740  0.80434279  1
  O2-  O426  1  0.85617509  0.68271521  0.20447083  1
  O2-  O427  1  0.84210288  0.66330175  0.47262288  1
  O2-  O428  1  0.83233149  0.66673863  0.84124713  1
  O2-  O429  1  0.83791531  0.90762653  0.15029228  1
  O2-  O430  1  0.83661683  0.91768020  0.48257571  1
  O2-  O431  1  0.82479169  0.91440875  0.81127137  1
  O2-  O432  1  0.15984600  0.07450144  0.18409033  1
  O2-  O433  1  0.15944151  0.08028340  0.51804520  1
  O2-  O434  1  0.17796441  0.08179918  0.86624070  1
  O2-  O435  1  0.19692415  0.29022416  0.20174602  1
  O2-  O436  1  0.16217616  0.34382690  0.52540960  1
  O2-  O437  1  0.20431459  0.38491897  0.87491814  1
  O2-  O438  1  0.16095547  0.57737902  0.16170161  1
  O2-  O439  1  0.17339218  0.59793837  0.51471733  1
  O2-  O440  1  0.15752304  0.55457773  0.86412338  1
  O2-  O441  1  0.16426368  0.83071781  0.18595825  1
  O2-  O442  1  0.15278634  0.83560676  0.51989400  1
  O2-  O443  1  0.16332821  0.85216608  0.84511672  1
  O2-  O444  1  0.42121943  0.09000572  0.18830320  1
  O2-  O445  1  0.41370652  0.06821454  0.51927042  1
  O2-  O446  1  0.40275002  0.07686605  0.84983450  1
  O2-  O447  1  0.42054760  0.33638721  0.18124999  1
  O2-  O448  1  0.40427794  0.32250665  0.51874232  1
  O2-  O449  1  0.41644144  0.33284718  0.82835307  1
  O2-  O450  1  0.41528450  0.58937317  0.17684096  1
  O2-  O451  1  0.41378815  0.59292919  0.52570489  1
  O2-  O452  1  0.41586560  0.58043085  0.83892405  1
  O2-  O453  1  0.43289735  0.83221844  0.20458155  1
  O2-  O454  1  0.38964300  0.83395196  0.51457636  1
  O2-  O455  1  0.40018426  0.82776430  0.85662102  1
  O2-  O456  1  0.67430459  0.08601871  0.19121974  1
  O2-  O457  1  0.67719127  0.08021382  0.51413923  1
  O2-  O458  1  0.66533505  0.07953386  0.84884311  1
  O2-  O459  1  0.67947040  0.34047633  0.20307442  1
  O2-  O460  1  0.67417291  0.34597013  0.54590449  1
  O2-  O461  1  0.65993370  0.31903214  0.86526283  1
  O2-  O462  1  0.65397245  0.58161735  0.16276331  1
  O2-  O463  1  0.67382411  0.60898235  0.53578245  1
  O2-  O464  1  0.66312608  0.58330824  0.85573936  1
  O2-  O465  1  0.67427558  0.84107354  0.18544273  1
  O2-  O466  1  0.67446089  0.83720059  0.52649491  1
  O2-  O467  1  0.65967272  0.82965141  0.85001063  1
  O2-  O468  1  0.91728391  0.06694927  0.19259062  1
  O2-  O469  1  0.92078060  0.08764553  0.51885755  1
  O2-  O470  1  0.91673299  0.07572155  0.85200942  1
  O2-  O471  1  0.91749480  0.31294748  0.21970955  1
  O2-  O472  1  0.93377423  0.34002031  0.51914940  1
  O2-  O473  1  0.91933562  0.31755159  0.85905847  1
  O2-  O474  1  0.92725660  0.58782283  0.18276732  1
  O2-  O475  1  0.92124764  0.58927828  0.52653456  1
  O2-  O476  1  0.93013755  0.58271724  0.85590174  1
  O2-  O477  1  0.93110023  0.84751084  0.18875567  1
  O2-  O478  1  0.86562418  0.79587299  0.53196836  1
  O2-  O479  1  0.92499044  0.84643537  0.84442414  1
  O2-  O480  1  0.15496151  0.07959269  0.30699357  1
  O2-  O481  1  0.16385572  0.07672124  0.64173133  1
  O2-  O482  1  0.16178359  0.07498730  0.99240809  1
  O2-  O483  1  0.15679512  0.33081491  0.31397975  1
  O2-  O484  1  0.14331960  0.35112512  0.65696404  1
  O2-  O485  1  0.16403731  0.32204651  0.98957457  1
  O2-  O486  1  0.15019809  0.54634183  0.32977691  1
  O2-  O487  1  0.16478438  0.59956099  0.63080082  1
  O2-  O488  1  0.15655252  0.56364991  0.98996018  1
  O2-  O489  1  0.16412384  0.82932848  0.30980994  1
  O2-  O490  1  0.15131145  0.82584654  0.64600643  1
  O2-  O491  1  0.18076914  0.84817017  0.96563704  1
  O2-  O492  1  0.41538082  0.07984337  0.31101343  1
  O2-  O493  1  0.41458714  0.06845869  0.64511943  1
  O2-  O494  1  0.40645099  0.08849634  0.96981906  1
  O2-  O495  1  0.40639034  0.33814940  0.30551956  1
  O2-  O496  1  0.40087457  0.33108053  0.64206676  1
  O2-  O497  1  0.40968838  0.31428557  0.99500776  1
  O2-  O498  1  0.39545442  0.57672010  0.30207939  1
  O2-  O499  1  0.41132225  0.57971971  0.64734645  1
  O2-  O500  1  0.31789237  0.51640870  0.94035656  1
  O2-  O501  1  0.41550832  0.83253724  0.32124368  1
  O2-  O502  1  0.41523357  0.84124408  0.63851587  1
  O2-  O503  1  0.41798953  0.84567823  0.97720513  1
  O2-  O504  1  0.66313479  0.08410124  0.31506406  1
  O2-  O505  1  0.69643866  0.13382852  0.63730218  1
  O2-  O506  1  0.66454703  0.09068527  0.96466670  1
  O2-  O507  1  0.66048877  0.32806301  0.31864132  1
  O2-  O508  1  0.66889698  0.32510845  0.66827080  1
  O2-  O509  1  0.66766219  0.34001318  0.98850131  1
  O2-  O510  1  0.68492618  0.57844074  0.28385304  1
  O2-  O511  1  0.59665741  0.55967737  0.63138562  1
  O2-  O512  1  0.66738237  0.57983547  0.97934570  1
  O2-  O513  1  0.67431290  0.85384989  0.30714409  1
  O2-  O514  1  0.66676253  0.83143851  0.64814262  1
  O2-  O515  1  0.60430344  0.79884269  0.96087667  1
  O2-  O516  1  0.91470004  0.07392781  0.31702807  1
  O2-  O517  1  0.91536390  0.08715874  0.64110178  1
  O2-  O518  1  0.91264321  0.04301774  0.97354950  1
  O2-  O519  1  0.91852197  0.35460898  0.34148957  1
  O2-  O520  1  0.94105141  0.33481326  0.64327693  1
  O2-  O521  1  0.91193089  0.29436045  0.99049374  1
  O2-  O522  1  0.92840152  0.59000378  0.30796297  1
  O2-  O523  1  0.90949523  0.59862601  0.65032804  1
  O2-  O524  1  0.91365081  0.57829422  0.99512037  1
  O2-  O525  1  0.90753713  0.83546091  0.32466331  1
  O2-  O526  1  0.92171977  0.84634686  0.65343821  1
  O2-  O527  1  0.92392793  0.83185469  0.96984508  1
  O2-  O528  1  0.07740783  0.15814630  0.01867019  1
  O2-  O529  1  0.07675791  0.16623217  0.35757634  1
  O2-  O530  1  0.07044521  0.15432815  0.68260156  1
  O2-  O531  1  0.07772422  0.39559731  0.03960883  1
  O2-  O532  1  0.11362812  0.45654202  0.34913200  1
  O2-  O533  1  0.10308315  0.39706402  0.68120372  1
  O2-  O534  1  0.07481352  0.63842332  0.02530966  1
  O2-  O535  1  0.08415284  0.65991759  0.35483661  1
  O2-  O536  1  0.05443896  0.63628405  0.66991304  1
  O2-  O537  1  0.07835861  0.90813854  0.02543328  1
  O2-  O538  1  0.08177629  0.91516733  0.35006374  1
  O2-  O539  1  0.08784504  0.92179073  0.68952052  1
  O2-  O540  1  0.32301868  0.15502890  0.03406677  1
  O2-  O541  1  0.32876028  0.16047437  0.34028736  1
  O2-  O542  1  0.32803147  0.15928376  0.66197327  1
  O2-  O543  1  0.32653407  0.40300229  0.02290715  1
  O2-  O544  1  0.32302088  0.41412978  0.35071815  1
  O2-  O545  1  0.31408264  0.41036008  0.67873094  1
  O2-  O546  1  0.28628541  0.70828792  0.03588855  1
  O2-  O547  1  0.32523708  0.65450117  0.35517912  1
  O2-  O548  1  0.38177693  0.69510603  0.70066125  1
  O2-  O549  1  0.33317342  0.93072250  0.01329716  1
  O2-  O550  1  0.32625752  0.91346380  0.35158359  1
  O2-  O551  1  0.31988572  0.90203931  0.68862451  1
  O2-  O552  1  0.57559460  0.15876481  0.00834889  1
  O2-  O553  1  0.57883162  0.16165743  0.35246621  1
  O2-  O554  1  0.57482996  0.15959936  0.69739116  1
  O2-  O555  1  0.58913093  0.41742328  0.02414318  1
  O2-  O556  1  0.57547731  0.42366459  0.33944953  1
  O2-  O557  1  0.54992982  0.42266214  0.69974318  1
  O2-  O558  1  0.65707656  0.71637732  0.03409719  1
  O2-  O559  1  0.62993323  0.70541695  0.37454802  1
  O2-  O560  1  0.57871428  0.67146250  0.68753108  1
  O2-  O561  1  0.58106047  0.92362322  0.02177196  1
  O2-  O562  1  0.58114311  0.92181494  0.35710841  1
  O2-  O563  1  0.58427458  0.91776274  0.66804500  1
  O2-  O564  1  0.84536168  0.12038904  0.03536626  1
  O2-  O565  1  0.82880019  0.16397196  0.33520161  1
  O2-  O566  1  0.84378262  0.17342229  0.68721635  1
  O2-  O567  1  0.83454672  0.40673875  -0.00864138  1
  O2-  O568  1  0.82883041  0.43991693  0.34878962  1
  O2-  O569  1  0.85588361  0.42071629  0.68581772  1
  O2-  O570  1  0.84623960  0.66281438  -0.04056084  1
  O2-  O571  1  0.84553604  0.66613965  0.34839913  1
  O2-  O572  1  0.79454522  0.66253184  0.66825936  1
  O2-  O573  1  0.81669987  0.87606201  0.02852332  1
  O2-  O574  1  0.82586903  0.91249989  0.35982307  1
  O2-  O575  1  0.83423331  0.92463679  0.68800791  1
