# generated using pymatgen
data_H2O
_symmetry_space_group_name_H-M   'P 1'
_cell_length_a   17.99000190
_cell_length_b   17.99130359
_cell_length_c   21.98821843
_cell_angle_alpha   90.00045649
_cell_angle_beta   89.98555206
_cell_angle_gamma   120.00368899
_symmetry_Int_Tables_number   1
_chemical_formula_structural   H2O
_chemical_formula_sum   'H384 O192'
_cell_volume   6163.08776769
_cell_formula_units_Z   192
loop_
 _symmetry_equiv_pos_site_id
 _symmetry_equiv_pos_as_xyz
  1  'x, y, z'
loop_
 _atom_type_symbol
 _atom_type_oxidation_number
  H+  1.0
  O2-  -2.0
loop_
 _atom_site_type_symbol
 _atom_site_label
 _atom_site_symmetry_multiplicity
 _atom_site_fract_x
 _atom_site_fract_y
 _atom_site_fract_z
 _atom_site_occupancy
  H+  H0  1  0.71933759  0.11675114  0.81859792  1
  H+  H1  1  0.90191723  0.90509822  0.98775025  1
  H+  H2  1  0.97510131  0.37456818  0.83924512  1
  H+  H3  1  0.38187115  0.88931503  0.66993130  1
  H+  H4  1  0.88735991  0.80148319  0.23770182  1
  H+  H5  1  0.47211888  0.86121123  0.32719918  1
  H+  H6  1  0.91071003  0.90256788  0.02099990  1
  H+  H7  1  0.38939532  0.12767281  0.50969012  1
  H+  H8  1  0.85983546  0.39212744  0.15220429  1
  H+  H9  1  1.00783015  0.87965419  0.95612875  1
  H+  H10  1  0.36518915  0.23408486  0.67311066  1
  H+  H11  1  0.60416966  0.37387225  0.83410486  1
  H+  H12  1  0.12294336  0.52106276  0.84569527  1
  H+  H13  1  1.04351186  0.15544735  0.50007369  1
  H+  H14  1  0.29260119  0.06698218  0.37750005  1
  H+  H15  1  0.20903173  0.61082663  0.84206167  1
  H+  H16  1  0.90105613  0.02596731  0.66398667  1
  H+  H17  1  0.35425949  -0.01371360  0.49098822  1
  H+  H18  1  0.11390389  0.72639600  0.48986529  1
  H+  H19  1  0.72577085  0.35342295  0.17553541  1
  H+  H20  1  0.94732744  0.02513676  0.52841900  1
  H+  H21  1  0.76144823  0.16017645  0.54862301  1
  H+  H22  1  0.85701961  0.86101722  0.33630361  1
  H+  H23  1  0.10210712  0.73229639  0.16029654  1
  H+  H24  1  0.46693006  0.11155826  0.99044436  1
  H+  H25  1  0.09011798  0.18355671  0.43494617  1
  H+  H26  1  0.95832694  0.81901489  0.18992939  1
  H+  H27  1  0.88489570  0.60440197  -0.00463182  1
  H+  H28  1  0.73032268  0.85506291  0.64595463  1
  H+  H29  1  0.38429588  0.11313194  0.66512696  1
  H+  H30  1  0.03311034  0.67438798  0.32809585  1
  H+  H31  1  0.73051281  0.15261494  0.84067446  1
  H+  H32  1  0.39472593  0.61302672  0.16103361  1
  H+  H33  1  0.36486284  0.72092111  0.34450479  1
  H+  H34  1  0.59120787  0.09054716  0.52125726  1
  H+  H35  1  0.88099104  0.37092684  0.83929251  1
  H+  H36  1  0.49425055  0.36768365  0.15039375  1
  H+  H37  1  0.17800561  0.34883309  0.89396590  1
  H+  H38  1  0.53949237  0.40531519  0.48669721  1
  H+  H39  1  0.06574422  0.65396291  0.76309886  1
  H+  H40  1  0.37202978  0.22089598  0.83680607  1
  H+  H41  1  0.14478171  0.52486059  0.31810644  1
  H+  H42  1  0.87011264  0.85496917  0.50024794  1
  H+  H43  1  0.22959339  0.37519446  0.98752908  1
  H+  H44  1  0.89229230  0.27025708  0.46579641  1
  H+  H45  1  0.12458692  0.49055504  0.48753079  1
  H+  H46  1  0.39013480  0.75630373  0.51603911  1
  H+  H47  1  1.02755714  0.89282072  0.66817104  1
  H+  H48  1  0.11687934  0.98466620  0.16673129  1
  H+  H49  1  0.47386644  0.36322564  1.01401878  1
  H+  H50  1  0.87779672  0.48227896  0.34117929  1
  H+  H51  1  0.33642354  0.45390596  0.70840773  1
  H+  H52  1  0.47161223  0.11066360  0.83227770  1
  H+  H53  1  0.86704485  0.21573218  0.34308810  1
  H+  H54  1  0.74938267  0.60620598  0.15701823  1
  H+  H55  1  0.62540303  0.49984837  0.15233082  1
  H+  H56  1  0.47598786  0.12004845  0.66693165  1
  H+  H57  1  0.91771726  0.07099588  0.26665465  1
  H+  H58  1  0.36881394  0.58541776  0.50752843  1
  H+  H59  1  0.74844741  0.62001333  0.33457540  1
  H+  H60  1  0.36571823  0.50358307  0.81209735  1
  H+  H61  1  0.51541772  0.37366571  0.83540242  1
  H+  H62  1  0.77010632  0.39314581  0.68290575  1
  H+  H63  1  0.84795979  0.74524130  0.33713253  1
  H+  H64  1  0.35592566  0.63280173  1.00919072  1
  H+  H65  1  0.23404705  0.61151523  0.32772623  1
  H+  H66  1  0.85775418  0.47543264  0.83589128  1
  H+  H67  1  0.24001823  0.13514882  0.33326704  1
  H+  H68  1  0.01876992  0.13251175  0.34227009  1
  H+  H69  1  0.84289486  0.93590876  0.81276735  1
  H+  H70  1  0.33085996  0.40727320  0.10152293  1
  H+  H71  1  0.62826437  0.58224021  0.83969551  1
  H+  H72  1  0.59409919  0.41838826  0.39575379  1
  H+  H73  1  0.62423054  0.59637371  0.31633449  1
  H+  H74  1  -0.04994342  0.84111391  0.49806329  1
  H+  H75  1  0.47200150  0.60549007  0.99269013  1
  H+  H76  1  0.60816864  0.62203863  0.14932088  1
  H+  H77  1  0.85190918  0.85389804  0.80659646  1
  H+  H78  1  0.27104428  0.15110483  0.01387648  1
  H+  H79  1  0.77167438  0.13639278  0.01114560  1
  H+  H80  1  0.14062621  0.04482824  0.50581078  1
  H+  H81  1  0.13496006  0.85840638  0.66059695  1
  H+  H82  1  0.11924289  0.89738853  0.82032014  1
  H+  H83  1  0.85365020  0.22904167  1.00675765  1
  H+  H84  1  0.40720220  0.28427499  0.30746562  1
  H+  H85  1  0.61444156  0.48393034  0.66731751  1
  H+  H86  1  0.37410776  0.33410837  0.86771824  1
  H+  H87  1  0.22533979  0.86279086  0.50573258  1
  H+  H88  1  0.66213283  1.07397742  0.22550992  1
  H+  H89  1  0.23302632  0.38189463  0.83128566  1
  H+  H90  1  0.61151127  0.38516970  1.02950854  1
  H+  H91  1  0.61344964  0.17140501  0.99030504  1
  H+  H92  1  0.91342426  0.25630121  0.48906992  1
  H+  H93  1  0.64255294  0.10942377  0.32517562  1
  H+  H94  1  0.61562977  0.68441207  0.78736303  1
  H+  H95  1  0.50304776  0.61153916  0.48714230  1
  H+  H96  1  0.94457656  0.83084541  0.33443664  1
  H+  H97  1  0.18534198  0.62137687  0.24146309  1
  H+  H98  1  0.63341397  0.63339879  0.63790432  1
  H+  H99  1  0.83430577  1.00091120  0.02555390  1
  H+  H100  1  1.01796067  0.63750337  1.00837885  1
  H+  H101  1  0.88801827  0.37923030  0.98802644  1
  H+  H102  1  0.12524146  0.15001343  0.67430752  1
  H+  H103  1  0.35909181  0.61689762  0.83759561  1
  H+  H104  1  0.27616645  0.37885365  0.38576496  1
  H+  H105  1  0.11158782  0.63528316  0.00889581  1
  H+  H106  1  0.52472669  0.60216589  0.78752780  1
  H+  H107  1  0.63077717  0.84824872  0.49773343  1
  H+  H108  1  0.25643202  0.36427356  0.18611337  1
  H+  H109  1  0.61770526  0.83960762  0.99951985  1
  H+  H110  1  0.61166833  0.25866974  1.00534115  1
  H+  H111  1  0.14651651  0.03140960  0.83635376  1
  H+  H112  1  0.84616820  0.24980894  0.18047089  1
  H+  H113  1  0.63981674  0.37798442  0.66627305  1
  H+  H114  1  0.96790812  0.62075826  0.50099310  1
  H+  H115  1  0.46277962  0.84884140  0.82616014  1
  H+  H116  1  0.28400937  0.64991820  0.16107806  1
  H+  H117  1  0.27841775  0.89001336  0.81577932  1
  H+  H118  1  0.62062972  0.21167516  0.15872120  1
  H+  H119  1  0.47219042  0.37453124  0.65519582  1
  H+  H120  1  0.60704759  0.87300061  0.16081016  1
  H+  H121  1  0.17149221  1.02566472  -0.00222053  1
  H+  H122  1  0.86887639  0.88391221  0.66131887  1
  H+  H123  1  0.84787628  0.75820907  0.94114413  1
  H+  H124  1  0.59881761  0.96195129  0.49534810  1
  H+  H125  1  0.74085479  0.61063233  0.64863146  1
  H+  H126  1  0.35104933  0.93914966  1.00946400  1
  H+  H127  1  0.59837567  0.70563353  0.33531991  1
  H+  H128  1  0.62045029  0.95235398  0.65555211  1
  H+  H129  1  0.63743396  0.48683576  0.48332075  1
  H+  H130  1  0.71893093  0.85090707  0.17559939  1
  H+  H131  1  0.36053043  0.71357567  0.67020914  1
  H+  H132  1  0.87573933  0.41152135  0.49827090  1
  H+  H133  1  0.13630204  0.79619781  0.27548622  1
  H+  H134  1  0.38067865  0.27224078  1.00978051  1
  H+  H135  1  0.02451980  0.16570516  0.01837540  1
  H+  H136  1  0.39553268  0.02012249  0.32338600  1
  H+  H137  1  0.22296164  0.37878620  0.64874641  1
  H+  H138  1  0.88040551  0.60546962  0.84526480  1
  H+  H139  1  0.62419388  0.07262779  1.02380606  1
  H+  H140  1  0.47490734  0.88963821  -0.01909812  1
  H+  H141  1  0.64427914  0.75985164  0.64326546  1
  H+  H142  1  0.12641335  0.23802076  0.17513675  1
  H+  H143  1  0.83739347  0.69834257  0.15892453  1
  H+  H144  1  0.89128040  0.35831171  0.33551123  1
  H+  H145  1  0.63096983  0.05639987  0.68862048  1
  H+  H146  1  0.63837078  0.35508132  0.49136626  1
  H+  H147  1  0.13761047  0.24369170  0.82491608  1
  H+  H148  1  0.10711878  0.63467126  0.66863778  1
  H+  H149  1  0.40305867  0.11131400  0.32659375  1
  H+  H150  1  0.81949565  0.96447434  0.46939260  1
  H+  H151  1  0.49742206  0.36755386  0.31596273  1
  H+  H152  1  0.96076533  0.03695258  0.98260306  1
  H+  H153  1  0.86463249  0.96749132  0.33338893  1
  H+  H154  1  -0.03330963  0.34791779  0.13846483  1
  H+  H155  1  0.99490810  0.40643494  0.51856607  1
  H+  H156  1  0.63257643  0.75896133  0.16808714  1
  H+  H157  1  0.14612326  0.46697743  0.19737163  1
  H+  H158  1  0.92225246  0.14604897  0.84243147  1
  H+  H159  1  0.04088621  0.90823988  0.12932409  1
  H+  H160  1  0.80156570  0.74721111  -0.05809507  1
  H+  H161  1  0.61360760  0.71473249  1.00371022  1
  H+  H162  1  0.37999531  0.23360425  0.15919095  1
  H+  H163  1  0.85683639  0.88608856  0.15394563  1
  H+  H164  1  0.10642666  0.39128840  0.67428551  1
  H+  H165  1  0.13217544  0.85191414  0.51002236  1
  H+  H166  1  0.09540114  0.62897030  0.82490608  1
  H+  H167  1  0.13627307  0.28890039  0.50220095  1
  H+  H168  1  0.23131207  0.71386573  0.21166018  1
  H+  H169  1  0.75708475  0.61133700  0.83347456  1
  H+  H170  1  0.87358249  0.14050273  0.66688598  1
  H+  H171  1  0.75146497  0.86620764  0.48141606  1
  H+  H172  1  0.34293006  0.71931696  0.81929503  1
  H+  H173  1  0.34947568  -0.03560541  0.18086348  1
  H+  H174  1  0.14825397  0.13709606  0.50720348  1
  H+  H175  1  0.15386772  0.12365318  0.83966548  1
  H+  H176  1  0.88367714  0.09612521  0.32558373  1
  H+  H177  1  0.37964220  0.38739451  0.15516317  1
  H+  H178  1  0.78409706  0.14034536  0.67150471  1
  H+  H179  1  0.88214444  0.36893234  0.67204250  1
  H+  H180  1  0.38589758  0.37734486  0.64788939  1
  H+  H181  1  0.27302194  0.63228345  0.49567311  1
  H+  H182  1  0.88459419  0.61761735  0.32909397  1
  H+  H183  1  0.86995569  0.63633637  0.67369568  1
  H+  H184  1  0.37952047  0.53376373  0.59626919  1
  H+  H185  1  0.27171580  0.64017731  0.00863156  1
  H+  H186  1  0.18082470  0.38028687  0.20340360  1
  H+  H187  1  0.61593713  0.78649280  0.85060836  1
  H+  H188  1  0.11129533  0.88688762  0.01309293  1
  H+  H189  1  0.11628422  0.15123255  0.34264071  1
  H+  H190  1  0.37997222  0.10428506  0.83119163  1
  H+  H191  1  0.47639099  0.85138411  0.66232162  1
  H+  H192  1  0.13422546  0.61536435  0.49933520  1
  H+  H193  1  0.62336197  0.60977158  0.99596258  1
  H+  H194  1  0.88949713  0.11448842  0.17701781  1
  H+  H195  1  0.10929589  0.38988728  0.82757434  1
  H+  H196  1  0.76858084  0.12218228  0.15830587  1
  H+  H197  1  0.85589831  0.48513580  0.48942694  1
  H+  H198  1  0.36111583  0.62843139  0.35069010  1
  H+  H199  1  0.39546519  0.52384276  0.16223895  1
  H+  H200  1  0.60567780  0.87980960  0.33665052  1
  H+  H201  1  0.23268512  0.12125654  0.66390051  1
  H+  H202  1  0.45524803  0.64318788  0.85070184  1
  H+  H203  1  0.53691367  0.13489031  0.33995534  1
  H+  H204  1  0.37278619  0.14148377  0.15952134  1
  H+  H205  1  0.52136586  0.62891082  0.14794438  1
  H+  H206  1  0.92064099  0.79217751  0.77264764  1
  H+  H207  1  0.42358352  0.32490453  0.92351974  1
  H+  H208  1  0.61661575  0.22278922  0.48983160  1
  H+  H209  1  0.51895672  -0.00728871  0.91281306  1
  H+  H210  1  0.72849294  0.10444859  0.32074908  1
  H+  H211  1  0.35992070  0.47078624  0.00938416  1
  H+  H212  1  0.27955197  0.13744489  0.82807589  1
  H+  H213  1  0.71484306  0.36248824  0.85659018  1
  H+  H214  1  0.28227464  0.15736160  0.49763667  1
  H+  H215  1  0.17178509  0.48710009  0.16881169  1
  H+  H216  1  0.98420811  0.86264121  0.81666098  1
  H+  H217  1  0.71520089  0.84774658  0.83564678  1
  H+  H218  1  0.12958999  0.11540038  0.17023133  1
  H+  H219  1  0.61710604  0.86488041  0.66487482  1
  H+  H220  1  0.11300693  0.39490039  -0.00966822  1
  H+  H221  1  0.12958700  0.52309664  0.65704235  1
  H+  H222  1  0.13012504  0.85929010  0.18749890  1
  H+  H223  1  0.87649802  0.08867212  0.49066016  1
  H+  H224  1  0.36003092  0.38173393  0.00934961  1
  H+  H225  1  0.92270041  0.05851891  0.85275537  1
  H+  H226  1  0.14038378  0.28363391  0.65722303  1
  H+  H227  1  0.36821362  -0.01964740  0.81707083  1
  H+  H228  1  0.81735782  0.69900617  0.49698324  1
  H+  H229  1  0.61230501  0.89973915  0.82410555  1
  H+  H230  1  0.97613416  0.61320800  0.65948888  1
  H+  H231  1  0.11557820  0.65370412  0.16293417  1
  H+  H232  1  0.87675953  0.48206038  -0.00263819  1
  H+  H233  1  0.13985738  0.27750050  0.34302891  1
  H+  H234  1  0.37745102  0.51473778  0.36394403  1
  H+  H235  1  0.34986572  0.87587656  0.18347543  1
  H+  H236  1  0.05006307  0.15706708  0.83156352  1
  H+  H237  1  0.60633750  0.94817739  0.01195783  1
  H+  H238  1  0.05232765  0.34786464  0.14632245  1
  H+  H239  1  0.63711563  0.28959221  0.67220847  1
  H+  H240  1  0.14947400  0.06003759  0.31745058  1
  H+  H241  1  0.37427950  0.24621065  0.49042385  1
  H+  H242  1  0.10748919  0.72432244  0.67176592  1
  H+  H243  1  0.60762673  0.23289400  0.84231268  1
  H+  H244  1  0.71116403  0.84736218  0.32128062  1
  H+  H245  1  0.58167508  0.00474721  0.85916648  1
  H+  H246  1  0.56968088  0.64383392  0.39363245  1
  H+  H247  1  0.62706282  0.38592512  0.33873710  1
  H+  H248  1  0.47818638  0.10342352  0.16505738  1
  H+  H249  1  0.17203301  0.96114518  0.45909433  1
  H+  H250  1  0.63301811  0.10042464  0.16356093  1
  H+  H251  1  0.37777514  0.42458925  0.79569287  1
  H+  H252  1  0.21932979  0.60962237  0.65447541  1
  H+  H253  1  0.74131412  0.36434756  0.33312143  1
  H+  H254  1  0.34570876  0.92023361  0.73415094  1
  H+  H255  1  0.07965067  0.66912660  0.07322904  1
  H+  H256  1  0.11988063  0.38747435  0.34351569  1
  H+  H257  1  0.03240155  0.15352918  0.16797701  1
  H+  H258  1  0.21791106  0.85528318  0.19508839  1
  H+  H259  1  0.13525344  0.29459038  -0.00995024  1
  H+  H260  1  0.35915390  0.88032444  0.33685540  1
  H+  H261  1  0.97212874  0.60874787  0.83860452  1
  H+  H262  1  0.84273306  0.70395533  0.83166184  1
  H+  H263  1  0.12815827  0.38378108  0.49938962  1
  H+  H264  1  0.37773769  0.85464709  0.82545009  1
  H+  H265  1  0.36668154  0.49421153  0.49844566  1
  H+  H266  1  0.58664084  0.17016242  0.09297396  1
  H+  H267  1  0.87697284  0.60448232  0.17349505  1
  H+  H268  1  0.59115664  0.13585668  0.84609153  1
  H+  H269  1  0.38875967  0.36889260  0.49015548  1
  H+  H270  1  0.47428697  0.86038820  0.17414891  1
  H+  H271  1  0.52083881  0.14002543  0.49195997  1
  H+  H272  1  0.61540149  0.15994930  0.68193307  1
  H+  H273  1  0.89240470  1.02740491  0.17618693  1
  H+  H274  1  0.76068687  0.20150852  0.54643169  1
  H+  H275  1  0.79552568  0.29548660  0.20481733  1
  H+  H276  1  0.71047538  0.59021249  0.99803312  1
  H+  H277  1  0.46016242  0.59347607  0.33668369  1
  H+  H278  1  0.86932829  0.48507033  0.15325479  1
  H+  H279  1  0.47959015  0.84333604  0.51213621  1
  H+  H280  1  0.58231711  0.91622401  0.76050115  1
  H+  H281  1  0.62386298  0.49262029  0.84704859  1
  H+  H282  1  0.88776512  0.24152760  0.82059215  1
  H+  H283  1  0.97210177  0.61622468  0.17360507  1
  H+  H284  1  0.72681759  0.35601708  0.49227747  1
  H+  H285  1  0.12651960  0.52863191  -0.00559217  1
  H+  H286  1  0.09049427  0.42483671  0.42841594  1
  H+  H287  1  0.07437178  0.91682681  0.32094383  1
  H+  H288  1  0.58290591  0.91302540  0.43064184  1
  H+  H289  1  0.66701151  0.83050263  0.94208260  1
  H+  H290  1  0.66376880  0.81810066  0.55510837  1
  H+  H291  1  0.42109118  0.34594311  0.55316746  1
  H+  H292  1  0.09951441  0.18276089  0.73413429  1
  H+  H293  1  0.52588262  0.00319124  0.55331866  1
  H+  H294  1  0.86920058  0.18231103  0.76106741  1
  H+  H295  1  0.15501407  0.59042692  0.93666318  1
  H+  H296  1  0.89047154  0.76966343  0.65939330  1
  H+  H297  1  0.19696055  0.34123628  0.29105223  1
  H+  H298  1  0.41773174  0.86311904  0.92183725  1
  H+  H299  1  0.83606301  0.13948303  0.39334089  1
  H+  H300  1  0.34048124  0.17719883  0.73442333  1
  H+  H301  1  0.69764093  0.58208062  0.58200948  1
  H+  H302  1  0.82658533  0.90199315  0.71834074  1
  H+  H303  1  0.18130464  0.10214485  0.22331204  1
  H+  H304  1  0.58677539  0.64224905  0.69467146  1
  H+  H305  1  0.11660303  0.98341783  0.66927638  1
  H+  H306  1  0.91809664  0.59294132  0.26929904  1
  H+  H307  1  0.34812847  0.61809204  0.66956748  1
  H+  H308  1  1.04165263  0.82034948  0.93263779  1
  H+  H309  1  0.33284485  0.15565107  0.41177283  1
  H+  H310  1  0.06180931  0.39957157  0.04869546  1
  H+  H311  1  0.93788198  0.38152592  0.57937133  1
  H+  H312  1  0.09153061  0.92802437  0.76065703  1
  H+  H313  1  0.91295480  0.58343200  0.60151929  1
  H+  H314  1  0.94506233  0.08536617  0.58095437  1
  H+  H315  1  0.88823685  0.28244301  0.66246956  1
  H+  H316  1  0.80959243  0.63257071  0.07130722  1
  H+  H317  1  0.15444922  0.34447722  0.56683144  1
  H+  H318  1  0.58359264  0.65346867  0.06422695  1
  H+  H319  1  0.65037091  0.81634180  0.26362001  1
  H+  H320  1  0.44682065  0.34822710  0.21703937  1
  H+  H321  1  0.65280673  0.33965282  0.91794215  1
  H+  H322  1  0.08870047  0.20607828  0.07438560  1
  H+  H323  1  0.63584750  0.07445434  0.61600918  1
  H+  H324  1  0.99086742  0.11873335  0.66902678  1
  H+  H325  1  0.63185392  0.51096304  0.31852766  1
  H+  H326  1  0.98113804  0.37203790  0.98100772  1
  H+  H327  1  0.07536703  0.83445778  0.34207913  1
  H+  H328  1  0.33550814  0.66934478  0.09765642  1
  H+  H329  1  1.01817835  0.39299727  0.67844268  1
  H+  H330  1  0.82584844  0.41780009  0.77552921  1
  H+  H331  1  0.65183290  0.56481384  0.93347560  1
  H+  H332  1  0.17455537  0.09676128  0.60385207  1
  H+  H333  1  0.59100820  0.70021902  0.48547562  1
  H+  H334  1  0.71014461  0.37057971  0.99790187  1
  H+  H335  1  0.82206871  0.90412047  0.39586834  1
  H+  H336  1  0.26017767  0.91186146  0.03063198  1
  H+  H337  1  0.93568500  0.09415534  0.94427430  1
  H+  H338  1  0.32749418  0.92406935  0.43258347  1
  H+  H339  1  0.40507459  0.57825411  0.93757872  1
  H+  H340  1  0.84650297  0.42274785  0.05740304  1
  H+  H341  1  0.57849679  0.42770968  0.72940099  1
  H+  H342  1  0.33595894  0.66125825  0.43878869  1
  H+  H343  1  0.17819343  0.07995704  0.93900668  1
  H+  H344  1  0.82820772  0.65577113  0.73242725  1
  H+  H345  1  0.65254515  0.27334137  0.33474227  1
  H+  H346  1  0.61255551  0.97235566  0.33588441  1
  H+  H347  1  0.38047961  -0.01393310  0.67095897  1
  H+  H348  1  0.86200146  0.47924594  0.68038140  1
  H+  H349  1  0.08751182  0.67885570  0.42638530  1
  H+  H350  1  0.68882606  0.31592371  0.24208749  1
  H+  H351  1  0.91430042  0.34301854  0.91914018  1
  H+  H352  1  0.81553145  0.93066953  0.11078497  1
  H+  H353  1  0.91293877  0.82404306  0.59776129  1
  H+  H354  1  0.41818954  0.82343000  0.60216157  1
  H+  H355  1  0.84639110  0.42566472  0.40210473  1
  H+  H356  1  0.61076772  0.96428247  0.15714219  1
  H+  H357  1  0.79675629  0.64469562  0.40046753  1
  H+  H358  1  0.74844120  0.90897695  0.02468645  1
  H+  H359  1  0.31165296  0.65261882  0.76316545  1
  H+  H360  1  0.41607076  0.09171748  0.56736858  1
  H+  H361  1  0.64668812  0.55217471  0.21804689  1
  H+  H362  1  0.59095089  0.15967013  0.40170210  1
  H+  H363  1  0.87413523  0.61230076  0.50675541  1
  H+  H364  1  1.02730326  0.38177843  0.33812018  1
  H+  H365  1  0.92409569  0.58865998  0.93298398  1
  H+  H366  1  0.58009755  0.17803830  0.74340935  1
  H+  H367  1  0.41305065  0.07006115  0.93139773  1
  H+  H368  1  0.41320805  0.82783847  0.26770335  1
  H+  H369  1  0.42825965  0.08363901  0.22773274  1
  H+  H370  1  0.14947891  0.93292434  0.07548314  1
  H+  H371  1  0.83411769  0.16668825  0.10301189  1
  H+  H372  1  0.38922636  0.76960283  0.17148965  1
  H+  H373  1  0.83577729  0.68960981  0.01125538  1
  H+  H374  1  0.63126291  0.05591771  0.95366200  1
  H+  H375  1  0.26945088  0.87707766  0.33756489  1
  H+  H376  1  0.78303124  0.07440151  0.48758579  1
  H+  H377  1  0.08416186  0.91420506  0.42613892  1
  H+  H378  1  0.90050739  0.31829665  0.27453124  1
  H+  H379  1  0.07874273  0.42093607  0.76928679  1
  H+  H380  1  0.16372641  0.82506069  0.60362677  1
  H+  H381  1  0.33120383  0.17696757  0.07459253  1
  H+  H382  1  0.15975284  0.58395298  0.56075592  1
  H+  H383  1  0.56593019  0.88773826  0.06842346  1
  O2-  O384  1  0.09227986  0.18356792  0.15212976  1
  O2-  O385  1  0.10041290  0.19177891  0.48015331  1
  O2-  O386  1  0.10727823  0.18211627  0.81142497  1
  O2-  O387  1  0.01418270  0.34963346  0.11573200  1
  O2-  O388  1  0.09410096  0.42782058  0.47450950  1
  O2-  O389  1  0.07638608  0.41856948  0.81504835  1
  O2-  O390  1  0.07662428  0.67228395  0.14315960  1
  O2-  O391  1  0.08048863  0.66810836  0.47067001  1
  O2-  O392  1  0.05953761  0.65163847  0.80826170  1
  O2-  O393  1  0.09248312  0.92179700  0.15214309  1
  O2-  O394  1  0.11059039  0.93616232  0.46684239  1
  O2-  O395  1  0.08776440  0.92672824  0.80649866  1
  O2-  O396  1  0.34164188  0.17206978  0.14895641  1
  O2-  O397  1  0.34099826  0.18159476  0.48034442  1
  O2-  O398  1  0.34061243  0.16755544  0.81218158  1
  O2-  O399  1  0.34022737  0.41140733  0.14652137  1
  O2-  O400  1  0.32826566  0.40004180  0.46653967  1
  O2-  O401  1  0.33984455  0.44799936  0.78911804  1
  O2-  O402  1  0.34171156  0.66962543  0.14353928  1
  O2-  O403  1  0.33449562  0.65618719  0.48453374  1
  O2-  O404  1  0.30970850  0.65599222  0.80859015  1
  O2-  O405  1  0.31354990  0.90226253  0.19047631  1
  O2-  O406  1  0.31699978  0.92670096  0.47650710  1
  O2-  O407  1  0.33796734  0.91849088  0.79958591  1
  O2-  O408  1  0.58565120  0.15597431  0.13740158  1
  O2-  O409  1  0.58098873  0.15772875  0.48012528  1
  O2-  O410  1  0.57939734  0.17497478  0.82152848  1
  O2-  O411  1  0.58908768  0.40878998  0.11503057  1
  O2-  O412  1  0.59798635  0.42574288  0.47024355  1
  O2-  O413  1  0.57365758  0.40393335  0.81665519  1
  O2-  O414  1  0.58498040  0.65842650  0.13342489  1
  O2-  O415  1  0.55987589  0.64265042  0.46722025  1
  O2-  O416  1  0.58578394  0.62218891  0.78251043  1
  O2-  O417  1  0.57711497  0.90276816  0.14429619  1
  O2-  O418  1  0.58483621  0.90697506  0.47604389  1
  O2-  O419  1  0.57402958  0.91761650  0.80503362  1
  O2-  O420  1  0.83111463  0.16006789  0.14868851  1
  O2-  O421  1  0.82622006  0.07061146  0.46300212  1
  O2-  O422  1  0.88451639  0.18846354  0.80489206  1
  O2-  O423  1  0.84118046  0.42872200  0.13130383  1
  O2-  O424  1  0.83597534  0.42568687  0.47476460  1
  O2-  O425  1  0.82589274  0.41440065  0.82128299  1
  O2-  O426  1  0.81225327  0.63892052  0.14292800  1
  O2-  O427  1  0.79710154  0.64031632  0.48110536  1
  O2-  O428  1  0.81590459  0.64519184  0.81541452  1
  O2-  O429  1  0.82740894  0.91953751  0.15449926  1
  O2-  O430  1  0.81287386  0.90650268  0.46467480  1
  O2-  O431  1  0.81112197  0.87668109  0.79886958  1
  O2-  O432  1  0.14582688  0.07424652  0.18762457  1
  O2-  O433  1  0.17378664  0.10267921  0.52357032  1
  O2-  O434  1  0.18136620  0.09024621  0.85340352  1
  O2-  O435  1  0.19942003  0.33836788  0.20979697  1
  O2-  O436  1  0.15636543  0.34781998  0.52052870  1
  O2-  O437  1  0.17465690  0.34627871  0.84784856  1
  O2-  O438  1  0.19661451  0.65348987  0.20034582  1
  O2-  O439  1  0.16471158  0.58577174  0.51526595  1
  O2-  O440  1  0.15098868  0.58138203  0.86116123  1
  O2-  O441  1  0.15175406  0.82168447  0.20279156  1
  O2-  O442  1  0.16505926  0.82430291  0.52238774  1
  O2-  O443  1  0.17137933  0.84283473  0.84960832  1
  O2-  O444  1  0.41963983  0.07730254  0.18316534  1
  O2-  O445  1  0.41653735  0.09319471  0.52221527  1
  O2-  O446  1  0.40966218  0.07129403  0.84188957  1
  O2-  O447  1  0.43723904  0.34413543  0.17193369  1
  O2-  O448  1  0.42502932  0.34369028  0.50836176  1
  O2-  O449  1  0.41866733  0.31997386  0.87620992  1
  O2-  O450  1  0.43021964  0.58632969  0.17070480  1
  O2-  O451  1  0.39339720  0.54989831  0.52286467  1
  O2-  O452  1  0.39782313  0.59350694  0.85384852  1
  O2-  O453  1  0.41456212  0.82823563  0.19046256  1
  O2-  O454  1  0.42354569  0.81577955  0.53321575  1
  O2-  O455  1  0.40190787  0.81831839  0.83958242  1
  O2-  O456  1  0.66321027  0.07043813  0.18027132  1
  O2-  O457  1  0.58748352  0.04133887  0.54750714  1
  O2-  O458  1  0.57295292  0.03820570  0.89100379  1
  O2-  O459  1  0.69988167  0.30082554  0.20024954  1
  O2-  O460  1  0.66446993  0.31922224  0.50077312  1
  O2-  O461  1  0.65413597  0.33303173  0.86998338  1
  O2-  O462  1  0.65170507  0.55859509  0.17297642  1
  O2-  O463  1  0.70950391  0.59024225  0.50708420  1
  O2-  O464  1  0.65563129  0.55524434  0.86290510  1
  O2-  O465  1  0.65716886  0.81707556  0.18741032  1
  O2-  O466  1  0.66133886  0.81672762  0.50953840  1
  O2-  O467  1  0.66462078  0.84361208  0.85772933  1
  O2-  O468  1  0.92275990  0.08726084  0.19256207  1
  O2-  O469  1  0.95164583  0.08082561  0.53479533  1
  O2-  O470  1  0.95071609  0.11744738  0.86702476  1
  O2-  O471  1  0.85508397  0.30510511  0.19931760  1
  O2-  O472  1  0.95039812  0.41249416  0.54001834  1
  O2-  O473  1  0.91437134  0.34247789  0.85521226  1
  O2-  O474  1  0.91306349  0.58153165  0.19085101  1
  O2-  O475  1  0.91090729  0.58909383  0.52103787  1
  O2-  O476  1  0.91362873  0.57912656  0.86126435  1
  O2-  O477  1  0.89765420  0.80205725  0.19332212  1
  O2-  O478  1  0.89411042  0.82026408  0.51717219  1
  O2-  O479  1  0.92062419  0.81955445  0.81104769  1
  O2-  O480  1  0.18473529  0.12198947  0.31310067  1
  O2-  O481  1  0.17171411  0.09225165  0.64903576  1
  O2-  O482  1  0.17205255  0.07844617  0.98360005  1
  O2-  O483  1  0.18096946  0.33918999  0.33464963  1
  O2-  O484  1  0.16068641  0.34189778  0.63916339  1
  O2-  O485  1  0.17151069  0.35177268  0.96812073  1
  O2-  O486  1  0.17820340  0.58547728  0.30532624  1
  O2-  O487  1  0.15952517  0.58189801  0.63867795  1
  O2-  O488  1  0.15482785  0.59052597  0.98266036  1
  O2-  O489  1  0.13234594  0.79572800  0.32211527  1
  O2-  O490  1  0.16022983  0.82290523  0.64863764  1
  O2-  O491  1  0.14937010  0.81142272  0.90330994  1
  O2-  O492  1  0.43232871  0.08135433  0.31078604  1
  O2-  O493  1  0.41625409  0.08411104  0.65042461  1
  O2-  O494  1  0.41243147  0.06363179  0.97567309  1
  O2-  O495  1  0.44191143  0.34290462  0.29318980  1
  O2-  O496  1  0.41201082  0.34154303  0.63930517  1
  O2-  O497  1  0.41853378  0.33622754  0.99174130  1
  O2-  O498  1  0.39647131  0.56446912  0.33660245  1
  O2-  O499  1  0.37575985  0.53654477  0.64293021  1
  O2-  O500  1  0.40998979  0.57609795  0.98215530  1
  O2-  O501  1  0.41121708  0.82954502  0.31341024  1
  O2-  O502  1  0.41595167  0.82796984  0.64916451  1
  O2-  O503  1  0.44859243  0.91021902  0.95092797  1
  O2-  O504  1  0.66795714  0.07610927  0.30651027  1
  O2-  O505  1  0.66652638  0.09495091  0.65633076  1
  O2-  O506  1  0.65771669  0.05989649  0.99510733  1
  O2-  O507  1  0.68126732  0.33231572  0.31685790  1
  O2-  O508  1  0.67382515  0.34946000  0.65873439  1
  O2-  O509  1  0.64993430  0.34497936  0.98596210  1
  O2-  O510  1  0.65827031  0.57011844  0.29992847  1
  O2-  O511  1  0.68468540  0.57901957  0.62735002  1
  O2-  O512  1  0.65209617  0.57230653  0.97970663  1
  O2-  O513  1  0.65048635  0.81916937  0.30942963  1
  O2-  O514  1  0.66912896  0.82378806  0.63309860  1
  O2-  O515  1  0.65793126  0.81806421  0.98596791  1
  O2-  O516  1  0.91356224  0.06393233  0.31261406  1
  O2-  O517  1  0.93151766  0.08739280  0.65056014  1
  O2-  O518  1  0.93463557  0.07294078  0.98636773  1
  O2-  O519  1  0.91475759  0.32231993  0.31867001  1
  O2-  O520  1  0.91778463  0.34516454  0.65455649  1
  O2-  O521  1  0.91748187  0.34404909  0.96819782  1
  O2-  O522  1  0.92596593  0.60050904  0.31443353  1
  O2-  O523  1  0.91363462  0.58327337  0.64686185  1
  O2-  O524  1  0.92615111  0.58728512  0.97962118  1
  O2-  O525  1  0.88364382  0.80892790  0.32080159  1
  O2-  O526  1  0.91904904  0.82977366  0.64267703  1
  O2-  O527  1  1.01130006  0.82878259  0.96662624  1
  O2-  O528  1  0.07790740  0.21679137  0.03191471  1
  O2-  O529  1  0.07684635  0.16977308  0.36018307  1
  O2-  O530  1  0.09472255  0.18083968  0.68848065  1
  O2-  O531  1  0.07474375  0.41776037  0.00526003  1
  O2-  O532  1  0.08682574  0.41702171  0.35404037  1
  O2-  O533  1  0.08002469  0.42335106  0.69224159  1
  O2-  O534  1  0.07907104  0.66579454  0.02604808  1
  O2-  O535  1  0.09525214  0.70529610  0.34157258  1
  O2-  O536  1  0.07478304  0.66181793  0.68510849  1
  O2-  O537  1  0.16383231  0.93307242  0.03227043  1
  O2-  O538  1  0.04800671  0.87164701  0.35152610  1
  O2-  O539  1  0.08668032  0.92338718  0.68527240  1
  O2-  O540  1  0.33062214  0.18728903  0.02960944  1
  O2-  O541  1  0.32033764  0.12838815  0.36912501  1
  O2-  O542  1  0.33760526  0.17407940  0.68882247  1
  O2-  O543  1  0.32593488  0.40973632  0.02239911  1
  O2-  O544  1  0.33643662  0.40775519  0.40036773  1
  O2-  O545  1  0.33289992  0.44588835  0.66323376  1
  O2-  O546  1  0.33104832  0.66756121  0.02396518  1
  O2-  O547  1  0.33249991  0.66286520  0.36285241  1
  O2-  O548  1  0.32454958  0.65371104  0.68536982  1
  O2-  O549  1  0.30217792  0.89214636  0.03110850  1
  O2-  O550  1  0.32952009  0.91281024  0.35020592  1
  O2-  O551  1  0.35486417  0.92432778  0.68639721  1
  O2-  O552  1  0.58484367  0.19119503  0.01800046  1
  O2-  O553  1  0.59673436  0.16425769  0.35623741  1
  O2-  O554  1  0.57612698  0.17862822  0.69789298  1
  O2-  O555  1  0.58071840  0.41473534  0.05101715  1
  O2-  O556  1  0.59451427  0.41535781  0.34987941  1
  O2-  O557  1  0.57489696  0.42577208  0.68456367  1
  O2-  O558  1  0.58341350  0.65251719  0.01683708  1
  O2-  O559  1  0.57311440  0.64481362  0.34748184  1
  O2-  O560  1  0.60067030  0.66177168  0.65263178  1
  O2-  O561  1  0.56719003  0.88691553  0.02267045  1
  O2-  O562  1  0.57986877  0.91330513  0.35370563  1
  O2-  O563  1  0.59015671  0.89990452  0.67970030  1
  O2-  O564  1  0.83022670  0.17344924  0.02724399  1
  O2-  O565  1  0.83680456  0.15187519  0.34956744  1
  O2-  O566  1  0.84554213  0.17250209  0.68243156  1
  O2-  O567  1  0.84781829  0.42067759  0.01136407  1
  O2-  O568  1  0.84818828  0.42225297  0.35592658  1
  O2-  O569  1  0.83174148  0.42050033  0.69845639  1
  O2-  O570  1  0.80823112  0.62979720  0.02461663  1
  O2-  O571  1  0.80682760  0.65442963  0.35574141  1
  O2-  O572  1  0.83992768  0.66835091  0.68844193  1
  O2-  O573  1  0.78701128  0.95778203  0.05100670  1
  O2-  O574  1  0.83014871  0.90464679  0.34904909  1
  O2-  O575  1  0.83825357  0.91533505  0.67450424  1
