# generated using pymatgen
data_H2O
_symmetry_space_group_name_H-M   'P 1'
_cell_length_a   17.97340397
_cell_length_b   17.97252252
_cell_length_c   21.96351105
_cell_angle_alpha   89.95848886
_cell_angle_beta   90.01426314
_cell_angle_gamma   120.05119279
_symmetry_Int_Tables_number   1
_chemical_formula_structural   H2O
_chemical_formula_sum   'H384 O192'
_cell_volume   6141.11725873
_cell_formula_units_Z   192
loop_
 _symmetry_equiv_pos_site_id
 _symmetry_equiv_pos_as_xyz
  1  'x, y, z'
loop_
 _atom_type_symbol
 _atom_type_oxidation_number
  H+  1.0
  O2-  -2.0
loop_
 _atom_site_type_symbol
 _atom_site_label
 _atom_site_symmetry_multiplicity
 _atom_site_fract_x
 _atom_site_fract_y
 _atom_site_fract_z
 _atom_site_occupancy
  H+  H0  1  0.12263643  0.11767229  0.82798850  1
  H+  H1  1  0.14736543  0.84544022  0.67220668  1
  H+  H2  1  0.67240755  0.10094118  0.40245005  1
  H+  H3  1  0.41700454  0.81887687  0.60564652  1
  H+  H4  1  0.47899437  0.38680757  0.97537504  1
  H+  H5  1  -0.00151661  0.12086459  0.51298095  1
  H+  H6  1  0.59565219  0.66951208  0.07199532  1
  H+  H7  1  0.51655371  0.65035485  0.83431402  1
  H+  H8  1  0.35439109  0.39572515  0.79577868  1
  H+  H9  1  0.38135271  0.29340050  0.83089079  1
  H+  H10  1  0.72407896  0.60940014  0.33316503  1
  H+  H11  1  0.98072201  0.61869296  0.98717427  1
  H+  H12  1  0.74986268  0.14255569  0.68022039  1
  H+  H13  1  0.14577801  0.35742562  0.51502186  1
  H+  H14  1  0.36637811  0.73339599  0.16810282  1
  H+  H15  1  0.05667073  0.01318926  0.62562315  1
  H+  H16  1  0.24043852  0.12710909  0.33208907  1
  H+  H17  1  0.89900226  0.36833404  0.33606738  1
  H+  H18  1  0.38806422  0.27861069  0.16315457  1
  H+  H19  1  0.50794172  0.38328724  0.33777005  1
  H+  H20  1  0.15750731  0.78094458  0.34038847  1
  H+  H21  1  1.00915164  0.38007244  0.83185825  1
  H+  H22  1  0.23188322  0.37067582  0.98549566  1
  H+  H23  1  0.02749853  0.38438122  0.17422256  1
  H+  H24  1  0.77287263  0.65279364  0.17337422  1
  H+  H25  1  0.68460827  0.10914562  0.00735920  1
  H+  H26  1  0.93587936  0.09742843  0.60914166  1
  H+  H27  1  0.78460565  0.89499442  0.84617528  1
  H+  H28  1  0.47153487  0.61219167  0.51416000  1
  H+  H29  1  0.34611479  0.17649888  0.77055034  1
  H+  H30  1  0.06430550  0.43204288  0.05058039  1
  H+  H31  1  0.34841513  0.25169593  0.49674547  1
  H+  H32  1  0.59500423  0.17466851  0.76036427  1
  H+  H33  1  0.89793821  0.25902430  0.50804856  1
  H+  H34  1  0.93425012  0.86010185  0.26509714  1
  H+  H35  1  0.85647749  0.64755284  0.18208282  1
  H+  H36  1  0.14543189  0.02538418  0.17684145  1
  H+  H37  1  0.36875468  0.86538547  0.84066295  1
  H+  H38  1  0.86265955  0.13646354  0.82141058  1
  H+  H39  1  0.36366782  0.28164538  0.31176176  1
  H+  H40  1  0.86036973  0.49754640  0.66046178  1
  H+  H41  1  0.28099801  0.89708319  0.19015215  1
  H+  H42  1  0.28390648  0.58242153  0.03609559  1
  H+  H43  1  0.38762487  0.37942721  0.97977141  1
  H+  H44  1  0.13201659  0.23958849  0.00567310  1
  H+  H45  1  1.00646876  0.15175221  0.32608774  1
  H+  H46  1  0.64809358  0.86335931  1.00636532  1
  H+  H47  1  0.89531899  0.02409062  0.84289622  1
  H+  H48  1  0.35962572  0.71299198  0.67455533  1
  H+  H49  1  0.10084276  0.87131136  0.49589310  1
  H+  H50  1  0.63800921  0.85942070  0.18720755  1
  H+  H51  1  0.85059803  0.39454065  1.00526367  1
  H+  H52  1  0.15060817  0.02773724  0.99530099  1
  H+  H53  1  0.61175745  -0.02648898  0.83511818  1
  H+  H54  1  0.36601764  0.22880273  0.39900542  1
  H+  H55  1  1.04790398  0.14593010  1.01556541  1
  H+  H56  1  0.65594218  0.06356715  0.60025272  1
  H+  H57  1  0.37332570  0.73170319  0.50605200  1
  H+  H58  1  0.41582922  0.06758434  0.59078631  1
  H+  H59  1  0.14602318  0.77298416  0.17541670  1
  H+  H60  1  0.47666492  0.08506551  0.49013349  1
  H+  H61  1  0.60353514  0.63158777  0.49477315  1
  H+  H62  1  0.86562646  0.57535760  0.50926227  1
  H+  H63  1  0.77343615  0.63411849  -0.01374542  1
  H+  H64  1  0.78645236  0.14760470  0.34383744  1
  H+  H65  1  0.62033326  1.00702941  0.00353136  1
  H+  H66  1  0.63461887  0.52664177  0.17050820  1
  H+  H67  1  0.87885318  0.90486420  0.48193632  1
  H+  H68  1  0.54749860  0.07077246  1.00531675  1
  H+  H69  1  0.48363856  0.12339500  0.16936618  1
  H+  H70  1  0.03813852  0.88889499  0.00962443  1
  H+  H71  1  0.89453566  0.87505409  0.18162919  1
  H+  H72  1  0.90757302  0.11673431  0.51059442  1
  H+  H73  1  0.20461458  0.84721472  0.50646637  1
  H+  H74  1  0.30943233  0.15889045  0.66851151  1
  H+  H75  1  0.48573801  0.38340376  0.53593596  1
  H+  H76  1  -0.01428354  0.34959757  0.50946000  1
  H+  H77  1  0.12799928  0.22668089  0.68010933  1
  H+  H78  1  0.13437191  0.62744850  0.98519150  1
  H+  H79  1  0.51947554  0.62570571  0.67211183  1
  H+  H80  1  0.13028144  0.49929265  0.00411538  1
  H+  H81  1  0.13940841  0.50542197  0.33970777  1
  H+  H82  1  0.47423912  0.02496475  0.43799027  1
  H+  H83  1  0.73553720  0.87217495  0.48042806  1
  H+  H84  1  0.39727237  0.62170925  0.17710631  1
  H+  H85  1  0.60278368  0.40015916  0.50454426  1
  H+  H86  1  0.98979818  0.36723407  0.33237423  1
  H+  H87  1  0.91499787  0.85097524  0.64745578  1
  H+  H88  1  0.73469099  0.62328831  0.65166420  1
  H+  H89  1  0.12028832  0.75690578  0.51870504  1
  H+  H90  1  0.86787590  0.25547599  0.16500013  1
  H+  H91  1  0.57180146  0.65662656  0.40480362  1
  H+  H92  1  0.86913248  0.63132712  -0.01153209  1
  H+  H93  1  0.28059128  0.63895677  0.50168891  1
  H+  H94  1  1.01954214  0.37073303  0.66671901  1
  H+  H95  1  1.03389913  0.26763075  0.19577748  1
  H+  H96  1  0.38532994  0.76006139  0.00078071  1
  H+  H97  1  0.85783983  0.62653680  0.67507800  1
  H+  H98  1  0.87498152  0.23895562  0.33950037  1
  H+  H99  1  0.91165284  0.91263791  0.32570647  1
  H+  H100  1  0.11144822  0.30873192  0.34796782  1
  H+  H101  1  0.00227000  0.60700508  0.80865609  1
  H+  H102  1  0.88966242  0.52911406  0.99029215  1
  H+  H103  1  0.85155009  0.44338062  0.50348197  1
  H+  H104  1  0.61565863  0.75313560  0.33544635  1
  H+  H105  1  0.47818674  0.85897441  0.33686252  1
  H+  H106  1  0.85439354  0.63207679  0.82273232  1
  H+  H107  1  0.81476621  0.16725804  0.77337405  1
  H+  H108  1  0.14242001  1.01630251  0.84066471  1
  H+  H109  1  0.38302590  0.59932000  0.66862536  1
  H+  H110  1  0.76922460  0.64086715  0.82148555  1
  H+  H111  1  0.89096541  0.38395771  0.17770204  1
  H+  H112  1  0.39641695  0.87044124  0.32798356  1
  H+  H113  1  0.87949603  0.26923630  0.83518442  1
  H+  H114  1  0.10957384  0.38354511  0.83169613  1
  H+  H115  1  0.08997537  0.39980953  0.43702019  1
  H+  H116  1  0.35163617  0.37794184  0.15114756  1
  H+  H117  1  0.13383901  0.59503781  0.51553040  1
  H+  H118  1  0.89351232  0.84695134  -0.00301482  1
  H+  H119  1  0.06726594  0.63495250  0.61309315  1
  H+  H120  1  0.61468472  0.60233664  0.33222008  1
  H+  H121  1  0.70315023  0.37142192  0.82751730  1
  H+  H122  1  0.04459589  0.62358454  0.14966393  1
  H+  H123  1  0.36594303  0.36981570  0.31970624  1
  H+  H124  1  0.27914008  0.64036173  0.17366727  1
  H+  H125  1  0.36093748  0.71158460  0.82883847  1
  H+  H126  1  0.62629435  0.64254006  0.00960634  1
  H+  H127  1  0.95375665  0.61566116  0.21667752  1
  H+  H128  1  0.51118868  0.62683160  0.34386503  1
  H+  H129  1  0.61608535  0.64155852  0.16435503  1
  H+  H130  1  0.73583915  0.31368890  0.53243028  1
  H+  H131  1  0.36320555  0.72395589  0.34973663  1
  H+  H132  1  0.14989786  0.51410716  0.19068263  1
  H+  H133  1  0.36971023  0.99017803  0.18949976  1
  H+  H134  1  0.36033488  0.93041860  -0.07322453  1
  H+  H135  1  0.62005181  0.85015138  0.33791375  1
  H+  H136  1  0.39357096  0.84922567  0.51875829  1
  H+  H137  1  0.39582034  0.85208469  0.98399994  1
  H+  H138  1  0.90280747  0.75845654  0.65597415  1
  H+  H139  1  0.25320828  0.40110417  0.34507602  1
  H+  H140  1  0.88855189  0.77221325  0.83964081  1
  H+  H141  1  0.28573589  0.96631920  0.45672348  1
  H+  H142  1  0.11753614  0.37144767  0.66880739  1
  H+  H143  1  0.63626400  0.62978981  0.83088106  1
  H+  H144  1  0.36300134  0.46829667  0.69320962  1
  H+  H145  1  0.41081506  0.18443664  -0.00968253  1
  H+  H146  1  0.53204896  0.88931879  0.17021151  1
  H+  H147  1  0.71833265  0.10423393  0.84959095  1
  H+  H148  1  0.36582260  0.48442277  0.00479354  1
  H+  H149  1  0.52276343  0.39448001  0.15209841  1
  H+  H150  1  0.86150960  0.27873487  0.99261214  1
  H+  H151  1  0.14028595  0.59338896  0.66047673  1
  H+  H152  1  0.15825890  0.12068613  0.99276737  1
  H+  H153  1  0.43236275  0.29372950  0.69107938  1
  H+  H154  1  1.02897235  0.12448479  0.82442986  1
  H+  H155  1  0.64470506  0.77224752  1.00299885  1
  H+  H156  1  0.61329990  0.27174181  0.32207521  1
  H+  H157  1  0.38511941  0.61624023  0.51666382  1
  H+  H158  1  0.60227993  0.96498250  0.67955767  1
  H+  H159  1  0.29783553  0.89616874  -0.01719583  1
  H+  H160  1  0.64872216  0.78452577  0.85294081  1
  H+  H161  1  0.09465247  0.15718836  0.76276214  1
  H+  H162  1  0.60403828  0.09665737  0.47737716  1
  H+  H163  1  0.73923606  0.12633244  0.17133984  1
  H+  H164  1  0.89433859  1.05403960  0.67332893  1
  H+  H165  1  0.87940511  0.27487149  0.66743213  1
  H+  H166  1  0.89401512  0.86426272  0.84485606  1
  H+  H167  1  0.87033709  0.95776144  0.38848972  1
  H+  H168  1  0.15919635  0.87387601  0.00359499  1
  H+  H169  1  0.28045478  0.14075280  0.15068130  1
  H+  H170  1  0.12306462  0.00461373  0.50494345  1
  H+  H171  1  0.28943222  0.14468137  0.83060779  1
  H+  H172  1  0.14280014  0.36783970  0.98904078  1
  H+  H173  1  0.38748580  0.60780256  0.84609870  1
  H+  H174  1  0.62312121  0.89049680  0.83638895  1
  H+  H175  1  0.84063772  0.37575286  0.81379384  1
  H+  H176  1  0.37315966  -0.00498195  0.53958710  1
  H+  H177  1  0.62343380  -0.02343082  0.16532531  1
  H+  H178  1  0.11704510  0.46143863  0.49617149  1
  H+  H179  1  0.81494823  0.14546555  0.01247970  1
  H+  H180  1  0.23290793  0.36139901  0.67284708  1
  H+  H181  1  0.52748791  0.14761924  0.38703512  1
  H+  H182  1  0.05540901  0.17071384  0.16248194  1
  H+  H183  1  0.22415261  0.63023851  0.98311634  1
  H+  H184  1  0.58268129  0.31902604  0.58530661  1
  H+  H185  1  0.82107856  0.88013600  0.59446206  1
  H+  H186  1  0.86547002  0.91856487  0.59816642  1
  H+  H187  1  0.88341403  0.99413340  0.48956206  1
  H+  H188  1  0.48740015  0.19470478  0.92350424  1
  H+  H189  1  0.11406456  0.70995503  0.66037625  1
  H+  H190  1  0.87211603  -0.05352206  1.02556301  1
  H+  H191  1  0.85183462  0.48181548  0.16703727  1
  H+  H192  1  0.65448158  0.53422879  0.49980559  1
  H+  H193  1  0.38717932  0.61341091  0.33382210  1
  H+  H194  1  0.13256335  0.62954084  0.16481308  1
  H+  H195  1  1.03247993  0.14271870  0.67951242  1
  H+  H196  1  0.84486372  0.48954469  0.35045731  1
  H+  H197  1  0.11740926  0.46662940  0.66868402  1
  H+  H198  1  0.49172014  0.15066569  0.98876664  1
  H+  H199  1  0.59778359  0.95809402  0.49814014  1
  H+  H200  1  0.64452307  0.53347740  0.98484980  1
  H+  H201  1  0.91935204  0.06412829  1.07887950  1
  H+  H202  1  0.61002958  0.13043409  0.14728692  1
  H+  H203  1  0.12831462  0.13827889  0.49527750  1
  H+  H204  1  0.28960894  0.13766620  -0.00574245  1
  H+  H205  1  0.62966882  0.27280992  0.16419955  1
  H+  H206  1  0.13413484  0.16903904  0.34196865  1
  H+  H207  1  0.17276687  0.82194052  0.60903519  1
  H+  H208  1  0.92150772  0.35261541  0.23774696  1
  H+  H209  1  0.76247498  0.90307681  0.69458592  1
  H+  H210  1  0.56587136  0.72420160  0.78417362  1
  H+  H211  1  0.23126530  0.59524412  0.33906367  1
  H+  H212  1  0.50429990  0.86423898  0.50546495  1
  H+  H213  1  0.85081553  0.37375669  0.66285277  1
  H+  H214  1  0.91314912  0.14340715  0.32011430  1
  H+  H215  1  0.12314714  0.73959167  1.00536461  1
  H+  H216  1  0.24710836  0.06856053  0.48804332  1
  H+  H217  1  1.01529721  0.61587219  0.49780086  1
  H+  H218  1  0.41000158  0.56838119  0.60917630  1
  H+  H219  1  0.60828188  0.29233061  0.97677039  1
  H+  H220  1  0.58399636  0.43375104  0.05795734  1
  H+  H221  1  0.63377936  0.86185597  0.67592816  1
  H+  H222  1  0.45049487  0.19119478  0.83636542  1
  H+  H223  1  1.01423604  0.87515555  0.48683325  1
  H+  H224  1  0.26756674  0.62581153  0.82530201  1
  H+  H225  1  0.12123194  0.89452871  0.34058783  1
  H+  H226  1  0.33970936  0.07845901  0.49884964  1
  H+  H227  1  0.21671217  0.37211746  0.82288494  1
  H+  H228  1  0.13399221  0.23095066  0.50198793  1
  H+  H229  1  0.95564803  0.35783192  0.98387233  1
  H+  H230  1  0.34875697  0.93350766  0.27568105  1
  H+  H231  1  0.52681165  0.87151684  0.01623482  1
  H+  H232  1  0.50536615  0.40527156  0.81753481  1
  H+  H233  1  0.48405330  0.84707139  0.84347578  1
  H+  H234  1  0.14711030  0.86086946  0.85279399  1
  H+  H235  1  0.82065160  0.60835026  0.34929889  1
  H+  H236  1  0.77788362  -0.11647851  0.17521200  1
  H+  H237  1  0.77759377  0.86662051  0.01436302  1
  H+  H238  1  0.40468282  0.62382821  0.00440069  1
  H+  H239  1  0.61214682  0.96509578  0.35721996  1
  H+  H240  1  0.62558709  0.10199337  0.65399247  1
  H+  H241  1  0.88976792  0.18194238  0.15970112  1
  H+  H242  1  0.37916114  0.52111705  0.32985548  1
  H+  H243  1  0.75551398  0.36409579  0.34947486  1
  H+  H244  1  0.10373959  0.47788877  0.83211686  1
  H+  H245  1  0.39850558  0.87176246  0.18838741  1
  H+  H246  1  0.15174691  0.04000864  0.32975072  1
  H+  H247  1  0.11580777  0.88861639  0.16545645  1
  H+  H248  1  0.61250973  0.50846433  0.32979490  1
  H+  H249  1  0.71831080  0.36109358  0.16957395  1
  H+  H250  1  0.28555938  0.87871518  0.68694353  1
  H+  H251  1  0.86565959  0.36229284  0.49996321  1
  H+  H252  1  0.03058281  0.88241757  0.83368790  1
  H+  H253  1  0.75613560  0.35794434  0.65004075  1
  H+  H254  1  0.37154093  0.14578049  0.15281271  1
  H+  H255  1  0.64513004  0.77907198  0.67172396  1
  H+  H256  1  0.21390343  0.35979345  0.18459766  1
  H+  H257  1  0.90425531  0.01813312  0.32731481  1
  H+  H258  1  0.63075469  0.23420386  0.63578234  1
  H+  H259  1  0.37682684  0.41212938  0.49072244  1
  H+  H260  1  0.52754495  0.64380142  0.16337731  1
  H+  H261  1  0.35675484  0.48604495  0.49316923  1
  H+  H262  1  0.37231478  0.87771980  0.68365111  1
  H+  H263  1  0.23866768  0.36631877  0.51343113  1
  H+  H264  1  0.68328145  0.16760898  0.51027781  1
  H+  H265  1  0.64087621  0.85967727  0.48823476  1
  H+  H266  1  0.11833239  0.09549457  0.66153962  1
  H+  H267  1  0.23188474  0.59601124  0.66665504  1
  H+  H268  1  0.03873589  0.86500541  0.67822644  1
  H+  H269  1  0.73754688  0.66262535  0.47865515  1
  H+  H270  1  0.04685721  0.64130294  0.28561140  1
  H+  H271  1  0.15274296  0.63882448  0.36152418  1
  H+  H272  1  0.43872234  0.12123209  0.23230379  1
  H+  H273  1  0.35269952  0.22833490  0.52378294  1
  H+  H274  1  0.48193752  0.46242364  0.55990480  1
  H+  H275  1  0.86535876  0.50926250  0.82690843  1
  H+  H276  1  0.95303323  0.58419409  0.66275499  1
  H+  H277  1  0.39704784  0.01459461  0.67936526  1
  H+  H278  1  0.48692561  0.10717549  0.67142279  1
  H+  H279  1  0.64360130  0.61810217  0.65073467  1
  H+  H280  1  0.58643609  0.90799013  0.07632214  1
  H+  H281  1  0.61116753  0.72432344  0.48589864  1
  H+  H282  1  0.09773848  0.65913308  0.45156380  1
  H+  H283  1  0.86870197  0.78141808  0.49174982  1
  H+  H284  1  0.49143243  0.61954050  1.00214660  1
  H+  H285  1  1.03457030  0.65280185  0.31549927  1
  H+  H286  1  0.42400142  0.15730072  0.33666201  1
  H+  H287  1  0.62517934  0.39181156  0.82923682  1
  H+  H288  1  0.32727216  0.13118828  0.41078364  1
  H+  H289  1  0.89263200  0.78431776  0.18663584  1
  H+  H290  1  0.23516012  0.87355052  0.32451692  1
  H+  H291  1  0.60374357  0.42631937  0.43575428  1
  H+  H292  1  0.63496866  0.76783349  0.18448020  1
  H+  H293  1  0.18047495  0.09304985  0.23330588  1
  H+  H294  1  0.23312067  0.85521574  0.85513559  1
  H+  H295  1  0.74452743  0.20982164  0.71971010  1
  H+  H296  1  0.15845126  0.06474477  0.56382041  1
  H+  H297  1  0.12358699  0.12461470  0.16133129  1
  H+  H298  1  0.47133078  0.84646024  0.66814224  1
  H+  H299  1  0.83539693  0.92774321  0.78341524  1
  H+  H300  1  0.79545574  0.67282964  0.38990377  1
  H+  H301  1  0.55211814  0.25273425  0.84579009  1
  H+  H302  1  0.91963720  0.31954758  0.60212397  1
  H+  H303  1  0.08989281  0.92153181  0.39998592  1
  H+  H304  1  0.15534288  0.58268625  0.89040603  1
  H+  H305  1  0.90718208  0.57052193  0.88554491  1
  H+  H306  1  0.65251940  0.57665389  0.23388686  1
  H+  H307  1  0.18158421  0.33316895  0.60798162  1
  H+  H308  1  0.42577484  0.58931026  0.23469375  1
  H+  H309  1  0.10410417  0.39298554  0.13213674  1
  H+  H310  1  0.34031457  0.66762085  0.41149060  1
  H+  H311  1  0.42896494  0.59351945  0.90670801  1
  H+  H312  1  0.34507626  0.17066359  0.05878969  1
  H+  H313  1  0.09442175  0.67226593  0.06035573  1
  H+  H314  1  0.60964879  0.39113697  0.15280408  1
  H+  H315  1  -0.00186093  0.89184405  0.32727374  1
  H+  H316  1  0.98390336  0.17841737  0.23462283  1
  H+  H317  1  0.82951505  0.42941334  0.10341979  1
  H+  H318  1  0.52200892  0.34912559  0.61484305  1
  H+  H319  1  0.09295031  0.92411657  0.07089590  1
  H+  H320  1  0.91865173  0.82027233  0.55543524  1
  H+  H321  1  0.09311017  0.90658994  0.77619702  1
  H+  H322  1  0.67928029  0.84127753  0.91375606  1
  H+  H323  1  0.16057854  0.82442622  0.23768104  1
  H+  H324  1  0.17310517  0.57495565  0.24793716  1
  H+  H325  1  0.67344487  0.09572715  0.22573151  1
  H+  H326  1  0.89780954  0.55685271  0.57127011  1
  H+  H327  1  0.10367164  0.16620805  0.09538274  1
  H+  H328  1  0.17060512  0.56407436  0.56984614  1
  H+  H329  1  0.17170617  0.34520894  0.88947291  1
  H+  H330  1  0.65737326  0.33233169  0.26516626  1
  H+  H331  1  0.93442838  0.10212009  0.89071595  1
  H+  H332  1  0.67583038  0.59465229  0.56146543  1
  H+  H333  1  0.85263461  0.16457697  0.42964561  1
  H+  H334  1  0.87357500  0.72865885  0.99171553  1
  H+  H335  1  0.92808019  0.82917506  0.93339717  1
  H+  H336  1  0.81262906  0.38594892  0.41161163  1
  H+  H337  1  0.89248241  0.07613090  1.01396389  1
  H+  H338  1  0.66015091  0.35704941  0.92410671  1
  H+  H339  1  0.61467827  0.40532515  -0.00170712  1
  H+  H340  1  0.62508593  0.53654940  0.82511797  1
  H+  H341  1  0.59749673  0.38247075  0.33433415  1
  H+  H342  1  0.58141152  0.64957509  0.72868342  1
  H+  H343  1  0.17264458  0.08073166  0.89853685  1
  H+  H344  1  0.89954405  0.33296087  0.89109664  1
  H+  H345  1  0.57276330  0.89848098  0.41283571  1
  H+  H346  1  0.75486958  0.74637828  0.44022329  1
  H+  H347  1  0.81761881  0.18862161  0.07588011  1
  H+  H348  1  0.92748154  0.58434439  0.34814334  1
  H+  H349  1  0.40993800  0.36042067  0.88587145  1
  H+  H350  1  0.32504490  0.41449408  0.05889265  1
  H+  H351  1  0.78781152  0.12941543  0.48499882  1
  H+  H352  1  0.42702915  0.83216323  0.24049561  1
  H+  H353  1  0.30742344  0.90234814  0.42230952  1
  H+  H354  1  0.44525251  0.02090437  0.01133301  1
  H+  H355  1  0.21635220  0.71584756  0.40177334  1
  H+  H356  1  0.55128015  0.12959414  0.09235503  1
  H+  H357  1  0.62989689  0.10791933  0.34231824  1
  H+  H358  1  0.02937321  0.89384071  0.16676528  1
  H+  H359  1  0.41104857  0.34037085  0.22158588  1
  H+  H360  1  0.82599259  0.89425677  0.11262233  1
  H+  H361  1  0.32680759  0.66000746  0.08155553  1
  H+  H362  1  0.85839794  0.92371582  0.69018001  1
  H+  H363  1  0.05605668  0.61977752  0.74847462  1
  H+  H364  1  0.11877063  0.95740851  0.68063968  1
  H+  H365  1  0.38256506  1.00344902  0.32691578  1
  H+  H366  1  0.65116996  0.07236175  0.90425538  1
  H+  H367  1  0.80731718  0.39970966  0.75378420  1
  H+  H368  1  0.17804290  0.83794450  0.94119346  1
  H+  H369  1  0.42679728  0.80943073  0.90364768  1
  H+  H370  1  0.31915645  0.41914855  0.39967083  1
  H+  H371  1  0.67008084  0.59274748  0.92379092  1
  H+  H372  1  0.57852265  0.91124833  0.74232166  1
  H+  H373  1  0.76470441  0.39881285  0.00555797  1
  H+  H374  1  0.38241154  0.13532962  0.68158647  1
  H+  H375  1  0.33028944  0.65387203  0.73529316  1
  H+  H376  1  0.83642303  0.67011788  0.73167818  1
  H+  H377  1  0.12031998  0.59727600  0.82566181  1
  H+  H378  1  0.55094170  0.42029526  0.75491508  1
  H+  H379  1  0.87524962  0.56014654  0.25771705  1
  H+  H380  1  0.10203214  0.18536955  0.40544971  1
  H+  H381  1  0.65080027  0.81919178  0.27071833  1
  H+  H382  1  0.34632845  0.91380891  0.79086226  1
  H+  H383  1  0.42139821  0.37455107  0.68972694  1
  O2-  O384  1  0.08312085  0.14128435  0.13818246  1
  O2-  O385  1  0.10085370  0.17233641  0.48296640  1
  O2-  O386  1  0.09077103  0.14941961  0.80992107  1
  O2-  O387  1  0.08685934  0.39252161  0.17433216  1
  O2-  O388  1  0.08821370  0.39988125  0.48353588  1
  O2-  O389  1  0.07256269  0.41310617  0.81949939  1
  O2-  O390  1  0.10629458  0.66140031  0.14459351  1
  O2-  O391  1  0.07891810  0.65071205  0.49531322  1
  O2-  O392  1  0.06116951  0.62751222  0.79246588  1
  O2-  O393  1  0.09018814  0.92349210  0.15105316  1
  O2-  O394  1  0.07728032  0.90541564  0.47624299  1
  O2-  O395  1  0.09229268  0.91421450  0.82111394  1
  O2-  O396  1  0.33970432  0.17244581  0.13370389  1
  O2-  O397  1  0.29547668  0.06577588  0.46681160  1
  O2-  O398  1  0.34787564  0.18490013  0.81550122  1
  O2-  O399  1  0.31455027  0.40106876  0.13528519  1
  O2-  O400  1  0.33222423  0.42601440  0.47656479  1
  O2-  O401  1  0.31832373  0.41617188  0.77384553  1
  O2-  O402  1  0.33605606  0.67276597  0.15288756  1
  O2-  O403  1  0.34074596  0.66951628  0.48683881  1
  O2-  O404  1  0.32831857  0.65162276  0.81197070  1
  O2-  O405  1  0.34331945  0.92817527  0.20096592  1
  O2-  O406  1  0.29306657  0.91500950  0.46237284  1
  O2-  O407  1  0.34100374  0.90099889  0.83497446  1
  O2-  O408  1  0.57574942  0.15615523  0.13251693  1
  O2-  O409  1  0.50844468  0.08415789  0.45232284  1
  O2-  O410  1  0.63871515  0.20701300  0.72931563  1
  O2-  O411  1  0.58382381  0.42552827  0.13788201  1
  O2-  O412  1  0.63811202  0.44307156  0.47344896  1
  O2-  O413  1  0.56495684  0.43409472  0.79839038  1
  O2-  O414  1  0.58993388  0.67583000  0.14866787  1
  O2-  O415  1  0.57269278  0.66081923  0.47828435  1
  O2-  O416  1  0.57651346  0.68934376  0.81318471  1
  O2-  O417  1  0.59249983  0.91456215  0.15460057  1
  O2-  O418  1  0.56857143  0.89918444  0.48295933  1
  O2-  O419  1  0.58574361  0.91189393  0.81985030  1
  O2-  O420  1  0.84396704  0.19479602  0.14863830  1
  O2-  O421  1  0.84921902  0.15788711  0.47518958  1
  O2-  O422  1  0.82846542  0.16538170  0.81752853  1
  O2-  O423  1  0.82832445  0.42370614  0.14871519  1
  O2-  O424  1  0.82510632  0.38329359  0.48845071  1
  O2-  O425  1  0.81019480  0.40556580  0.79906420  1
  O2-  O426  1  0.83583211  0.68497130  0.16578471  1
  O2-  O427  1  0.78194577  0.71222810  0.44996602  1
  O2-  O428  1  0.83114956  0.66984053  0.80923685  1
  O2-  O429  1  0.83520034  0.91296096  0.15577431  1
  O2-  O430  1  0.85488575  0.93961803  0.46514507  1
  O2-  O431  1  0.84460662  0.92516892  0.82855072  1
  O2-  O432  1  0.17597890  0.08853827  0.18775003  1
  O2-  O433  1  0.16196964  0.06574375  0.51865253  1
  O2-  O434  1  0.17003039  0.07912605  0.85283642  1
  O2-  O435  1  0.22731496  0.33154839  0.15174200  1
  O2-  O436  1  0.17993909  0.33203588  0.53249722  1
  O2-  O437  1  0.16129302  0.34664501  0.84498071  1
  O2-  O438  1  0.17505208  0.57542251  0.20196726  1
  O2-  O439  1  0.16834831  0.56713938  0.52467718  1
  O2-  O440  1  0.15401542  0.57193081  0.84575757  1
  O2-  O441  1  0.16726757  0.83116940  0.19261446  1
  O2-  O442  1  0.15016406  0.81891887  0.53042816  1
  O2-  O443  1  0.17388055  0.83025636  0.87205222  1
  O2-  O444  1  0.42606900  0.10308564  0.18922048  1
  O2-  O445  1  0.40586140  0.05746505  0.54481795  1
  O2-  O446  1  0.50242240  0.19501899  0.85507100  1
  O2-  O447  1  0.41564581  0.33986247  0.17649658  1
  O2-  O448  1  0.46875872  0.42587770  0.52413967  1
  O2-  O449  1  0.40542615  0.35581192  0.83940558  1
  O2-  O450  1  0.43165417  0.59535887  0.18985684  1
  O2-  O451  1  0.41191573  0.58147856  0.53097881  1
  O2-  O452  1  0.43037464  0.59277031  0.86147259  1
  O2-  O453  1  0.42770270  0.83765181  0.19503834  1
  O2-  O454  1  0.42440168  0.82017640  0.53147503  1
  O2-  O455  1  0.42323482  0.81083515  0.85847257  1
  O2-  O456  1  0.67670227  0.09050335  0.18172240  1
  O2-  O457  1  0.66462289  0.11329354  0.48786398  1
  O2-  O458  1  0.65643214  0.07103986  0.85955443  1
  O2-  O459  1  0.65704759  0.33039799  0.18317824  1
  O2-  O460  1  0.69015922  0.26080660  0.55300391  1
  O2-  O461  1  0.64873645  0.35754125  0.84858363  1
  O2-  O462  1  0.66178641  0.58527129  0.18941068  1
  O2-  O463  1  0.66931236  0.59350353  0.51493773  1
  O2-  O464  1  0.66183816  0.59497514  0.84379702  1
  O2-  O465  1  0.66314240  0.82597231  0.20598714  1
  O2-  O466  1  0.67388133  0.82919586  0.48424231  1
  O2-  O467  1  0.68259613  0.84471687  0.86801296  1
  O2-  O468  1  1.00025311  0.20420874  0.19214435  1
  O2-  O469  1  0.93819062  0.08899322  0.52918659  1
  O2-  O470  1  0.93137137  0.08998075  0.84727381  1
  O2-  O471  1  0.92145986  0.35331098  0.19201885  1
  O2-  O472  1  0.92493917  0.31832609  0.52537362  1
  O2-  O473  1  0.90777873  0.33220126  0.84641696  1
  O2-  O474  1  0.89229678  0.57463717  0.21398253  1
  O2-  O475  1  0.90215218  0.55424556  0.52552771  1
  O2-  O476  1  0.90030180  0.57053699  0.84083327  1
  O2-  O477  1  0.92864466  0.84790356  0.19751107  1
  O2-  O478  1  0.91599806  0.83357642  0.51193149  1
  O2-  O479  1  0.92290953  0.83143262  0.85735722  1
  O2-  O480  1  0.18278255  0.09980055  0.31321866  1
  O2-  O481  1  0.11635879  0.04533421  0.63939733  1
  O2-  O482  1  0.18349541  0.08655684  0.97634142  1
  O2-  O483  1  0.13844029  0.36840140  0.33281239  1
  O2-  O484  1  0.17416433  0.33110738  0.65387195  1
  O2-  O485  1  0.16966107  0.33611409  0.97178217  1
  O2-  O486  1  0.17018806  0.56817204  0.32518810  1
  O2-  O487  1  0.17017819  0.56088546  0.65054300  1
  O2-  O488  1  0.16420410  0.59620003  0.96897290  1
  O2-  O489  1  0.17217902  0.83517511  0.31889272  1
  O2-  O490  1  0.17439769  0.81370537  0.65389618  1
  O2-  O491  1  0.18547515  0.84035366  0.98810843  1
  O2-  O492  1  0.45031529  0.12504589  0.31746739  1
  O2-  O493  1  0.42346204  0.07453195  0.66186299  1
  O2-  O494  1  0.48374186  0.19829036  0.97061448  1
  O2-  O495  1  0.39929457  0.34294501  0.30317773  1
  O2-  O496  1  0.46536883  0.35704705  0.68663209  1
  O2-  O497  1  0.42092933  0.35782224  0.95724071  1
  O2-  O498  1  0.41637167  0.58268456  0.31725849  1
  O2-  O499  1  0.41187502  0.56673080  0.65485672  1
  O2-  O500  1  0.43090991  0.59209793  0.98642504  1
  O2-  O501  1  0.41878213  0.83114669  0.31916447  1
  O2-  O502  1  0.41115490  0.81620785  0.65202456  1
  O2-  O503  1  0.42508456  0.81679069  0.98361477  1
  O2-  O504  1  0.66675801  0.08663953  0.35838757  1
  O2-  O505  1  0.65404606  0.06582340  0.64453517  1
  O2-  O506  1  0.63251444  0.06441677  0.98693583  1
  O2-  O507  1  0.65423905  0.33233819  0.31058501  1
  O2-  O508  1  0.66706226  0.29532698  0.60680763  1
  O2-  O509  1  0.65928429  0.34925355  0.96969629  1
  O2-  O510  1  0.64474189  0.57131532  0.31539199  1
  O2-  O511  1  0.67733467  0.59389228  0.63219940  1
  O2-  O512  1  0.67965997  0.59485289  0.96883416  1
  O2-  O513  1  0.64572132  0.81545203  0.31936716  1
  O2-  O514  1  0.67577154  0.84213235  0.66692178  1
  O2-  O515  1  0.67886987  0.83429784  0.98969327  1
  O2-  O516  1  0.95236279  0.12573502  0.30088971  1
  O2-  O517  1  0.94026659  0.10683419  0.65410820  1
  O2-  O518  1  0.93252950  0.06396607  1.03566517  1
  O2-  O519  1  0.92853208  0.34140698  0.31538749  1
  O2-  O520  1  0.92280332  0.32962336  0.64745916  1
  O2-  O521  1  0.89583874  0.33611965  0.97215622  1
  O2-  O522  1  0.86718421  0.55185899  0.33558054  1
  O2-  O523  1  0.89368062  0.56032434  0.64776427  1
  O2-  O524  1  0.92073767  0.58725201  0.97060595  1
  O2-  O525  1  0.93719924  0.86944907  0.31217580  1
  O2-  O526  1  0.94218865  0.81757553  0.63667924  1
  O2-  O527  1  0.92821074  0.82233345  0.97904094  1
  O2-  O528  1  0.11008651  0.18024419  0.02392641  1
  O2-  O529  1  0.10214144  0.19483174  0.36045978  1
  O2-  O530  1  0.09463918  0.16558915  0.69472837  1
  O2-  O531  1  0.11365728  0.44371454  0.02555904  1
  O2-  O532  1  0.08774609  0.40450583  0.36177278  1
  O2-  O533  1  0.08333455  0.40182352  0.68030175  1
  O2-  O534  1  0.08719483  0.67579957  0.01601139  1
  O2-  O535  1  0.15783685  0.68941287  0.38586598  1
  O2-  O536  1  0.07761599  0.64448727  0.65684931  1
  O2-  O537  1  0.09740478  0.92558855  0.02546639  1
  O2-  O538  1  0.09525644  0.92929072  0.35453227  1
  O2-  O539  1  0.09672346  0.89884896  0.69735678  1
  O2-  O540  1  0.34812030  0.17403325  0.01284824  1
  O2-  O541  1  0.34680898  0.17533749  0.37647847  1
  O2-  O542  1  0.36002718  0.17487652  0.69343682  1
  O2-  O543  1  0.32916173  0.42169158  0.01346345  1
  O2-  O544  1  0.31387076  0.41785804  0.35399277  1
  O2-  O545  1  0.33320419  0.40682855  0.70856382  1
  O2-  O546  1  0.31923440  0.64511494  0.03603669  1
  O2-  O547  1  0.33579418  0.66407875  0.36543629  1
  O2-  O548  1  0.32901170  0.65137027  0.68949151  1
  O2-  O549  1  0.36016844  0.92318851  -0.02871086  1
  O2-  O550  1  0.35018225  0.94009907  0.32175237  1
  O2-  O551  1  0.34582792  0.91073484  0.70139935  1
  O2-  O552  1  0.49793004  0.07541235  0.02250906  1
  O2-  O553  1  0.53826243  0.16486971  0.34295903  1
  O2-  O554  1  0.59327931  0.16624339  0.67154291  1
  O2-  O555  1  0.58656409  0.43826670  0.01257803  1
  O2-  O556  1  0.56850764  0.41282211  0.35205936  1
  O2-  O557  1  0.53680107  0.33275697  0.57564473  1
  O2-  O558  1  0.59505080  0.67077695  0.02607831  1
  O2-  O559  1  0.57371766  0.65786345  0.35830923  1
  O2-  O560  1  0.58170023  0.65826155  0.68452849  1
  O2-  O561  1  0.58744449  0.90797181  0.03067133  1
  O2-  O562  1  0.57908282  0.90259079  0.36582670  1
  O2-  O563  1  0.57383735  0.90578934  0.69686334  1
  O2-  O564  1  0.79984502  0.18502078  0.03167076  1
  O2-  O565  1  0.84851291  0.17722995  0.35326047  1
  O2-  O566  1  0.78701155  0.19308114  0.70656024  1
  O2-  O567  1  0.82449469  0.42774627  0.02191043  1
  O2-  O568  1  0.81502548  0.39529591  0.36625559  1
  O2-  O569  1  0.81073825  0.39438362  0.67397917  1
  O2-  O570  1  0.83686030  0.66285485  0.00155768  1
  O2-  O571  1  0.79362655  0.64598695  0.34842385  1
  O2-  O572  1  0.84012044  0.66936638  0.68600030  1
  O2-  O573  1  0.83628259  0.88387896  0.03140869  1
  O2-  O574  1  0.87570996  0.95783184  0.34297239  1
  O2-  O575  1  0.82443302  0.94442218  0.71090542  1
