# generated using pymatgen
data_H2O
_symmetry_space_group_name_H-M   'P 1'
_cell_length_a   17.99493891
_cell_length_b   17.99216826
_cell_length_c   21.99927425
_cell_angle_alpha   89.97033547
_cell_angle_beta   89.96565642
_cell_angle_gamma   120.01660325
_symmetry_Int_Tables_number   1
_chemical_formula_structural   H2O
_chemical_formula_sum   'H384 O192'
_cell_volume   6167.36866952
_cell_formula_units_Z   192
loop_
 _symmetry_equiv_pos_site_id
 _symmetry_equiv_pos_as_xyz
  1  'x, y, z'
loop_
 _atom_type_symbol
 _atom_type_oxidation_number
  H+  1.0
  O2-  -2.0
loop_
 _atom_site_type_symbol
 _atom_site_label
 _atom_site_symmetry_multiplicity
 _atom_site_fract_x
 _atom_site_fract_y
 _atom_site_fract_z
 _atom_site_occupancy
  H+  H0  1  0.27465884  0.39304190  0.34700094  1
  H+  H1  1  0.37780287  0.36052362  0.66512157  1
  H+  H2  1  0.38765916  0.14719308  0.34743068  1
  H+  H3  1  0.56035145  0.13323583  0.42526641  1
  H+  H4  1  0.88725451  0.76942703  0.84754614  1
  H+  H5  1  0.95338847  0.87493305  0.67752814  1
  H+  H6  1  0.11598711  0.63940208  0.51495070  1
  H+  H7  1  0.63927520  0.06572326  0.79342049  1
  H+  H8  1  0.22503037  0.36222308  0.50756556  1
  H+  H9  1  0.14498155  0.26028934  0.68140566  1
  H+  H10  1  0.12739527  0.73976819  0.33341114  1
  H+  H11  1  0.20022879  0.60207072  0.83614784  1
  H+  H12  1  0.36962234  0.87931155  0.33399425  1
  H+  H13  1  0.13388371  0.05455107  0.19662361  1
  H+  H14  1  0.38162980  0.85718204  0.51686433  1
  H+  H15  1  0.10896226  0.21969370  -0.00570484  1
  H+  H16  1  0.52250586  0.62945733  0.84465027  1
  H+  H17  1  0.13861977  0.74425602  0.66886772  1
  H+  H18  1  0.97154539  0.10466669  0.98345316  1
  H+  H19  1  0.61784016  0.72622089  0.49256274  1
  H+  H20  1  0.07762065  0.17067951  0.44659146  1
  H+  H21  1  0.63978552  1.03269820  0.32572081  1
  H+  H22  1  0.60321058  0.62082353  0.00845816  1
  H+  H23  1  0.27096848  0.39090878  0.67357998  1
  H+  H24  1  0.59063355  0.67570467  0.74982719  1
  H+  H25  1  0.66976881  0.59442326  0.60790721  1
  H+  H26  1  0.01831999  0.38783361  0.49089121  1
  H+  H27  1  0.11110055  0.12953340  -0.01161901  1
  H+  H28  1  0.90547346  0.40398211  0.68136694  1
  H+  H29  1  0.09506726  0.94928331  0.14539264  1
  H+  H30  1  0.77969955  0.14283148  0.49327548  1
  H+  H31  1  0.27922809  0.88660678  0.83747621  1
  H+  H32  1  0.61983690  0.64581593  0.68967708  1
  H+  H33  1  0.10651807  0.46395000  0.81886662  1
  H+  H34  1  0.29721999  0.62494983  0.49840449  1
  H+  H35  1  0.53820758  0.15932776  1.01135392  1
  H+  H36  1  0.88562716  0.28242333  0.17242569  1
  H+  H37  1  0.14883049  0.39319585  0.18216971  1
  H+  H38  1  0.47736377  0.61530476  0.32761964  1
  H+  H39  1  0.89540381  0.26850832  0.99062108  1
  H+  H40  1  0.34118907  0.72564923  0.49251933  1
  H+  H41  1  0.12966828  1.03823312  0.66938534  1
  H+  H42  1  0.19616445  0.90014983  0.63240570  1
  H+  H43  1  0.69807757  0.36833665  0.50708185  1
  H+  H44  1  0.63867385  0.10470379  0.50521618  1
  H+  H45  1  0.14016554  0.37523022  0.66165799  1
  H+  H46  1  0.60495807  0.46714172  0.16046065  1
  H+  H47  1  0.68431689  0.35320757  0.64838666  1
  H+  H48  1  0.52212420  0.15500630  0.82934401  1
  H+  H49  1  0.14991293  0.52954068  1.00128810  1
  H+  H50  1  0.36237202  0.37958460  0.49727665  1
  H+  H51  1  0.84369471  0.72257165  0.01378662  1
  H+  H52  1  0.42380442  0.82209483  0.60175231  1
  H+  H53  1  0.10456711  0.38348832  0.48998478  1
  H+  H54  1  0.61119972  0.85844258  0.33487791  1
  H+  H55  1  0.86978674  0.59806018  0.30795542  1
  H+  H56  1  0.47339273  0.86217753  0.50450688  1
  H+  H57  1  0.63284625  0.60680443  0.17336066  1
  H+  H58  1  0.48557497  0.61215444  0.67637127  1
  H+  H59  1  0.60732766  0.35832291  0.33179828  1
  H+  H60  1  0.48321665  0.86107289  0.17072518  1
  H+  H61  1  0.27548323  0.97547376  -0.00276799  1
  H+  H62  1  0.37910215  0.34263964  -0.00230478  1
  H+  H63  1  0.74090830  0.60854765  0.33367719  1
  H+  H64  1  0.84776626  0.71094457  0.16069479  1
  H+  H65  1  0.70203979  0.92161264  0.81099482  1
  H+  H66  1  0.27538835  0.13646145  0.67409758  1
  H+  H67  1  0.09508895  0.41097441  0.74716221  1
  H+  H68  1  0.42235610  0.92047138  0.01840452  1
  H+  H69  1  0.13727102  0.27904906  0.84912479  1
  H+  H70  1  0.64432895  0.61822859  0.50777893  1
  H+  H71  1  0.84253430  0.38359796  0.49623543  1
  H+  H72  1  0.77679467  0.64073528  0.84173131  1
  H+  H73  1  0.62591163  0.10687787  0.17372526  1
  H+  H74  1  0.88280467  0.78810195  0.52651264  1
  H+  H75  1  0.18786583  0.23623825  0.73430554  1
  H+  H76  1  0.71862115  0.60653764  0.00371496  1
  H+  H77  1  0.86896149  0.15045125  0.68080795  1
  H+  H78  1  0.22621153  0.61443549  0.16787815  1
  H+  H79  1  0.51765298  0.13235606  0.33534121  1
  H+  H80  1  0.30028055  0.16734905  1.00217502  1
  H+  H81  1  0.38737451  0.27622386  0.66377779  1
  H+  H82  1  0.34764415  0.63465445  0.83980567  1
  H+  H83  1  0.13353361  0.76399476  0.16264497  1
  H+  H84  1  0.51228334  0.40112193  0.67803030  1
  H+  H85  1  0.11314563  0.60311057  0.83186762  1
  H+  H86  1  0.88119292  0.49826339  0.83866092  1
  H+  H87  1  0.61234435  0.14317340  0.33513076  1
  H+  H88  1  0.78854366  0.41434270  -0.01778901  1
  H+  H89  1  0.41862379  0.07879456  0.26617137  1
  H+  H90  1  0.35211733  0.21490650  0.17684171  1
  H+  H91  1  0.78204908  0.15417482  0.67615668  1
  H+  H92  1  0.64726976  0.77387644  0.31239015  1
  H+  H93  1  0.87836906  0.51493727  0.31629695  1
  H+  H94  1  0.83933209  0.89270079  0.68776889  1
  H+  H95  1  0.16834706  0.59442169  0.53010369  1
  H+  H96  1  0.53777647  0.46726343  0.46672622  1
  H+  H97  1  0.88481073  0.62246585  0.50355253  1
  H+  H98  1  0.38054496  0.10785697  0.18460866  1
  H+  H99  1  0.62782048  0.77297772  0.66150411  1
  H+  H100  1  0.11311841  0.75014060  0.98758410  1
  H+  H101  1  0.76163264  0.30083686  0.61892838  1
  H+  H102  1  0.87503492  0.02578198  0.66997141  1
  H+  H103  1  0.95374661  0.84845498  0.16340659  1
  H+  H104  1  0.07539754  0.90746716  0.65014210  1
  H+  H105  1  0.37259116  0.63818320  0.68456958  1
  H+  H106  1  0.85839250  0.38938114  0.16154820  1
  H+  H107  1  0.52930060  0.91268661  0.68303254  1
  H+  H108  1  0.39260650  0.61722227  0.17237551  1
  H+  H109  1  0.97928666  0.37065760  0.32485807  1
  H+  H110  1  0.61108069  0.88243476  0.49932985  1
  H+  H111  1  0.89851110  0.86306094  0.84102420  1
  H+  H112  1  0.12200907  0.86506694  0.51309125  1
  H+  H113  1  0.16980785  0.23407219  0.12904610  1
  H+  H114  1  0.23812842  0.61816754  0.00703455  1
  H+  H115  1  0.07356274  0.66103329  0.05689034  1
  H+  H116  1  0.65419160  0.28835090  0.99505279  1
  H+  H117  1  0.58243144  0.23774339  0.67123762  1
  H+  H118  1  0.40635152  0.13968162  1.00374412  1
  H+  H119  1  0.78055854  0.14848279  0.33666923  1
  H+  H120  1  0.51690599  0.88532700  0.00254809  1
  H+  H121  1  0.64506767  0.53201290  0.84458085  1
  H+  H122  1  0.13399770  0.76007348  0.83530595  1
  H+  H123  1  0.01089496  0.65202089  0.47416250  1
  H+  H124  1  0.77236967  0.14883941  0.16908189  1
  H+  H125  1  0.38371375  0.36311830  0.32914208  1
  H+  H126  1  0.83060907  0.74257635  0.31756382  1
  H+  H127  1  0.73981557  0.38522370  0.84050720  1
  H+  H128  1  0.64458561  0.52985952  0.50807684  1
  H+  H129  1  0.12347961  0.47798011  0.68197133  1
  H+  H130  1  0.83543177  0.70669022  0.44675776  1
  H+  H131  1  0.62339825  -0.02886035  0.84581013  1
  H+  H132  1  0.96941686  0.10791297  0.66842830  1
  H+  H133  1  0.77577008  0.90270541  0.34130433  1
  H+  H134  1  0.64487096  0.62012001  0.85330353  1
  H+  H135  1  0.36436569  0.47355380  0.68247018  1
  H+  H136  1  0.27120692  0.13157311  0.50228659  1
  H+  H137  1  0.45872548  0.09026939  0.50856059  1
  H+  H138  1  0.22193536  0.35300058  -0.00713124  1
  H+  H139  1  0.10684101  0.08856929  0.84042563  1
  H+  H140  1  0.40150715  0.76744641  0.66454745  1
  H+  H141  1  0.17066328  0.92612208  0.31600199  1
  H+  H142  1  0.11741435  0.40413038  0.34099342  1
  H+  H143  1  0.40505129  0.60264573  0.51804695  1
  H+  H144  1  0.11142231  0.07162487  0.13148118  1
  H+  H145  1  0.36051111  0.12952080  0.67178219  1
  H+  H146  1  0.85519245  0.62421694  0.16060875  1
  H+  H147  1  0.63065798  0.02345332  0.98842926  1
  H+  H148  1  0.61183868  0.26397746  0.32903703  1
  H+  H149  1  0.26385909  0.97418072  1.03023832  1
  H+  H150  1  0.38340748  0.86817277  0.67257554  1
  H+  H151  1  0.12092696  0.00759779  0.83350558  1
  H+  H152  1  -0.01830460  0.02451243  0.09405170  1
  H+  H153  1  0.12859422  0.17589570  0.36178955  1
  H+  H154  1  0.86023749  0.89585763  0.50282678  1
  H+  H155  1  0.53446814  0.63217395  0.49353385  1
  H+  H156  1  0.47328408  0.36015596  0.50647247  1
  H+  H157  1  0.20697285  0.86308134  0.49183898  1
  H+  H158  1  0.62488404  0.26778846  0.17991575  1
  H+  H159  1  0.51214112  0.38307745  0.34184054  1
  H+  H160  1  0.62432474  0.40568908  0.82724240  1
  H+  H161  1  0.83200303  0.92163493  0.43987957  1
  H+  H162  1  0.17490051  0.98308296  0.37251827  1
  H+  H163  1  0.90328202  0.28630442  0.66643856  1
  H+  H164  1  0.11136424  -0.02772084  0.54539281  1
  H+  H165  1  0.95015612  0.52581252  0.63901323  1
  H+  H166  1  0.38625886  0.61193500  0.32795212  1
  H+  H167  1  0.14836826  0.25620988  0.14373317  1
  H+  H168  1  0.13300216  0.10916886  0.51385702  1
  H+  H169  1  0.36308568  0.38936057  0.16047138  1
  H+  H170  1  0.87292827  0.86316469  1.00106947  1
  H+  H171  1  0.02093912  0.38966119  0.15730802  1
  H+  H172  1  0.77545674  0.77298636  0.28166231  1
  H+  H173  1  0.64642957  0.02212910  0.50854330  1
  H+  H174  1  0.36689438  0.73054202  0.83794705  1
  H+  H175  1  0.14805606  0.11551584  0.27688447  1
  H+  H176  1  0.52051453  0.04063370  0.45190883  1
  H+  H177  1  0.39494118  0.27911788  0.33066394  1
  H+  H178  1  0.74890895  0.88166425  0.84339877  1
  H+  H179  1  0.86506308  0.38823440  0.33627720  1
  H+  H180  1  0.05395815  0.65652980  0.66245037  1
  H+  H181  1  0.76970807  0.38752699  0.16839095  1
  H+  H182  1  0.40309116  0.04172391  0.85457322  1
  H+  H183  1  0.23527814  0.18987081  0.34605803  1
  H+  H184  1  0.84464577  0.87711220  0.34361639  1
  H+  H185  1  1.02854796  0.56550024  0.59086404  1
  H+  H186  1  0.88034514  0.51926269  0.16331659  1
  H+  H187  1  0.47564179  0.37458651  0.82263183  1
  H+  H188  1  0.10892896  0.47974729  0.15378867  1
  H+  H189  1  0.76257073  0.88608099  0.00879043  1
  H+  H190  1  0.42116658  0.58654658  0.23190173  1
  H+  H191  1  0.39733808  0.51125032  0.51261583  1
  H+  H192  1  0.13344383  1.02118774  -0.00954396  1
  H+  H193  1  0.92616120  0.34133819  0.93256234  1
  H+  H194  1  0.86297440  0.13735179  -0.00694357  1
  H+  H195  1  0.83855008  0.17601064  0.39550972  1
  H+  H196  1  0.86121913  0.64868860  0.68245840  1
  H+  H197  1  0.61343762  0.15979777  0.81742077  1
  H+  H198  1  0.36647803  0.72439806  0.16106158  1
  H+  H199  1  0.38087066  0.36282947  0.82401281  1
  H+  H200  1  0.39053885  1.01895236  0.32620203  1
  H+  H201  1  0.61681205  0.50685970  0.32551805  1
  H+  H202  1  0.77770082  0.14454683  -0.00769497  1
  H+  H203  1  0.39406777  0.86292994  0.17312263  1
  H+  H204  1  0.79968038  0.85003430  0.16713741  1
  H+  H205  1  0.87922158  0.01987426  0.99651697  1
  H+  H206  1  0.02888286  0.86891312  0.82087231  1
  H+  H207  1  0.83141556  0.42723117  0.68217747  1
  H+  H208  1  0.13665774  0.29460420  0.33259704  1
  H+  H209  1  0.77699922  0.34392750  0.60421657  1
  H+  H210  1  0.38639155  0.02058105  0.17754061  1
  H+  H211  1  0.03123713  0.14248472  0.34681468  1
  H+  H212  1  0.66060782  0.08377317  0.26293114  1
  H+  H213  1  0.37769617  0.10512437  0.51709202  1
  H+  H214  1  1.02037258  0.88737696  0.54949359  1
  H+  H215  1  0.02041362  0.13602412  0.50640787  1
  H+  H216  1  0.70909950  0.86563062  0.65710657  1
  H+  H217  1  0.99684370  0.12538462  0.83016963  1
  H+  H218  1  0.79970485  0.90629273  0.07526108  1
  H+  H219  1  0.63276127  0.53220839  0.66572912  1
  H+  H220  1  0.10690499  0.63300204  0.15378701  1
  H+  H221  1  0.22363544  0.61334339  0.32114882  1
  H+  H222  1  0.59633033  0.39672531  0.67042826  1
  H+  H223  1  0.09132705  0.86859977  0.99839443  1
  H+  H224  1  0.50241980  0.13405394  0.67867263  1
  H+  H225  1  0.35596919  0.81752922  0.97398369  1
  H+  H226  1  0.46770928  0.34440405  -0.00180595  1
  H+  H227  1  0.84523003  0.02297812  0.83967084  1
  H+  H228  1  0.41509115  0.58904392  0.79747081  1
  H+  H229  1  0.11506780  0.63616144  0.00316965  1
  H+  H230  1  0.11669920  0.37997090  0.00517661  1
  H+  H231  1  0.35892343  0.72242544  0.33439643  1
  H+  H232  1  -0.00405331  0.87187155  0.30479740  1
  H+  H233  1  0.71884924  0.60012749  0.17599701  1
  H+  H234  1  0.46859430  0.35666577  0.17044434  1
  H+  H235  1  0.00777762  0.87898873  0.00399105  1
  H+  H236  1  0.88865152  0.37894658  0.85480925  1
  H+  H237  1  0.27820798  0.88219589  0.15380546  1
  H+  H238  1  0.12526657  0.64703770  0.33868882  1
  H+  H239  1  0.85219641  0.14661436  0.83306093  1
  H+  H240  1  0.58837889  0.91332670  0.09815164  1
  H+  H241  1  0.88318036  0.28729881  0.84965209  1
  H+  H242  1  0.47672484  0.60264161  0.99656100  1
  H+  H243  1  0.84374886  0.47135695  0.48736236  1
  H+  H244  1  0.37801129  0.23320923  0.81937128  1
  H+  H245  1  0.26303893  0.87240165  0.65353697  1
  H+  H246  1  0.35952593  0.46485178  0.00494566  1
  H+  H247  1  0.61501762  0.38537768  0.01035389  1
  H+  H248  1  0.38132226  0.73187430  0.00760353  1
  H+  H249  1  0.99787797  0.37169838  0.66438111  1
  H+  H250  1  0.60417814  0.88580944  0.99466923  1
  H+  H251  1  0.60800006  0.63116514  0.33490878  1
  H+  H252  1  0.72073505  0.86139231  0.50783947  1
  H+  H253  1  -0.00515794  0.36336050  -0.00477662  1
  H+  H254  1  0.53233458  0.64378746  0.16289069  1
  H+  H255  1  1.01651054  0.63189112  0.15421542  1
  H+  H256  1  0.62257995  0.35683319  0.17700296  1
  H+  H257  1  0.25002874  0.37747705  0.83978199  1
  H+  H258  1  0.12910823  0.85002681  0.16126142  1
  H+  H259  1  0.39248347  1.00945997  0.66800299  1
  H+  H260  1  0.47464093  0.84820842  0.32338232  1
  H+  H261  1  0.60596615  0.71817299  0.86147306  1
  H+  H262  1  0.12378138  0.38014975  0.82470174  1
  H+  H263  1  0.24351329  0.20670311  0.31371496  1
  H+  H264  1  0.88343343  0.28024657  0.50848403  1
  H+  H265  1  0.41192338  0.86868601  0.84842443  1
  H+  H266  1  0.99838340  0.62914606  0.84550999  1
  H+  H267  1  0.27939425  0.87746854  0.55873685  1
  H+  H268  1  0.26787673  0.12440940  0.16285845  1
  H+  H269  1  0.63196485  0.01983936  0.17294839  1
  H+  H270  1  0.12910229  0.02253638  0.29387939  1
  H+  H271  1  0.51922045  0.13537407  0.16133158  1
  H+  H272  1  0.23671192  0.86175292  0.30843893  1
  H+  H273  1  0.15328850  0.13725419  0.67123889  1
  H+  H274  1  0.08453635  0.41077706  0.06432494  1
  H+  H275  1  0.62641584  0.72950446  0.15745189  1
  H+  H276  1  0.62482443  0.88568962  0.15504569  1
  H+  H277  1  0.86225636  0.15308608  0.16871268  1
  H+  H278  1  0.41657892  0.33254511  0.56868516  1
  H+  H279  1  0.77221857  0.65030881  0.50079324  1
  H+  H280  1  0.17221602  0.83238573  0.25054151  1
  H+  H281  1  0.88268869  1.02766363  0.51167180  1
  H+  H282  1  0.96148783  0.10390034  0.16247751  1
  H+  H283  1  0.64796645  0.29791401  0.83608247  1
  H+  H284  1  0.90097480  0.62065242  0.85112308  1
  H+  H285  1  0.91428995  1.01349211  0.32460498  1
  H+  H286  1  1.00137040  0.84044356  0.28559330  1
  H+  H287  1  0.76783623  0.63899287  0.68105409  1
  H+  H288  1  0.43677847  0.10987252  0.94392704  1
  H+  H289  1  0.36150505  0.21968499  0.50387129  1
  H+  H290  1  0.11895364  0.87117112  0.81585402  1
  H+  H291  1  0.92184035  0.34503524  0.22967367  1
  H+  H292  1  0.34149409  0.67306131  0.74042967  1
  H+  H293  1  0.57191645  0.41666782  0.40513825  1
  H+  H294  1  0.16533727  0.33328807  0.93090786  1
  H+  H295  1  0.10138602  0.75465897  0.47389213  1
  H+  H296  1  0.07995502  0.42656485  0.39934782  1
  H+  H297  1  0.57783293  0.40730054  0.10066491  1
  H+  H298  1  0.64792253  0.05109755  0.66796997  1
  H+  H299  1  0.68509439  0.09692102  0.60420172  1
  H+  H300  1  0.68141274  0.83740211  0.25235022  1
  H+  H301  1  0.33737931  0.41696472  0.43859459  1
  H+  H302  1  0.80732647  0.61410399  0.38478699  1
  H+  H303  1  0.89323326  0.07518059  0.89981776  1
  H+  H304  1  0.32995591  0.41104218  0.06600249  1
  H+  H305  1  0.31383826  0.40844231  0.77750966  1
  H+  H306  1  0.61498894  0.37896198  0.50498861  1
  H+  H307  1  0.91169678  0.08560339  0.57186306  1
  H+  H308  1  0.89044940  0.82027935  0.22138002  1
  H+  H309  1  0.39977082  0.12991879  0.84366990  1
  H+  H310  1  0.72670494  0.13254282  0.82577431  1
  H+  H311  1  0.62201095  0.15022677  0.01049693  1
  H+  H312  1  0.24092813  0.39723477  0.18341213  1
  H+  H313  1  0.41318152  0.06695789  0.60677917  1
  H+  H314  1  0.42175143  1.00974692  0.02223860  1
  H+  H315  1  0.34192422  0.96153758  0.52156385  1
  H+  H316  1  0.19642483  0.84450133  0.98956836  1
  H+  H317  1  0.57615569  0.65602468  0.06530467  1
  H+  H318  1  0.81758008  0.65838099  0.07037023  1
  H+  H319  1  0.31839558  0.85149439  0.72649549  1
  H+  H320  1  1.00445315  0.04534643  0.29023170  1
  H+  H321  1  0.86307080  0.44029020  0.77934439  1
  H+  H322  1  0.05942876  0.88521426  0.09134637  1
  H+  H323  1  0.34178899  0.66740378  0.10086495  1
  H+  H324  1  0.07640084  0.67380258  0.77729048  1
  H+  H325  1  0.16695305  0.34051442  0.60007278  1
  H+  H326  1  0.34482931  0.16131559  0.76986715  1
  H+  H327  1  0.07520230  0.91140608  0.72591593  1
  H+  H328  1  0.37364431  0.48347757  0.15804384  1
  H+  H329  1  0.13117671  0.52893696  0.32451804  1
  H+  H330  1  0.41673198  0.57799831  0.93733525  1
  H+  H331  1  0.58565094  0.17287360  0.10445887  1
  H+  H332  1  0.08719111  0.68362493  0.41073325  1
  H+  H333  1  0.93227266  0.58454446  0.54637959  1
  H+  H334  1  0.82660445  0.41260864  0.39318565  1
  H+  H335  1  0.59062231  0.67052592  0.39467036  1
  H+  H336  1  0.83647489  0.18436595  0.77119414  1
  H+  H337  1  0.16982550  0.09487390  0.57576727  1
  H+  H338  1  0.16315628  0.82863546  0.89100097  1
  H+  H339  1  0.58460450  0.93833705  0.74318985  1
  H+  H340  1  0.65726738  0.82465712  0.56614763  1
  H+  H341  1  0.15704448  0.07144298  0.92767609  1
  H+  H342  1  0.58515647  0.90949462  0.43837145  1
  H+  H343  1  0.37606908  0.63881227  0.00945405  1
  H+  H344  1  0.32740623  0.89912984  0.39129098  1
  H+  H345  1  0.66288404  0.57472107  0.94301639  1
  H+  H346  1  0.90329548  0.83358235  0.94109502  1
  H+  H347  1  0.36998301  0.50340944  0.83647396  1
  H+  H348  1  0.59126502  0.43574054  0.76906194  1
  H+  H349  1  0.56818133  0.18593479  0.74290654  1
  H+  H350  1  0.86959348  0.14683240  0.49523530  1
  H+  H351  1  0.93178482  0.09362090  0.23111838  1
  H+  H352  1  0.83349955  0.66963776  0.78110491  1
  H+  H353  1  0.00832311  0.85167664  0.41394326  1
  H+  H354  1  0.32180099  0.66556509  0.39490985  1
  H+  H355  1  0.53677783  0.79956616  0.37853658  1
  H+  H356  1  0.60715994  0.46931697  0.01197078  1
  H+  H357  1  0.13640526  0.27259283  0.51151793  1
  H+  H358  1  0.16488580  0.58606067  0.22628770  1
  H+  H359  1  0.54125433  0.88066392  0.83819399  1
  H+  H360  1  0.90120406  0.55747750  0.93424742  1
  H+  H361  1  0.43278497  0.83292944  0.90961982  1
  H+  H362  1  0.03075245  0.82736991  0.40558337  1
  H+  H363  1  0.36625056  0.47817569  0.34440758  1
  H+  H364  1  0.89244279  0.27879052  0.32358910  1
  H+  H365  1  0.43199681  0.57827076  0.61467779  1
  H+  H366  1  0.06858713  0.16623079  0.77810614  1
  H+  H367  1  0.35152180  0.93778534  0.78792364  1
  H+  H368  1  0.04639710  0.11681660  0.06769139  1
  H+  H369  1  0.17831075  0.36210323  0.27507764  1
  H+  H370  1  0.86866952  0.78097130  0.67929289  1
  H+  H371  1  0.35801857  0.17411082  0.40855311  1
  H+  H372  1  0.91229159  0.57727857  0.22314365  1
  H+  H373  1  0.79463048  0.92325193  0.73822656  1
  H+  H374  1  0.36160558  0.92803954  0.10777396  1
  H+  H375  1  0.91780448  0.34119635  0.56702297  1
  H+  H376  1  0.62713395  0.33251820  0.58862315  1
  H+  H377  1  0.67266681  0.34514973  0.93408929  1
  H+  H378  1  0.89655101  0.84290889  0.58731925  1
  H+  H379  1  0.41238295  0.33380401  0.23091025  1
  H+  H380  1  0.64885124  0.56625714  0.26357429  1
  H+  H381  1  0.65337283  0.08396993  0.93058139  1
  H+  H382  1  0.42064816  0.83060129  0.26099904  1
  H+  H383  1  0.63857051  0.32506639  0.26315839  1
  O2-  O384  1  0.02588674  0.08152311  0.10686140  1
  O2-  O385  1  0.08136577  0.16475038  0.49148009  1
  O2-  O386  1  0.05927612  0.15204270  0.82162097  1
  O2-  O387  1  0.08174960  0.41836732  0.14118088  1
  O2-  O388  1  0.07686901  0.41462237  0.47325623  1
  O2-  O389  1  0.09109739  0.40591094  0.80128540  1
  O2-  O390  1  0.07770701  0.66446249  0.13939576  1
  O2-  O391  1  0.07392072  0.68736217  0.46268088  1
  O2-  O392  1  0.07982875  0.67322312  0.82196750  1
  O2-  O393  1  0.05910261  0.88574910  0.13735277  1
  O2-  O394  1  0.08233414  0.91116170  0.55955252  1
  O2-  O395  1  0.08439750  0.89739553  0.79909941  1
  O2-  O396  1  0.32356900  0.15214375  0.18410498  1
  O2-  O397  1  0.33278787  0.15842267  0.49001741  1
  O2-  O398  1  0.35398355  0.16945753  0.81409309  1
  O2-  O399  1  0.33624111  0.42286551  0.14486124  1
  O2-  O400  1  0.33697762  0.41580568  0.48440468  1
  O2-  O401  1  0.31713939  0.41083000  0.82245178  1
  O2-  O402  1  0.33561142  0.66376192  0.14674305  1
  O2-  O403  1  0.30060542  0.67005961  0.47214031  1
  O2-  O404  1  0.32796645  0.67166496  0.82142314  1
  O2-  O405  1  0.34198185  0.91494470  0.15159530  1
  O2-  O406  1  0.30946842  0.89741754  0.51875227  1
  O2-  O407  1  0.34401328  0.92390364  0.83114445  1
  O2-  O408  1  0.58153796  0.16730467  0.14996089  1
  O2-  O409  1  0.54506122  0.10018163  0.46490151  1
  O2-  O410  1  0.57999127  0.18872593  0.80625964  1
  O2-  O411  1  0.57541647  0.40604485  0.14687977  1
  O2-  O412  1  0.56753949  0.43486915  0.47148488  1
  O2-  O413  1  0.59384384  0.43679880  0.81422901  1
  O2-  O414  1  0.59171618  0.66676810  0.14656595  1
  O2-  O415  1  0.59310657  0.66619537  0.47570729  1
  O2-  O416  1  0.58416267  0.66783878  0.83415989  1
  O2-  O417  1  0.58958340  0.91248326  0.14333949  1
  O2-  O418  1  0.58432592  0.91620752  0.48290007  1
  O2-  O419  1  0.60229312  0.91775622  0.82280152  1
  O2-  O420  1  0.83195899  0.18370107  0.15496243  1
  O2-  O421  1  0.84031041  0.17717969  0.47896420  1
  O2-  O422  1  0.82673275  0.18097272  0.81643945  1
  O2-  O423  1  0.82569089  0.41784872  0.14799370  1
  O2-  O424  1  0.80836290  0.40900172  0.47982549  1
  O2-  O425  1  0.84645011  0.43607784  0.82253080  1
  O2-  O426  1  0.81713130  0.64907701  0.14942507  1
  O2-  O427  1  0.83497329  0.68857273  0.48868105  1
  O2-  O428  1  0.83788637  0.67250600  0.82591206  1
  O2-  O429  1  0.77197825  0.88384442  0.15644645  1
  O2-  O430  1  0.82840165  0.92308602  0.48517162  1
  O2-  O431  1  0.75856073  0.92408324  0.81143098  1
  O2-  O432  1  0.14989114  0.05527619  0.15321888  1
  O2-  O433  1  0.16556779  0.08235272  0.53110502  1
  O2-  O434  1  0.14157882  0.06299838  0.85417586  1
  O2-  O435  1  0.18926149  0.38421389  0.20788566  1
  O2-  O436  1  0.16508691  0.33462605  0.52297623  1
  O2-  O437  1  0.16740704  0.33992617  0.86039168  1
  O2-  O438  1  0.16481791  0.58553200  0.18097609  1
  O2-  O439  1  0.12016417  0.60010361  0.54428716  1
  O2-  O440  1  0.13793913  0.56383332  0.83755969  1
  O2-  O441  1  0.16582655  0.82632540  0.17593448  1
  O2-  O442  1  0.14592041  0.84273266  0.48128274  1
  O2-  O443  1  0.17320282  0.82897106  0.84659828  1
  O2-  O444  1  0.41788411  0.08093099  0.19280272  1
  O2-  O445  1  0.40487275  0.07091480  0.53217933  1
  O2-  O446  1  0.43551370  0.10415861  0.86253204  1
  O2-  O447  1  0.40828242  0.33042297  0.18573872  1
  O2-  O448  1  0.41294023  0.32643899  0.52341474  1
  O2-  O449  1  0.41499195  0.33542408  0.81242574  1
  O2-  O450  1  0.42634337  0.58986228  0.18681962  1
  O2-  O451  1  0.43434658  0.57168375  0.52973158  1
  O2-  O452  1  0.40933521  0.57093656  0.83983102  1
  O2-  O453  1  0.42373563  0.83138894  0.18787510  1
  O2-  O454  1  0.41415498  0.82590353  0.52050939  1
  O2-  O455  1  0.43939199  0.83557179  0.86148829  1
  O2-  O456  1  0.65593681  0.07775757  0.19158921  1
  O2-  O457  1  0.67605808  0.08363400  0.52129205  1
  O2-  O458  1  0.66099762  0.09966503  0.83061612  1
  O2-  O459  1  0.65002599  0.32667733  0.19841659  1
  O2-  O460  1  0.63837751  0.34427551  0.52269751  1
  O2-  O461  1  0.67793091  0.35628024  0.85369062  1
  O2-  O462  1  0.65710374  0.57144304  0.19042908  1
  O2-  O463  1  0.67582899  0.59010296  0.52536155  1
  O2-  O464  1  0.67715083  0.59046574  0.86429582  1
  O2-  O465  1  0.68269797  0.83374806  0.18093503  1
  O2-  O466  1  0.65893269  0.82636755  0.51961188  1
  O2-  O467  1  0.67360057  0.81740295  0.90542663  1
  O2-  O468  1  0.91796790  0.10368413  0.18973921  1
  O2-  O469  1  0.91579567  0.08824337  0.52673798  1
  O2-  O470  1  0.88908905  0.08057845  0.85453716  1
  O2-  O471  1  0.92098224  0.34559450  0.18425136  1
  O2-  O472  1  0.90952649  0.34119760  0.52234500  1
  O2-  O473  1  0.91497383  0.34444975  0.86898102  1
  O2-  O474  1  0.91330553  0.58153255  0.17716559  1
  O2-  O475  1  0.91575996  0.58991288  0.50355728  1
  O2-  O476  1  0.93168617  0.59050377  0.86341425  1
  O2-  O477  1  0.89213240  0.82095519  0.17660345  1
  O2-  O478  1  0.90957010  0.84766586  0.54265015  1
  O2-  O479  1  0.92273297  0.83194528  0.86129594  1
  O2-  O480  1  0.10510028  0.05528400  0.27075068  1
  O2-  O481  1  0.17019177  0.09665657  0.65309600  1
  O2-  O482  1  0.16262011  0.07981251  0.97323504  1
  O2-  O483  1  0.17506026  0.35541388  0.32169134  1
  O2-  O484  1  0.17134470  0.34390568  0.64549680  1
  O2-  O485  1  0.16150091  0.32525714  0.97786008  1
  O2-  O486  1  0.16321422  0.58925125  0.30724390  1
  O2-  O487  1  0.25482889  0.73281605  0.58872371  1
  O2-  O488  1  0.17771292  0.59176770  0.99354299  1
  O2-  O489  1  0.17566496  0.83764857  0.29662013  1
  O2-  O490  1  0.21455455  0.85855341  0.62479502  1
  O2-  O491  1  0.13918236  0.81369401  0.97204368  1
  O2-  O492  1  0.42183390  0.07957880  0.31243398  1
  O2-  O493  1  0.41496695  0.06855033  0.65280732  1
  O2-  O494  1  0.43961211  0.11082264  0.98903514  1
  O2-  O495  1  0.41680440  0.33735975  0.31147962  1
  O2-  O496  1  0.41325122  0.33621900  0.64823366  1
  O2-  O497  1  0.40937362  0.31413315  0.97968436  1
  O2-  O498  1  0.41679302  0.58171463  0.31332687  1
  O2-  O499  1  0.42604901  0.57883796  0.65934422  1
  O2-  O500  1  0.41411811  0.57381117  0.98159432  1
  O2-  O501  1  0.41607852  0.82821708  0.30721885  1
  O2-  O502  1  0.43167812  0.82796732  0.64658171  1
  O2-  O503  1  0.41487063  0.82882956  0.97598528  1
  O2-  O504  1  0.66376751  0.09047136  0.30932792  1
  O2-  O505  1  0.68885826  0.10697269  0.64855087  1
  O2-  O506  1  0.66119820  0.08478365  0.97457648  1
  O2-  O507  1  0.63397715  0.32377820  0.31150006  1
  O2-  O508  1  0.62412594  0.32738492  0.63689677  1
  O2-  O509  1  0.67977484  0.34836572  0.97908164  1
  O2-  O510  1  0.64750092  0.56783630  0.30984554  1
  O2-  O511  1  0.66949245  0.59437677  0.65318260  1
  O2-  O512  1  0.65697463  0.57093088  0.98801988  1
  O2-  O513  1  0.67783455  0.83519164  0.29949755  1
  O2-  O514  1  0.65280744  0.82700882  0.63794384  1
  O2-  O515  1  0.66660667  0.83450595  0.96177830  1
  O2-  O516  1  0.96354102  0.06359890  0.30430270  1
  O2-  O517  1  0.91158742  0.08559188  0.65250766  1
  O2-  O518  1  0.90823962  0.07531508  0.97435992  1
  O2-  O519  1  0.91978704  0.33948084  0.30823340  1
  O2-  O520  1  0.93608511  0.34596534  0.64961047  1
  O2-  O521  1  0.93149076  0.33380053  0.98016331  1
  O2-  O522  1  0.90542250  0.57330048  0.29652670  1
  O2-  O523  1  0.98088681  0.57151234  0.60804544  1
  O2-  O524  1  0.86994656  0.53536362  0.97459942  1
  O2-  O525  1  0.83330473  0.79311014  0.29704277  1
  O2-  O526  1  0.89136198  0.84113519  0.66496388  1
  O2-  O527  1  0.90237682  0.83249870  0.98625804  1
  O2-  O528  1  0.07524297  0.15588457  0.00224075  1
  O2-  O529  1  0.08271010  0.18860069  0.36983087  1
  O2-  O530  1  0.13725205  0.20981544  0.70813877  1
  O2-  O531  1  0.08530035  0.41053770  0.01868443  1
  O2-  O532  1  0.08297299  0.43129595  0.35341230  1
  O2-  O533  1  0.09402934  0.41685265  0.69129694  1
  O2-  O534  1  0.07774473  0.66159791  0.01196891  1
  O2-  O535  1  0.10194014  0.68365630  0.35556939  1
  O2-  O536  1  0.09299335  0.69792717  0.69270930  1
  O2-  O537  1  0.06894943  0.90432544  0.01716609  1
  O2-  O538  1  0.17714672  0.98281158  0.32841401  1
  O2-  O539  1  0.06068091  0.92999651  0.68621162  1
  O2-  O540  1  0.35263503  0.18710745  0.02718667  1
  O2-  O541  1  0.37716313  0.19108063  0.36615158  1
  O2-  O542  1  0.33746698  0.16623436  0.68552729  1
  O2-  O543  1  0.32850655  0.40486024  0.02079586  1
  O2-  O544  1  0.33589866  0.41869573  0.36149452  1
  O2-  O545  1  0.32818605  0.41171066  0.69362380  1
  O2-  O546  1  0.35095899  0.67271846  0.02681656  1
  O2-  O547  1  0.32958126  0.66234249  0.35022118  1
  O2-  O548  1  0.34915392  0.67563441  0.69554329  1
  O2-  O549  1  0.41965393  0.96226478  0.04643285  1
  O2-  O550  1  0.33721711  0.90901955  0.34771105  1
  O2-  O551  1  0.34889235  0.89349577  0.69441701  1
  O2-  O552  1  0.59946771  0.18636665  0.02704365  1
  O2-  O553  1  0.57799036  0.16777986  0.35304324  1
  O2-  O554  1  0.56157980  0.18124207  0.69407827  1
  O2-  O555  1  0.57848645  0.40806913  0.02673487  1
  O2-  O556  1  0.57328891  0.41018063  0.35723129  1
  O2-  O557  1  0.57484038  0.43258655  0.68956407  1
  O2-  O558  1  0.56992278  0.64952600  0.02057619  1
  O2-  O559  1  0.58709867  0.67049344  0.34938071  1
  O2-  O560  1  0.58669414  0.67290033  0.70478924  1
  O2-  O561  1  0.57903826  0.91718596  0.01468902  1
  O2-  O562  1  0.56501032  0.85770285  0.36186501  1
  O2-  O563  1  0.57301933  0.96233940  0.70641985  1
  O2-  O564  1  0.83959784  0.17591342  0.00174991  1
  O2-  O565  1  0.84057168  0.17670560  0.35050311  1
  O2-  O566  1  0.84240535  0.18424432  0.69477328  1
  O2-  O567  1  0.85262251  0.44809031  -0.02435641  1
  O2-  O568  1  0.83445007  0.41917759  0.34884972  1
  O2-  O569  1  0.88960041  0.44829369  0.69654939  1
  O2-  O570  1  0.81322770  0.66140235  0.02552679  1
  O2-  O571  1  0.80351521  0.64258576  0.34827809  1
  O2-  O572  1  0.82778559  0.67326822  0.69853279  1
  O2-  O573  1  0.81726193  0.91508745  0.03178389  1
  O2-  O574  1  0.83284707  0.92185190  0.36009625  1
  O2-  O575  1  0.81078645  0.92760942  0.69450955  1
