# generated using pymatgen
data_H2O
_symmetry_space_group_name_H-M   'P 1'
_cell_length_a   17.99876413
_cell_length_b   18.00176550
_cell_length_c   22.00806727
_cell_angle_alpha   90.00809548
_cell_angle_beta   89.97945531
_cell_angle_gamma   120.02278843
_symmetry_Int_Tables_number   1
_chemical_formula_structural   H2O
_chemical_formula_sum   'H384 O192'
_cell_volume   6174.05537379
_cell_formula_units_Z   192
loop_
 _symmetry_equiv_pos_site_id
 _symmetry_equiv_pos_as_xyz
  1  'x, y, z'
loop_
 _atom_type_symbol
 _atom_type_oxidation_number
  H+  1.0
  O2-  -2.0
loop_
 _atom_site_type_symbol
 _atom_site_label
 _atom_site_symmetry_multiplicity
 _atom_site_fract_x
 _atom_site_fract_y
 _atom_site_fract_z
 _atom_site_occupancy
  H+  H0  1  0.82415660  0.67844952  0.82791487  1
  H+  H1  1  0.71127143  0.11521057  0.51634311  1
  H+  H2  1  0.71791973  0.10271193  0.17004181  1
  H+  H3  1  0.28143094  0.90420201  0.49360243  1
  H+  H4  1  0.36402672  0.14132772  0.34391705  1
  H+  H5  1  0.86739819  0.84895119  0.83397643  1
  H+  H6  1  0.10891910  0.22187676  0.15977202  1
  H+  H7  1  0.62204543  0.60504232  0.50669633  1
  H+  H8  1  0.88314732  0.52085663  -0.00517895  1
  H+  H9  1  0.12914355  0.25981229  0.82524471  1
  H+  H10  1  0.33382919  0.53778685  0.53712743  1
  H+  H11  1  0.33262461  -0.07158550  1.05859236  1
  H+  H12  1  0.13622676  0.86471665  0.65514123  1
  H+  H13  1  0.63493762  0.52823000  0.32605054  1
  H+  H14  1  0.82713017  0.16347482  0.76579802  1
  H+  H15  1  0.86776226  0.88844011  0.49793769  1
  H+  H16  1  0.59622424  0.31070746  0.30614815  1
  H+  H17  1  0.89045965  0.34615775  0.87249244  1
  H+  H18  1  0.38157695  0.87324008  0.17003999  1
  H+  H19  1  0.27500954  0.89774124  0.33788520  1
  H+  H20  1  0.61426069  0.90316491  0.15745492  1
  H+  H21  1  0.11090527  0.38056061  0.33648076  1
  H+  H22  1  0.86366432  0.47380312  0.15802419  1
  H+  H23  1  0.84603193  0.10650609  0.15038837  1
  H+  H24  1  0.59484051  0.46504893  0.82889385  1
  H+  H25  1  0.87221890  0.35824111  0.65284710  1
  H+  H26  1  0.52271210  0.63487857  0.33908053  1
  H+  H27  1  0.21922965  0.85487605  0.65357481  1
  H+  H28  1  0.88191229  0.61219225  0.64844898  1
  H+  H29  1  0.10362291  0.13355802  0.34144883  1
  H+  H30  1  0.51617047  0.87261303  0.83587214  1
  H+  H31  1  0.84582613  0.23774362  0.49888255  1
  H+  H32  1  0.65651098  0.60638145  0.17249092  1
  H+  H33  1  0.51796126  0.22562147  0.03051795  1
  H+  H34  1  0.39818752  0.02403890  0.81186946  1
  H+  H35  1  0.33638682  0.41102128  0.39441779  1
  H+  H36  1  0.71722110  0.10486669  0.83545004  1
  H+  H37  1  0.56242106  0.18327145  0.06692873  1
  H+  H38  1  0.75915316  0.21144166  1.04544688  1
  H+  H39  1  0.57182741  0.67010985  0.77052237  1
  H+  H40  1  0.88213172  0.51234564  0.50253183  1
  H+  H41  1  0.51072157  0.64743162  0.82964098  1
  H+  H42  1  -0.02622989  0.10356715  0.16676583  1
  H+  H43  1  0.37686665  0.71849941  0.32745662  1
  H+  H44  1  -0.02861065  0.85455037  0.17608352  1
  H+  H45  1  0.22736858  0.35816124  0.17408169  1
  H+  H46  1  0.47221716  0.10965355  0.66207892  1
  H+  H47  1  0.13285924  0.77638472  0.17532035  1
  H+  H48  1  0.48658184  0.10795197  0.96809692  1
  H+  H49  1  1.03272573  0.13706209  0.50337923  1
  H+  H50  1  0.31487573  0.15699131  1.05044676  1
  H+  H51  1  0.14111346  0.36280652  0.18717619  1
  H+  H52  1  0.90189124  0.01294246  0.52300103  1
  H+  H53  1  0.93198589  0.09880016  0.89637555  1
  H+  H54  1  0.61431361  0.22689369  0.16005905  1
  H+  H55  1  0.88343747  0.60320269  0.17612830  1
  H+  H56  1  0.48228140  0.36827128  0.99434962  1
  H+  H57  1  0.83941240  0.14605036  0.50048119  1
  H+  H58  1  0.51604817  0.64090163  0.49319723  1
  H+  H59  1  0.52063316  0.13719702  0.49390110  1
  H+  H60  1  0.14140422  0.77952414  0.32965755  1
  H+  H61  1  -0.07842923  0.59861028  0.42718026  1
  H+  H62  1  0.48635788  0.36883956  0.33179915  1
  H+  H63  1  0.62934317  0.36246244  0.66375257  1
  H+  H64  1  0.13053820  0.78256897  0.99263166  1
  H+  H65  1  0.77009470  0.63173650  0.16814476  1
  H+  H66  1  0.80934688  0.14320607  0.09751234  1
  H+  H67  1  0.94485421  0.78806683  0.86901638  1
  H+  H68  1  0.96898649  0.32883957  1.02069140  1
  H+  H69  1  0.62791047  0.27009078  0.51134348  1
  H+  H70  1  0.38025436  0.25427305  0.83734902  1
  H+  H71  1  0.15140669  0.25959517  0.66740896  1
  H+  H72  1  0.61138423  0.72569099  0.34113257  1
  H+  H73  1  0.59013957  0.79126692  0.19215275  1
  H+  H74  1  0.00545751  0.11188665  0.79825731  1
  H+  H75  1  0.38610644  0.11167199  0.65609904  1
  H+  H76  1  0.72132313  0.36660902  0.65840795  1
  H+  H77  1  0.47892603  0.11979072  0.17269873  1
  H+  H78  1  0.16935424  0.62750608  0.65993567  1
  H+  H79  1  0.02688605  0.64434900  0.81982302  1
  H+  H80  1  0.86349410  0.89142415  0.01030657  1
  H+  H81  1  0.27425982  0.88292492  0.82338043  1
  H+  H82  1  0.18575265  0.58563577  0.60105301  1
  H+  H83  1  0.83118461  0.91692181  0.06992015  1
  H+  H84  1  0.13674233  0.53183846  0.18779047  1
  H+  H85  1  0.11721934  0.65078395  0.81059831  1
  H+  H86  1  0.62290079  0.21676867  0.33787485  1
  H+  H87  1  0.77365289  0.63986666  0.00876916  1
  H+  H88  1  0.10627395  0.64155003  0.16266711  1
  H+  H89  1  0.47056531  0.87110230  0.16584816  1
  H+  H90  1  0.24368522  0.36432856  0.00228723  1
  H+  H91  1  0.37400044  0.33925665  0.83834520  1
  H+  H92  1  0.35861923  0.23248526  1.00219193  1
  H+  H93  1  0.87056079  0.26708865  0.65537419  1
  H+  H94  1  0.10805126  -0.02307849  0.49120703  1
  H+  H95  1  0.58927204  0.16644302  0.43816115  1
  H+  H96  1  0.08572618  0.43619125  -0.04767445  1
  H+  H97  1  0.36912530  0.23257618  0.33847061  1
  H+  H98  1  0.11936880  0.64404500  0.34474112  1
  H+  H99  1  0.87375988  0.36045052  0.50453600  1
  H+  H100  1  0.10588356  0.88212162  0.17171696  1
  H+  H101  1  0.85253579  0.39219842  0.34560486  1
  H+  H102  1  0.33859342  0.10078645  0.14809867  1
  H+  H103  1  0.12597916  0.09719873  0.80756595  1
  H+  H104  1  0.16177363  0.57468084  0.96318021  1
  H+  H105  1  0.14091065  0.11733443  0.50055357  1
  H+  H106  1  0.88098590  0.02142814  0.99764227  1
  H+  H107  1  0.78903688  0.73288649  0.79806080  1
  H+  H108  1  0.85241218  0.39313319  0.79936404  1
  H+  H109  1  0.89563502  0.61382237  0.83564981  1
  H+  H110  1  -0.02983565  0.36999941  0.33133500  1
  H+  H111  1  0.27429017  0.58797940  0.02365099  1
  H+  H112  1  0.34560939  0.65818668  0.15299914  1
  H+  H113  1  0.10440315  0.37916257  0.48448132  1
  H+  H114  1  0.38560395  0.27414797  0.50652716  1
  H+  H115  1  0.91486404  0.83408524  0.27475762  1
  H+  H116  1  0.37775277  0.54063253  0.84066375  1
  H+  H117  1  0.37907123  0.62898532  0.50407853  1
  H+  H118  1  0.64233476  0.86363645  0.33003546  1
  H+  H119  1  0.48291212  0.87119343  0.50062312  1
  H+  H120  1  0.91213362  0.19870092  0.37803469  1
  H+  H121  1  0.41852592  0.46396032  0.81102826  1
  H+  H122  1  0.39527863  0.36445667  0.32611946  1
  H+  H123  1  0.61797270  0.72497379  0.01331224  1
  H+  H124  1  0.47751337  0.86703809  0.96569113  1
  H+  H125  1  0.35882860  0.97906090  0.16309964  1
  H+  H126  1  0.66668586  0.86701978  0.85319982  1
  H+  H127  1  0.90622068  0.09609149  0.55046068  1
  H+  H128  1  0.75802634  0.37841026  0.50106937  1
  H+  H129  1  0.48758743  0.85249773  0.32038622  1
  H+  H130  1  0.53518999  0.38457600  0.16324635  1
  H+  H131  1  0.12600339  -0.01474896  0.82238238  1
  H+  H132  1  0.84581913  0.71302747  0.65955385  1
  H+  H133  1  0.89163019  0.78433111  0.33944796  1
  H+  H134  1  0.60319854  0.59883429  0.84472740  1
  H+  H135  1  0.53483102  0.12930852  0.34815426  1
  H+  H136  1  0.42689976  0.09677375  0.39520155  1
  H+  H137  1  0.60801762  0.38644801  0.49806730  1
  H+  H138  1  0.11594889  0.98168100  0.34015073  1
  H+  H139  1  0.96980485  0.11066812  0.32506211  1
  H+  H140  1  0.73086713  0.86126691  0.32985181  1
  H+  H141  1  0.87992954  0.85286739  0.17393030  1
  H+  H142  1  0.27292355  0.89756471  0.00066747  1
  H+  H143  1  0.87812131  0.10479843  0.31887649  1
  H+  H144  1  0.63349628  0.36118460  0.82776121  1
  H+  H145  1  1.01098789  0.88178198  0.84764603  1
  H+  H146  1  0.35564895  0.75061468  0.15248939  1
  H+  H147  1  0.37889585  0.74161422  0.47985990  1
  H+  H148  1  0.85929148  -0.03325878  0.16289640  1
  H+  H149  1  0.78553292  0.37633883  -0.00446326  1
  H+  H150  1  0.02638066  0.89325812  0.33913646  1
  H+  H151  1  0.60122578  0.87494366  1.00863875  1
  H+  H152  1  0.87898282  0.39116023  0.00644012  1
  H+  H153  1  0.37845036  0.47835120  0.48488107  1
  H+  H154  1  0.71057628  0.60265392  0.65627192  1
  H+  H155  1  0.76854330  0.12598052  0.67420110  1
  H+  H156  1  0.36457457  0.65899499  0.82444054  1
  H+  H157  1  0.22809222  0.11402237  0.50073124  1
  H+  H158  1  0.63234863  0.71204869  0.16548732  1
  H+  H159  1  0.86158772  0.48365814  0.65388018  1
  H+  H160  1  0.73262433  0.82332978  0.65416351  1
  H+  H161  1  0.76997166  0.83361542  0.83681737  1
  H+  H162  1  0.09377557  0.42564907  0.24791203  1
  H+  H163  1  0.87504025  0.66366928  0.36737848  1
  H+  H164  1  0.54645397  0.62074705  0.16765260  1
  H+  H165  1  0.62390333  0.97510828  0.34023740  1
  H+  H166  1  0.07898853  0.66876039  0.71873023  1
  H+  H167  1  0.64743519  0.27034301  -0.01738862  1
  H+  H168  1  0.37085677  0.46504837  0.16423792  1
  H+  H169  1  0.23414196  0.39232814  0.64858107  1
  H+  H170  1  0.36913380  0.84507227  0.65197694  1
  H+  H171  1  0.85708337  0.21696493  0.82781365  1
  H+  H172  1  0.09843955  0.96823319  0.17267106  1
  H+  H173  1  0.40745693  0.76802513  0.86562823  1
  H+  H174  1  0.64127161  0.61361336  -0.00555682  1
  H+  H175  1  0.87105862  0.84124067  0.66011259  1
  H+  H176  1  0.16367099  0.25113664  0.83602651  1
  H+  H177  1  0.88656997  0.53759680  0.37077074  1
  H+  H178  1  0.73502038  0.35956088  0.17016172  1
  H+  H179  1  0.23748722  0.66738230  0.97063409  1
  H+  H180  1  0.10879354  0.72405649  0.65888108  1
  H+  H181  1  0.11234108  0.22614777  1.00802897  1
  H+  H182  1  0.61395078  0.47307865  0.00730506  1
  H+  H183  1  0.16494671  0.09887186  0.87522558  1
  H+  H184  1  0.26361320  0.04075608  0.10465480  1
  H+  H185  1  0.87687522  0.10699658  0.99268451  1
  H+  H186  1  0.23663474  0.11924150  0.65114721  1
  H+  H187  1  0.21780786  0.62567580  0.17110540  1
  H+  H188  1  0.61024880  0.70950931  0.67091725  1
  H+  H189  1  0.97292307  0.86117042  0.50509136  1
  H+  H190  1  0.65077682  0.11145366  0.33138607  1
  H+  H191  1  0.61087001  0.23636132  0.68486277  1
  H+  H192  1  0.76366033  0.39145697  0.81159303  1
  H+  H193  1  0.02515375  0.39276621  0.19580129  1
  H+  H194  1  0.36478029  0.13972968  0.49242652  1
  H+  H195  1  0.16294307  0.08786807  0.27062276  1
  H+  H196  1  0.63599657  0.41392082  0.35278707  1
  H+  H197  1  0.85841880  0.12666837  0.68008108  1
  H+  H198  1  0.13816146  0.86719085  0.32704580  1
  H+  H199  1  0.68999726  0.60287823  0.83305856  1
  H+  H200  1  0.63789457  0.77430179  0.50046926  1
  H+  H201  1  0.60762129  0.13532275  0.15759891  1
  H+  H202  1  0.88514725  0.52257121  0.83462722  1
  H+  H203  1  0.28256653  0.63368184  0.33441742  1
  H+  H204  1  0.89470803  0.37009890  0.17500818  1
  H+  H205  1  0.12668252  0.10783268  0.17459615  1
  H+  H206  1  0.61960247  0.59936463  0.66445507  1
  H+  H207  1  0.35791695  -0.03411450  0.66574040  1
  H+  H208  1  0.51255812  0.37075766  0.82706851  1
  H+  H209  1  0.39632716  0.61942623  0.99443949  1
  H+  H210  1  1.03022107  0.62595372  0.49511737  1
  H+  H211  1  0.14114222  0.54199389  0.82502700  1
  H+  H212  1  0.01538299  0.64210567  0.00842420  1
  H+  H213  1  0.82008957  0.87798526  0.73963538  1
  H+  H214  1  0.34662447  0.43421729  0.76072680  1
  H+  H215  1  0.40086765  0.35894021  0.17175558  1
  H+  H216  1  0.64533916  0.36054892  0.17055126  1
  H+  H217  1  0.57730029  1.00161647  0.67915939  1
  H+  H218  1  0.36711076  0.23241690  0.66757249  1
  H+  H219  1  0.95757583  0.07773009  0.70878444  1
  H+  H220  1  0.38911811  0.02592850  0.50223361  1
  H+  H221  1  0.48555742  0.61838402  0.99368768  1
  H+  H222  1  0.86704601  0.73566249  0.16307948  1
  H+  H223  1  1.00738981  0.36790021  0.67041090  1
  H+  H224  1  0.61019609  0.86697366  0.68836921  1
  H+  H225  1  1.03025286  0.39141598  0.83106408  1
  H+  H226  1  0.13747497  0.60288751  0.51546954  1
  H+  H227  1  0.03320305  0.89859716  0.01727518  1
  H+  H228  1  0.14134084  0.52836469  0.32786134  1
  H+  H229  1  0.60388299  0.47531101  0.49846110  1
  H+  H230  1  0.25907711  0.41642192  0.85274820  1
  H+  H231  1  0.97373680  0.61518034  0.64742531  1
  H+  H232  1  0.48237360  0.89939460  0.67300529  1
  H+  H233  1  0.14066901  0.78048814  0.83633201  1
  H+  H234  1  0.84958887  0.95585812  0.69148381  1
  H+  H235  1  0.47106253  0.36879458  0.66023273  1
  H+  H236  1  0.38688375  0.51329923  0.32552760  1
  H+  H237  1  0.72905834  0.86266138  0.50426431  1
  H+  H238  1  0.89181120  0.78299521  1.00165221  1
  H+  H239  1  0.88024113  0.28451474  0.33621128  1
  H+  H240  1  0.39532265  0.76909494  0.65282724  1
  H+  H241  1  0.61523450  0.97647057  0.49735488  1
  H+  H242  1  0.01990947  0.13966838  0.00647682  1
  H+  H243  1  0.13166612  0.26650917  0.32981873  1
  H+  H244  1  0.13579278  0.37141698  0.64950652  1
  H+  H245  1  0.62826914  0.01815832  0.83358427  1
  H+  H246  1  0.11003865  0.65662020  1.00118838  1
  H+  H247  1  0.63224752  0.00883438  0.98568813  1
  H+  H248  1  0.12809793  0.89537232  0.82717955  1
  H+  H249  1  0.63484055  0.61610436  0.32031591  1
  H+  H250  1  0.97202551  0.60664709  0.17326759  1
  H+  H251  1  0.62051092  0.10738474  0.51434624  1
  H+  H252  1  0.72480257  0.86217835  1.00495193  1
  H+  H253  1  0.22516386  0.12103759  0.32875482  1
  H+  H254  1  0.26861959  0.89036722  0.16276329  1
  H+  H255  1  0.36491991  0.12811678  0.81346543  1
  H+  H256  1  0.89501045  0.12455480  0.83974146  1
  H+  H257  1  0.76812392  0.87951452  0.16288806  1
  H+  H258  1  0.20672248  0.09185952  0.17103404  1
  H+  H259  1  0.57606245  0.86819283  0.78413980  1
  H+  H260  1  0.03283216  0.64600148  0.36181701  1
  H+  H261  1  0.14980493  0.88321526  0.50269227  1
  H+  H262  1  0.52611294  0.14089452  0.78145029  1
  H+  H263  1  0.36971884  0.89867959  0.49034070  1
  H+  H264  1  0.13016193  0.51153518  0.51437837  1
  H+  H265  1  0.22917973  0.36820447  0.49428437  1
  H+  H266  1  0.36985924  0.41145256  0.66831983  1
  H+  H267  1  0.15940853  0.37058869  1.00067899  1
  H+  H268  1  0.13701958  0.87375097  0.99387881  1
  H+  H269  1  0.60424642  0.47111576  0.67300602  1
  H+  H270  1  0.73926350  0.11204466  0.32596498  1
  H+  H271  1  0.22732519  0.13182131  0.96744162  1
  H+  H272  1  0.62863968  0.47050080  0.16276560  1
  H+  H273  1  0.17659773  0.46373197  -0.07348431  1
  H+  H274  1  0.61823267  0.88817086  0.49505196  1
  H+  H275  1  0.37172020  0.38657656  0.49057916  1
  H+  H276  1  0.64048848  0.27886386  0.81060930  1
  H+  H277  1  0.87525504  0.77767952  0.50645522  1
  H+  H278  1  0.73924149  0.13254336  1.00124971  1
  H+  H279  1  0.13613535  0.12549697  0.97153524  1
  H+  H280  1  0.63625427  0.12498438  0.66825852  1
  H+  H281  1  0.85953177  0.97438018  0.34027455  1
  H+  H282  1  0.56860790  0.82626797  0.68235035  1
  H+  H283  1  0.66562866  0.32257636  0.25734176  1
  H+  H284  1  0.42661730  0.60767232  0.17765891  1
  H+  H285  1  0.12659362  0.41113588  0.82896871  1
  H+  H286  1  0.27290700  0.37760612  0.33685886  1
  H+  H287  1  0.37551045  0.39349318  0.00570065  1
  H+  H288  1  0.66370619  0.58043815  0.93423363  1
  H+  H289  1  0.66245011  0.06888382  0.92441465  1
  H+  H290  1  0.84084917  0.92499585  0.44028510  1
  H+  H291  1  0.59006330  0.65752155  0.06809171  1
  H+  H292  1  0.16702584  0.32292045  0.26911670  1
  H+  H293  1  0.66444085  0.08329507  0.23196321  1
  H+  H294  1  0.40523542  0.01521339  0.96550718  1
  H+  H295  1  0.41807640  0.09440132  0.23122153  1
  H+  H296  1  0.65198104  0.08324128  0.60763973  1
  H+  H297  1  0.68157224  0.58247286  0.23757223  1
  H+  H298  1  0.41864237  0.08625296  0.56202899  1
  H+  H299  1  0.50920349  0.64621652  0.68141236  1
  H+  H300  1  0.32729587  0.90466288  0.72389032  1
  H+  H301  1  0.08154379  0.42885486  0.06949954  1
  H+  H302  1  0.66210638  0.82425090  0.24295115  1
  H+  H303  1  0.32625991  0.67320592  0.05889556  1
  H+  H304  1  0.29146787  0.63226889  0.66031184  1
  H+  H305  1  0.87236511  0.26039103  1.00296693  1
  H+  H306  1  0.63140672  0.76539216  0.84738070  1
  H+  H307  1  0.33235640  0.92070596  0.39832757  1
  H+  H308  1  0.07218756  0.16194204  0.40072868  1
  H+  H309  1  0.39936192  0.61709755  0.60670276  1
  H+  H310  1  0.41238749  0.34138469  0.60070319  1
  H+  H311  1  0.35996078  0.87888443  0.82086597  1
  H+  H312  1  0.58768759  0.42463262  0.40985297  1
  H+  H313  1  0.68570390  0.31625738  0.91934124  1
  H+  H314  1  0.86127446  0.63798720  1.01168014  1
  H+  H315  1  0.38688679  0.60404613  0.32174140  1
  H+  H316  1  0.27384983  0.12877641  0.81320129  1
  H+  H317  1  0.41962731  0.33330720  0.93532625  1
  H+  H318  1  0.36662435  0.50041398  0.67336495  1
  H+  H319  1  0.35455085  0.67608583  0.42228778  1
  H+  H320  1  0.12829287  -0.01333285  0.66973261  1
  H+  H321  1  0.57378454  0.66350185  0.43337189  1
  H+  H322  1  0.91056819  0.58199064  0.93686214  1
  H+  H323  1  0.08769830  0.91553657  0.07628376  1
  H+  H324  1  0.41868245  0.83584843  0.55696616  1
  H+  H325  1  0.83584058  0.41372684  0.09812819  1
  H+  H326  1  0.28270135  0.66877254  0.81956977  1
  H+  H327  1  0.59060245  0.91660716  0.40001656  1
  H+  H328  1  0.07759849  0.67224721  0.10275723  1
  H+  H329  1  0.81338271  0.40569497  0.43893325  1
  H+  H330  1  0.83138808  0.66905081  0.09979725  1
  H+  H331  1  0.82350247  0.69290098  0.41049734  1
  H+  H332  1  0.09899677  0.92612166  0.72819491  1
  H+  H333  1  0.42503889  0.82796800  0.26238765  1
  H+  H334  1  0.90485894  0.32955337  0.56343181  1
  H+  H335  1  0.91471226  0.58749178  0.55018578  1
  H+  H336  1  0.17775233  0.85048965  0.56127868  1
  H+  H337  1  0.82984414  0.43149991  0.71594372  1
  H+  H338  1  0.17391279  0.34805196  0.55508351  1
  H+  H339  1  0.81121973  0.65325251  0.71836457  1
  H+  H340  1  0.07989358  0.91665601  0.43271628  1
  H+  H341  1  0.66608562  0.82440589  0.94642182  1
  H+  H342  1  0.65498380  0.32823604  0.57173397  1
  H+  H343  1  0.93440085  0.06554478  0.63754549  1
  H+  H344  1  0.33536217  0.17196541  0.43336016  1
  H+  H345  1  0.43381825  0.33779227  0.23249451  1
  H+  H346  1  0.07883812  0.41309415  0.39282233  1
  H+  H347  1  0.47609067  0.36267951  0.50643482  1
  H+  H348  1  0.41419852  0.59539436  0.90182613  1
  H+  H349  1  0.58499657  0.41312614  0.06548983  1
  H+  H350  1  0.19916919  0.36964353  0.90988814  1
  H+  H351  1  0.15662505  0.17272246  0.66802876  1
  H+  H352  1  0.43533419  0.57133238  0.24158174  1
  H+  H353  1  0.82749666  0.17697533  0.41012375  1
  H+  H354  1  0.60655216  0.98666869  0.15996560  1
  H+  H355  1  0.44151453  0.08185615  0.86892094  1
  H+  H356  1  0.17036234  0.83798436  0.89808661  1
  H+  H357  1  0.86457480  0.88858211  0.34359991  1
  H+  H358  1  0.11535935  0.23103037  0.49195447  1
  H+  H359  1  0.37331376  0.48218059  0.00705879  1
  H+  H360  1  0.93322959  0.84872430  0.94608106  1
  H+  H361  1  0.91408541  0.07510316  0.22599786  1
  H+  H362  1  0.07511658  0.15103243  0.74179088  1
  H+  H363  1  0.04362749  0.42532809  0.08661914  1
  H+  H364  1  0.01348316  0.37682028  0.48656327  1
  H+  H365  1  0.08065669  0.16369553  0.09920490  1
  H+  H366  1  0.90583478  0.82070148  0.59977821  1
  H+  H367  1  0.16588024  0.83484325  0.23598992  1
  H+  H368  1  0.33905984  0.16893869  0.72468435  1
  H+  H369  1  0.56582663  0.91126924  0.06005487  1
  H+  H370  1  0.64514004  0.57222475  0.56747879  1
  H+  H371  1  0.57354913  0.40992228  0.73234212  1
  H+  H372  1  0.06945526  0.40056377  0.72852916  1
  H+  H373  1  0.16995137  0.59339772  0.27152767  1
  H+  H374  1  0.17291358  0.61462148  0.87740100  1
  H+  H375  1  0.93450198  0.31076513  0.91263556  1
  H+  H376  1  0.67587288  0.80058450  0.59327748  1
  H+  H377  1  0.90955145  0.33870004  0.23876928  1
  H+  H378  1  0.38605011  0.02104063  0.34736352  1
  H+  H379  1  0.53411016  0.93656724  0.74176137  1
  H+  H380  1  0.10283411  0.67113276  0.44576572  1
  H+  H381  1  0.76189315  0.38719181  0.34187774  1
  H+  H382  1  0.17276561  0.08921372  0.59409363  1
  H+  H383  1  0.33852901  0.41338327  0.10219347  1
  O2-  O384  1  0.07830801  0.16134861  0.14491240  1
  O2-  O385  1  0.08531758  0.16968162  0.47817588  1
  O2-  O386  1  0.03129227  0.09728961  0.76337107  1
  O2-  O387  1  0.09068733  0.42374719  0.20353769  1
  O2-  O388  1  0.07170918  0.40632973  0.46832622  1
  O2-  O389  1  0.08701218  0.42940149  0.81237877  1
  O2-  O390  1  0.07642914  0.67240075  0.14817187  1
  O2-  O391  1  0.09329364  0.65601862  0.48921786  1
  O2-  O392  1  0.08385812  0.68066041  0.80131705  1
  O2-  O393  1  0.07052978  0.90786992  0.15716145  1
  O2-  O394  1  0.07703308  0.91569556  0.47802810  1
  O2-  O395  1  0.09317085  0.92132766  0.81300412  1
  O2-  O396  1  0.28822792  0.09581431  0.12566228  1
  O2-  O397  1  0.33495993  0.17121723  0.47880595  1
  O2-  O398  1  0.33625598  0.16171680  0.80222313  1
  O2-  O399  1  0.33348651  0.40691236  0.14736875  1
  O2-  O400  1  0.34392377  0.41841928  0.47180964  1
  O2-  O401  1  0.35621639  0.43435928  0.80645042  1
  O2-  O402  1  0.31925521  0.68891528  0.13538368  1
  O2-  O403  1  0.35809786  0.68128641  0.46730391  1
  O2-  O404  1  0.34631463  0.70180469  0.81708324  1
  O2-  O405  1  0.32891990  0.91980964  0.14669568  1
  O2-  O406  1  0.34314282  0.93260825  0.47593364  1
  O2-  O407  1  0.33191483  0.90765095  0.80246601  1
  O2-  O408  1  0.57755379  0.16678653  0.14446028  1
  O2-  O409  1  0.58371750  0.16708186  0.48319581  1
  O2-  O410  1  0.58656637  0.17984999  0.76578321  1
  O2-  O411  1  0.59620059  0.41131048  0.14664081  1
  O2-  O412  1  0.57662061  0.41415334  0.48065144  1
  O2-  O413  1  0.57264891  0.40628676  0.81155364  1
  O2-  O414  1  0.60446291  0.65348755  0.14784150  1
  O2-  O415  1  0.57539679  0.66719900  0.47889400  1
  O2-  O416  1  0.57198115  0.67149452  0.81664413  1
  O2-  O417  1  0.57781579  0.92570101  0.14329725  1
  O2-  O418  1  0.58832011  0.91850349  0.47840677  1
  O2-  O419  1  0.55717212  0.90618598  0.80079806  1
  O2-  O420  1  0.80597798  0.12759772  0.14082035  1
  O2-  O421  1  0.80970697  0.17397212  0.48363945  1
  O2-  O422  1  0.82319731  0.15856655  0.81103434  1
  O2-  O423  1  0.83379945  0.41198373  0.14328135  1
  O2-  O424  1  0.81783128  0.40410126  0.48420003  1
  O2-  O425  1  0.82651466  0.42932318  0.79751211  1
  O2-  O426  1  0.83441652  0.67097983  0.14654784  1
  O2-  O427  1  0.79519902  0.68478176  0.48315609  1
  O2-  O428  1  0.78305472  0.67348382  0.79728551  1
  O2-  O429  1  0.82756482  0.90502965  0.14833976  1
  O2-  O430  1  0.84005581  0.92376385  0.48554300  1
  O2-  O431  1  0.81369947  0.83117133  0.81042090  1
  O2-  O432  1  0.15246656  0.07521832  0.19350364  1
  O2-  O433  1  0.16742867  0.08362564  0.51540308  1
  O2-  O434  1  0.16676408  0.08566630  0.83015162  1
  O2-  O435  1  0.16775700  0.32591713  0.19096588  1
  O2-  O436  1  0.16928319  0.33924524  0.50945431  1
  O2-  O437  1  0.20897410  0.40969983  0.87549606  1
  O2-  O438  1  0.16172228  0.59535779  0.19249327  1
  O2-  O439  1  0.16375942  0.56894648  0.53216932  1
  O2-  O440  1  0.17228854  0.60508729  0.83275658  1
  O2-  O441  1  0.16488583  0.83718338  0.19009712  1
  O2-  O442  1  0.19232532  0.86792822  0.51797352  1
  O2-  O443  1  0.17585626  0.84016803  0.85244040  1
  O2-  O444  1  0.41722015  0.08862288  0.18718008  1
  O2-  O445  1  0.41959838  0.08872798  0.51666021  1
  O2-  O446  1  0.43236264  0.08543356  0.82345783  1
  O2-  O447  1  0.43817632  0.33760225  0.18753603  1
  O2-  O448  1  0.41485896  0.33498438  0.52127605  1
  O2-  O449  1  0.40830656  0.31490501  0.85410158  1
  O2-  O450  1  0.44571418  0.57053390  0.19519969  1
  O2-  O451  1  0.39111472  0.58729072  0.53164083  1
  O2-  O452  1  0.40961248  0.59962729  0.85649225  1
  O2-  O453  1  0.41046955  0.83916440  0.18144572  1
  O2-  O454  1  0.42081102  0.84249901  0.51222489  1
  O2-  O455  1  0.46223300  0.81036257  0.88874971  1
  O2-  O456  1  0.65796313  0.08277110  0.18711203  1
  O2-  O457  1  0.65169717  0.07885222  0.53194369  1
  O2-  O458  1  0.65760172  0.07567552  0.85154029  1
  O2-  O459  1  0.67421574  0.32849624  0.18646125  1
  O2-  O460  1  0.65643440  0.33067390  0.52625016  1
  O2-  O461  1  0.66968312  0.33356228  0.83365457  1
  O2-  O462  1  0.69129309  0.58189115  0.19033594  1
  O2-  O463  1  0.64228845  0.56667882  0.52244291  1
  O2-  O464  1  0.63518940  0.56868843  0.85590567  1
  O2-  O465  1  0.65209719  0.81647342  0.19655928  1
  O2-  O466  1  0.66782784  0.83368175  0.51764053  1
  O2-  O467  1  0.67531172  0.82088647  0.86808816  1
  O2-  O468  1  0.91261316  0.06909924  0.18099680  1
  O2-  O469  1  0.93998607  0.06787146  0.54664949  1
  O2-  O470  1  0.94503939  0.12101285  0.85458738  1
  O2-  O471  1  0.92554814  0.34386981  0.19529042  1
  O2-  O472  1  0.90357689  0.32789246  0.51751920  1
  O2-  O473  1  0.92682469  0.32049646  0.86885725  1
  O2-  O474  1  0.91110654  0.56979673  0.18631431  1
  O2-  O475  1  0.91790512  0.57566703  0.50643265  1
  O2-  O476  1  0.91904833  0.58074914  0.85403156  1
  O2-  O477  1  0.90823164  0.82024808  0.18841112  1
  O2-  O478  1  0.91371746  0.83805776  0.52189320  1
  O2-  O479  1  0.95190942  0.84531569  0.86992570  1
  O2-  O480  1  0.16367361  0.09024081  0.31613292  1
  O2-  O481  1  0.17514728  0.09307318  0.63935469  1
  O2-  O482  1  0.17212719  0.11212700  0.94520707  1
  O2-  O483  1  0.16532868  0.32696774  0.31453783  1
  O2-  O484  1  0.17770905  0.35774666  0.62874306  1
  O2-  O485  1  0.18233531  0.33435909  0.98670131  1
  O2-  O486  1  0.17365441  0.58999056  0.31661887  1
  O2-  O487  1  0.20273594  0.60096109  0.64569292  1
  O2-  O488  1  0.17804392  0.63552679  0.95526659  1
  O2-  O489  1  0.16959527  0.83849421  0.31112087  1
  O2-  O490  1  0.15969007  0.82814701  0.63791061  1
  O2-  O491  1  0.16230850  0.84058101  0.97413858  1
  O2-  O492  1  0.42606781  0.08920336  0.35116359  1
  O2-  O493  1  0.41512162  0.07903358  0.64269691  1
  O2-  O494  1  0.44830837  0.06279157  0.93980629  1
  O2-  O495  1  0.42804725  0.33546315  0.31361822  1
  O2-  O496  1  0.41024356  0.34398986  0.64601437  1
  O2-  O497  1  0.42046430  0.34114688  0.97998239  1
  O2-  O498  1  0.41959026  0.57349908  0.30933886  1
  O2-  O499  1  0.39867595  0.61496016  0.65260658  1
  O2-  O500  1  0.42532315  0.58912992  0.97748340  1
  O2-  O501  1  0.42871979  0.81407969  0.30526962  1
  O2-  O502  1  0.41358877  0.82947433  0.63945998  1
  O2-  O503  1  0.43193261  0.84931980  0.93383731  1
  O2-  O504  1  0.67921894  0.08089144  0.31288695  1
  O2-  O505  1  0.65348709  0.08316152  0.65360979  1
  O2-  O506  1  0.66891306  0.06796091  0.96999099  1
  O2-  O507  1  0.65291938  0.31627270  0.30334328  1
  O2-  O508  1  0.65823682  0.32963199  0.65006497  1
  O2-  O509  1  0.70164633  0.30569080  0.95987284  1
  O2-  O510  1  0.65800827  0.58146712  0.30175042  1
  O2-  O511  1  0.64723096  0.56869843  0.64665232  1
  O2-  O512  1  0.67367604  0.58564053  0.97900744  1
  O2-  O513  1  0.67031783  0.83116006  0.31350428  1
  O2-  O514  1  0.68386251  0.77649651  0.63157627  1
  O2-  O515  1  0.66338491  0.82701474  0.99154943  1
  O2-  O516  1  0.91103867  0.07759701  0.30593481  1
  O2-  O517  1  0.91054358  0.06463400  0.67797092  1
  O2-  O518  1  0.91218435  0.08205190  0.98184878  1
  O2-  O519  1  0.90812616  0.34408778  0.32064244  1
  O2-  O520  1  0.90071291  0.32608470  0.63809972  1
  O2-  O521  1  0.92584562  0.31615712  0.98946973  1
  O2-  O522  1  0.92370066  0.59846710  0.38205961  1
  O2-  O523  1  0.91318555  0.58372923  0.63189187  1
  O2-  O524  1  0.90894128  0.58243394  0.98185103  1
  O2-  O525  1  0.92122914  0.84463185  0.31891999  1
  O2-  O526  1  0.89636254  0.80750713  0.64390440  1
  O2-  O527  1  0.92100619  0.84470351  0.99061288  1
  O2-  O528  1  0.07957522  0.16570674  0.02230608  1
  O2-  O529  1  0.06991678  0.16137193  0.35513983  1
  O2-  O530  1  0.14882111  0.21381699  0.69376198  1
  O2-  O531  1  0.14657536  0.47205780  -0.03829315  1
  O2-  O532  1  0.08063794  0.41293447  0.34684126  1
  O2-  O533  1  0.06381307  0.38055609  0.68633585  1
  O2-  O534  1  0.07529203  0.67629786  0.02398347  1
  O2-  O535  1  0.09675923  0.68043265  0.36077459  1
  O2-  O536  1  0.08031491  0.66313483  0.67403524  1
  O2-  O537  1  0.09269632  0.92119076  0.03148776  1
  O2-  O538  1  0.08738681  0.92071668  0.35369154  1
  O2-  O539  1  0.10437083  0.92654373  0.68363239  1
  O2-  O540  1  0.32265268  0.16939429  0.00671043  1
  O2-  O541  1  0.33287387  0.17238676  0.35414099  1
  O2-  O542  1  0.34165056  0.17089755  0.67912089  1
  O2-  O543  1  0.34386755  0.42226377  0.02299804  1
  O2-  O544  1  0.33484466  0.40957607  0.34892130  1
  O2-  O545  1  0.33975020  0.44010171  0.68703789  1
  O2-  O546  1  0.31998261  0.64720831  0.01768591  1
  O2-  O547  1  0.34443536  0.65755613  0.34447172  1
  O2-  O548  1  0.35883128  0.66513678  0.67332789  1
  O2-  O549  1  0.33362668  0.93018259  0.01394007  1
  O2-  O550  1  0.33522494  0.92885649  0.35324193  1
  O2-  O551  1  0.32765615  0.90459021  0.67849523  1
  O2-  O552  1  0.55361809  0.19939754  0.02526019  1
  O2-  O553  1  0.59780088  0.15961984  0.35805598  1
  O2-  O554  1  0.58016700  0.17378340  0.69898134  1
  O2-  O555  1  0.57939701  0.41263117  0.02057476  1
  O2-  O556  1  0.59123318  0.42718070  0.36322116  1
  O2-  O557  1  0.57424179  0.40916532  0.68698916  1
  O2-  O558  1  0.58702284  0.66179747  0.02322717  1
  O2-  O559  1  0.58209718  0.66523206  0.35598105  1
  O2-  O560  1  0.56598160  0.65816999  0.69604392  1
  O2-  O561  1  0.56725890  0.90412710  0.01552363  1
  O2-  O562  1  0.59303520  0.91454002  0.35458020  1
  O2-  O563  1  0.52240308  0.95382593  0.70001854  1
  O2-  O564  1  0.78866914  0.18324530  0.02821833  1
  O2-  O565  1  0.85299777  0.18266494  0.36811905  1
  O2-  O566  1  0.82941366  0.16114916  0.68672608  1
  O2-  O567  1  0.84244972  0.41599550  0.01641679  1
  O2-  O568  1  0.81798744  0.41711466  0.36230723  1
  O2-  O569  1  0.82853613  0.42315207  0.67139137  1
  O2-  O570  1  0.83262002  0.66949008  0.02772995  1
  O2-  O571  1  0.84478447  0.69694725  0.36765918  1
  O2-  O572  1  0.81451876  0.64940825  0.67394030  1
  O2-  O573  1  0.83064045  0.91979427  0.02458285  1
  O2-  O574  1  0.83082899  0.91610509  0.35857131  1
  O2-  O575  1  0.81981911  0.89225765  0.69618332  1
