# generated using pymatgen
data_H2O
_symmetry_space_group_name_H-M   'P 1'
_cell_length_a   18.00689611
_cell_length_b   18.00057312
_cell_length_c   22.02080602
_cell_angle_alpha   89.99419291
_cell_angle_beta   90.01557402
_cell_angle_gamma   119.99850868
_symmetry_Int_Tables_number   1
_chemical_formula_structural   H2O
_chemical_formula_sum   'H384 O192'
_cell_volume   6181.52378577
_cell_formula_units_Z   192
loop_
 _symmetry_equiv_pos_site_id
 _symmetry_equiv_pos_as_xyz
  1  'x, y, z'
loop_
 _atom_type_symbol
 _atom_type_oxidation_number
  H+  1.0
  O2-  -2.0
loop_
 _atom_site_type_symbol
 _atom_site_label
 _atom_site_symmetry_multiplicity
 _atom_site_fract_x
 _atom_site_fract_y
 _atom_site_fract_z
 _atom_site_occupancy
  H+  H0  1  0.60935072  0.21650106  0.82077600  1
  H+  H1  1  0.64745549  0.11954382  0.17288202  1
  H+  H2  1  0.37914283  0.38681454  0.48737915  1
  H+  H3  1  0.48504170  0.36394741  0.50842884  1
  H+  H4  1  0.52894452  0.63595573  0.49266611  1
  H+  H5  1  0.18389955  0.60072954  0.98989586  1
  H+  H6  1  0.22496213  0.38798726  0.20094911  1
  H+  H7  1  0.14018877  0.78451117  0.99644589  1
  H+  H8  1  0.76981933  0.63918670  0.33151862  1
  H+  H9  1  0.59212369  0.69280547  0.60584488  1
  H+  H10  1  0.32498467  0.87991546  0.49528207  1
  H+  H11  1  0.91508911  0.94378344  0.46619787  1
  H+  H12  1  0.27168385  0.36086879  0.12941522  1
  H+  H13  1  0.13543036  1.02905187  -0.00627726  1
  H+  H14  1  0.63363616  0.39457404  0.50497370  1
  H+  H15  1  0.64390960  0.03508727  0.97880792  1
  H+  H16  1  0.85195134  0.74038162  0.17131043  1
  H+  H17  1  0.28272298  0.15327835  0.82859800  1
  H+  H18  1  0.89068738  0.39654657  1.01343132  1
  H+  H19  1  1.04116875  0.63350190  0.17375994  1
  H+  H20  1  0.02099314  0.13825447  0.83514025  1
  H+  H21  1  0.39059410  0.52717888  0.49648127  1
  H+  H22  1  0.11755388  -0.03280672  0.67087527  1
  H+  H23  1  0.85332869  0.93397146  0.41215168  1
  H+  H24  1  0.32416058  0.91475079  0.40443192  1
  H+  H25  1  0.40005903  0.08459218  1.05538246  1
  H+  H26  1  0.81324900  0.39122877  0.34811608  1
  H+  H27  1  0.61214800  0.13226360  -0.00128963  1
  H+  H28  1  0.61439773  0.76661418  0.68774610  1
  H+  H29  1  0.86723105  0.37494311  0.68252666  1
  H+  H30  1  0.13326534  0.09414696  0.66379573  1
  H+  H31  1  0.59306825  0.92047672  0.42920039  1
  H+  H32  1  0.87025886  0.98203542  0.32212410  1
  H+  H33  1  0.02084317  0.66302266  0.00552401  1
  H+  H34  1  0.82398165  0.15543699  0.08988742  1
  H+  H35  1  0.61294413  0.74026753  0.99937344  1
  H+  H36  1  0.35537492  0.22309347  0.67016706  1
  H+  H37  1  0.22711043  0.85890554  0.17255796  1
  H+  H38  1  0.53001196  0.13717175  0.50014601  1
  H+  H39  1  -0.02036998  0.12869661  0.49879662  1
  H+  H40  1  0.87830941  0.02041606  0.67279115  1
  H+  H41  1  0.46268340  0.82750551  0.84866980  1
  H+  H42  1  0.01260875  0.11084770  0.68316653  1
  H+  H43  1  0.72973159  0.34200721  0.68003535  1
  H+  H44  1  0.26509403  0.12762347  0.34249487  1
  H+  H45  1  0.23248868  0.60854839  0.18947295  1
  H+  H46  1  0.59513216  0.74251322  0.77710932  1
  H+  H47  1  0.98763010  0.13079308  0.16589538  1
  H+  H48  1  0.97899282  0.35556655  1.00457999  1
  H+  H49  1  0.62294131  0.00729263  0.51273491  1
  H+  H50  1  0.40050066  0.16045729  0.84611449  1
  H+  H51  1  0.37495846  0.88942482  0.83407633  1
  H+  H52  1  0.12529825  0.15745841  0.01321165  1
  H+  H53  1  0.11259177  0.97040446  0.15224914  1
  H+  H54  1  0.62455088  0.02344716  0.29917004  1
  H+  H55  1  0.00614560  0.62578037  0.66423977  1
  H+  H56  1  0.11301833  0.87784563  0.33743784  1
  H+  H57  1  0.83613467  0.64739889  0.18246983  1
  H+  H58  1  0.79181723  0.91002179  0.83836218  1
  H+  H59  1  0.14658738  0.77439277  0.66156212  1
  H+  H60  1  0.60847802  0.97602666  0.68462543  1
  H+  H61  1  0.38587804  0.02325082  0.66855314  1
  H+  H62  1  0.87542727  0.71391580  0.48648340  1
  H+  H63  1  0.47641116  0.36179952  -0.00248888  1
  H+  H64  1  0.89130291  0.52751376  0.31914759  1
  H+  H65  1  0.48639885  0.37412017  0.81876099  1
  H+  H66  1  0.36035216  -0.03103989  0.16020054  1
  H+  H67  1  0.71551065  0.06958159  0.53322537  1
  H+  H68  1  0.90628854  0.83961929  0.50648901  1
  H+  H69  1  0.08626893  0.91720955  0.06684705  1
  H+  H70  1  0.13951598  0.36895765  -0.00771551  1
  H+  H71  1  0.88906950  0.10957160  0.99098776  1
  H+  H72  1  0.28193126  0.14512796  0.49448717  1
  H+  H73  1  0.36804592  0.64625516  0.66943698  1
  H+  H74  1  0.77955190  0.89119628  0.32569755  1
  H+  H75  1  0.34131919  0.41500274  0.39110310  1
  H+  H76  1  -0.01935491  0.85894219  0.33060828  1
  H+  H77  1  0.44617686  0.88910993  0.51845374  1
  H+  H78  1  0.39265394  0.78213787  0.66647867  1
  H+  H79  1  0.36257140  0.64494527  0.34785597  1
  H+  H80  1  0.58025347  0.93678481  0.05731801  1
  H+  H81  1  0.26787945  0.62074610  0.81920342  1
  H+  H82  1  0.04792155  0.86587209  0.49593149  1
  H+  H83  1  0.64742853  0.80838762  0.84977928  1
  H+  H84  1  0.11333892  0.47437563  0.16866955  1
  H+  H85  1  0.88912823  1.02193296  -0.01026879  1
  H+  H86  1  0.63830893  0.87771617  -0.00134717  1
  H+  H87  1  0.11973510  0.88809481  0.82771364  1
  H+  H88  1  0.27661808  0.13332502  0.13625397  1
  H+  H89  1  1.02286276  0.38332611  0.16905979  1
  H+  H90  1  0.60702423  0.21777314  0.68512875  1
  H+  H91  1  0.89493804  0.61704186  0.49510366  1
  H+  H92  1  0.74589316  0.85931487  0.47659989  1
  H+  H93  1  0.13996458  0.53703071  0.50377986  1
  H+  H94  1  0.91265155  0.03758756  0.84229180  1
  H+  H95  1  0.85287140  0.61925451  0.67263925  1
  H+  H96  1  0.22589481  0.61097144  0.33728429  1
  H+  H97  1  0.89078859  0.77578895  0.83701652  1
  H+  H98  1  -0.01665987  0.37446337  0.51498631  1
  H+  H99  1  0.15100167  0.87851648  -0.00287273  1
  H+  H100  1  0.47553712  0.35597675  0.16701111  1
  H+  H101  1  0.11676179  0.75244413  0.48188335  1
  H+  H102  1  0.60490642  0.64605292  0.00317732  1
  H+  H103  1  0.86250760  0.13299270  0.15374452  1
  H+  H104  1  0.38452951  0.46708812  0.83002392  1
  H+  H105  1  0.63887994  0.52165802  0.52181708  1
  H+  H106  1  0.00180805  0.62277540  0.82348330  1
  H+  H107  1  0.09106711  0.90118889  0.40249259  1
  H+  H108  1  0.07593809  0.71671187  0.81033239  1
  H+  H109  1  0.65860202  0.90210106  0.84992980  1
  H+  H110  1  0.73415246  0.61898358  0.66625896  1
  H+  H111  1  0.26979812  0.38658917  0.33938209  1
  H+  H112  1  0.92496179  0.83574731  0.23685613  1
  H+  H113  1  0.42982203  0.79588686  0.00498124  1
  H+  H114  1  0.85989626  0.63182836  0.82648502  1
  H+  H115  1  0.36613760  0.22099252  0.14459800  1
  H+  H116  1  0.86435865  0.22556321  0.01022185  1
  H+  H117  1  0.40307011  0.83802504  0.57839274  1
  H+  H118  1  0.55763528  0.38411052  0.65973266  1
  H+  H119  1  0.39154391  0.27548659  0.50198823  1
  H+  H120  1  0.22874689  0.37457324  -0.02087849  1
  H+  H121  1  0.89804384  0.76271071  0.65266295  1
  H+  H122  1  0.59996715  0.45395250  0.01894658  1
  H+  H123  1  0.13165825  0.73378945  0.17442103  1
  H+  H124  1  0.14849664  0.63057949  0.50334209  1
  H+  H125  1  0.69178414  1.07448646  0.82917096  1
  H+  H126  1  1.02322376  0.13520343  0.34067215  1
  H+  H127  1  0.89981919  0.53586157  0.99820234  1
  H+  H128  1  0.09609523  0.30640037  0.66746740  1
  H+  H129  1  0.52029682  0.89970442  0.16004691  1
  H+  H130  1  0.36950671  0.87645018  0.00859169  1
  H+  H131  1  0.62018115  0.52009996  0.31719179  1
  H+  H132  1  0.89371007  0.35449938  0.17828763  1
  H+  H133  1  0.64109465  0.77892313  0.32094527  1
  H+  H134  1  0.88976064  1.04513950  0.48789331  1
  H+  H135  1  0.27182755  0.13087843  0.67533535  1
  H+  H136  1  0.39016753  0.37791695  -0.01414785  1
  H+  H137  1  0.51648412  0.11982249  0.01095590  1
  H+  H138  1  0.62129073  0.77876981  0.16319810  1
  H+  H139  1  0.62229260  0.14723136  0.49696704  1
  H+  H140  1  0.47630625  0.10734899  0.17208419  1
  H+  H141  1  0.70905187  0.61280281  0.17303104  1
  H+  H142  1  0.76963270  0.11140060  0.33847799  1
  H+  H143  1  0.14945144  0.01517478  0.50721489  1
  H+  H144  1  0.80104313  0.71401610  0.02384180  1
  H+  H145  1  0.11962883  0.23349637  0.17043466  1
  H+  H146  1  0.61685390  0.67798175  0.81086786  1
  H+  H147  1  0.46380098  0.62712915  0.99380964  1
  H+  H148  1  0.47813337  0.62143261  0.84249549  1
  H+  H149  1  0.61391898  0.22358132  0.15869225  1
  H+  H150  1  0.37478222  0.77630338  0.33501543  1
  H+  H151  1  0.35940459  0.14462090  -0.00911358  1
  H+  H152  1  0.69132626  0.33220950  0.97661674  1
  H+  H153  1  0.62175415  0.54153024  0.81316550  1
  H+  H154  1  0.86929025  0.60376648  0.31168545  1
  H+  H155  1  0.59264211  0.36118483  1.00828140  1
  H+  H156  1  0.91645030  0.59788625  0.15598186  1
  H+  H157  1  0.76975305  0.13504113  0.68763253  1
  H+  H158  1  0.65755255  0.85903049  0.47873383  1
  H+  H159  1  0.56309533  0.96375657  0.84099176  1
  H+  H160  1  0.10845646  0.12929520  0.34549819  1
  H+  H161  1  0.19918034  0.34255669  0.66212584  1
  H+  H162  1  0.38584866  0.11318142  0.66489428  1
  H+  H163  1  0.33034219  0.46524509  0.66221113  1
  H+  H164  1  0.97770098  0.35837715  0.66917370  1
  H+  H165  1  0.46048343  0.59918326  0.65030399  1
  H+  H166  1  0.79172414  0.16477581  0.47673291  1
  H+  H167  1  0.16783345  0.83130190  0.23340757  1
  H+  H168  1  0.32313528  0.72510754  -0.02368210  1
  H+  H169  1  0.87532468  0.51133356  0.84237453  1
  H+  H170  1  0.13824979  0.09851829  0.50712933  1
  H+  H171  1  0.30563551  0.91789614  0.83711589  1
  H+  H172  1  0.86995462  0.89019039  0.17336107  1
  H+  H173  1  0.11333464  0.88123319  0.16161759  1
  H+  H174  1  0.89030501  0.11208414  0.31949092  1
  H+  H175  1  0.12793343  0.00695334  0.33753990  1
  H+  H176  1  0.41250326  0.81724990  0.91189285  1
  H+  H177  1  0.02759526  0.38073419  0.34713917  1
  H+  H178  1  0.90528701  0.35970915  0.33404911  1
  H+  H179  1  0.75506826  0.88630516  0.69853552  1
  H+  H180  1  0.91963209  0.32828696  0.60874979  1
  H+  H181  1  0.35393527  0.70774960  0.83332694  1
  H+  H182  1  0.38277204  0.86224428  0.17928103  1
  H+  H183  1  0.53250373  0.86022002  0.48187387  1
  H+  H184  1  0.85756396  0.37761141  0.83995342  1
  H+  H185  1  0.38092885  0.27587517  0.98477513  1
  H+  H186  1  0.62480507  0.72101196  0.48240766  1
  H+  H187  1  0.73512348  0.37096016  0.50369207  1
  H+  H188  1  0.22350721  0.39653829  0.54012382  1
  H+  H189  1  0.87363214  0.89691487  0.83215285  1
  H+  H190  1  0.36381554  0.87766318  0.34100117  1
  H+  H191  1  0.60602686  0.89610799  0.15381413  1
  H+  H192  1  0.37788617  0.49885056  0.16909617  1
  H+  H193  1  0.70656670  0.59308307  1.01663860  1
  H+  H194  1  0.62166473  0.27479237  0.33177711  1
  H+  H195  1  0.62853439  0.50803531  0.17170506  1
  H+  H196  1  0.76750432  0.37557996  0.83114378  1
  H+  H197  1  0.77426789  0.13822019  1.00240501  1
  H+  H198  1  0.39032983  0.61686655  0.50073136  1
  H+  H199  1  0.11271584  0.39662352  0.50241886  1
  H+  H200  1  0.64894063  0.35424447  0.68260890  1
  H+  H201  1  0.89240798  0.11363580  0.68180552  1
  H+  H202  1  0.51045973  0.12817494  0.67857765  1
  H+  H203  1  0.09653604  0.46672557  0.01737301  1
  H+  H204  1  0.62887530  0.10679804  0.67158426  1
  H+  H205  1  0.28613031  0.37289945  0.47865456  1
  H+  H206  1  0.36409070  0.73238092  0.50133806  1
  H+  H207  1  1.07128016  0.42640842  0.78159929  1
  H+  H208  1  0.63125465  0.61291493  0.51572220  1
  H+  H209  1  0.36334165  0.37133534  0.14331049  1
  H+  H210  1  0.33420009  0.67590830  0.40707693  1
  H+  H211  1  0.12850500  0.41788048  0.70403797  1
  H+  H212  1  0.15552712  0.08092711  0.09069786  1
  H+  H213  1  1.02949321  0.88618311  0.82562808  1
  H+  H214  1  0.76953315  0.88438233  1.01060110  1
  H+  H215  1  0.13724977  0.51953163  0.33738770  1
  H+  H216  1  0.10496029  0.19376854  0.67634545  1
  H+  H217  1  0.81443295  0.16463134  0.78457983  1
  H+  H218  1  0.80964525  0.40828022  0.01803336  1
  H+  H219  1  0.13567630  0.76846135  0.32265125  1
  H+  H220  1  0.38176865  0.59836344  0.83984465  1
  H+  H221  1  0.10408831  0.48522099  0.67784483  1
  H+  H222  1  1.03463606  0.89960235  1.00466951  1
  H+  H223  1  0.27874265  0.88855571  0.68284597  1
  H+  H224  1  0.88966470  0.26387413  0.32577207  1
  H+  H225  1  0.61366017  0.15575745  0.34730529  1
  H+  H226  1  0.10477246  0.47810691  0.84289399  1
  H+  H227  1  0.18851340  0.80306635  0.85176411  1
  H+  H228  1  0.37046530  0.62891084  0.17836750  1
  H+  H229  1  0.52399413  0.90462407  -0.00351162  1
  H+  H230  1  0.87374450  0.39221740  0.50121452  1
  H+  H231  1  0.51004267  0.65543896  0.14336275  1
  H+  H232  1  0.13176423  0.37047244  0.18289488  1
  H+  H233  1  0.44135418  0.37541104  0.65978061  1
  H+  H234  1  0.64228375  0.53073586  0.66884863  1
  H+  H235  1  0.91397014  0.78996256  0.99395358  1
  H+  H236  1  0.89118562  0.86590200  0.99531077  1
  H+  H237  1  0.68988632  0.10627236  0.92467474  1
  H+  H238  1  0.87759660  0.26827636  0.85453225  1
  H+  H239  1  0.85856562  0.22318871  0.68803553  1
  H+  H240  1  0.87650160  0.61057283  -0.00554241  1
  H+  H241  1  0.61390479  0.64258200  0.65459322  1
  H+  H242  1  0.38816602  0.87078664  0.66877702  1
  H+  H243  1  0.12358145  0.22432385  0.49675054  1
  H+  H244  1  0.61962579  0.34269559  0.82998343  1
  H+  H245  1  0.37357817  0.48855688  0.99392767  1
  H+  H246  1  0.11772560  0.38563492  0.35222080  1
  H+  H247  1  0.71245702  0.86447904  0.16437950  1
  H+  H248  1  0.36453526  0.35355624  0.30983673  1
  H+  H249  1  0.09851736  0.64871454  0.01388587  1
  H+  H250  1  0.34931150  0.21679556  0.33035080  1
  H+  H251  1  0.87256061  0.46376935  0.16926539  1
  H+  H252  1  0.41214073  0.58916071  -0.06715561  1
  H+  H253  1  0.08921158  0.16670562  0.43741353  1
  H+  H254  1  0.11797320  0.60464846  0.65556924  1
  H+  H255  1  0.87074417  0.49754621  0.66757531  1
  H+  H256  1  0.36002482  0.30484548  0.83182758  1
  H+  H257  1  0.11899111  0.23786965  0.81159888  1
  H+  H258  1  0.13528861  0.26826863  0.33776699  1
  H+  H259  1  0.87735134  0.15485942  0.48070161  1
  H+  H260  1  0.83459166  0.92426210  0.74056657  1
  H+  H261  1  0.45109907  0.35239355  0.30434000  1
  H+  H262  1  0.63927115  0.90592018  0.33450508  1
  H+  H263  1  0.35765984  0.97685744  0.33915999  1
  H+  H264  1  0.90109425  0.03873645  0.16681828  1
  H+  H265  1  -0.02162389  0.86031525  0.17345676  1
  H+  H266  1  0.11756116  0.64217048  0.33774910  1
  H+  H267  1  0.38782005  0.10742651  0.16678699  1
  H+  H268  1  0.75997035  0.12339208  0.15761871  1
  H+  H269  1  0.77610247  0.64105959  0.81839216  1
  H+  H270  1  0.58439075  0.37689477  0.32384999  1
  H+  H271  1  0.22323882  0.86023034  0.32418550  1
  H+  H272  1  0.32617737  0.37500595  0.66187368  1
  H+  H273  1  0.38206074  0.52517313  0.33276576  1
  H+  H274  1  0.52227561  0.63932268  0.33972086  1
  H+  H275  1  0.13038369  0.62615138  0.84116663  1
  H+  H276  1  0.98842182  0.85062822  0.65316771  1
  H+  H277  1  0.89722319  0.28527845  0.50681748  1
  H+  H278  1  0.82176914  0.92537065  0.21124113  1
  H+  H279  1  0.83778852  0.40539690  0.74308386  1
  H+  H280  1  0.61000486  0.84899778  0.71162768  1
  H+  H281  1  0.66586409  0.58752226  0.58404357  1
  H+  H282  1  0.39128255  0.02190294  0.50890890  1
  H+  H283  1  0.28001180  0.88016789  0.00946888  1
  H+  H284  1  0.39323203  0.77928365  0.18634171  1
  H+  H285  1  0.61891397  0.38309763  0.16554279  1
  H+  H286  1  0.69500058  0.37456861  0.32641144  1
  H+  H287  1  0.22121356  0.11986655  0.98620053  1
  H+  H288  1  0.40658597  0.33351656  0.59434259  1
  H+  H289  1  0.09954771  0.18940500  0.10384448  1
  H+  H290  1  0.38132417  1.00843569  0.01253433  1
  H+  H291  1  0.84632947  0.41225792  0.10836761  1
  H+  H292  1  0.83784296  0.66380091  0.73121210  1
  H+  H293  1  0.08276868  0.15453239  0.76707950  1
  H+  H294  1  0.37058350  0.09803853  0.32610375  1
  H+  H295  1  0.96950810  0.35749841  0.85212949  1
  H+  H296  1  0.27737380  0.64290072  0.49800352  1
  H+  H297  1  0.58172926  0.40500777  0.10627950  1
  H+  H298  1  0.83312516  0.91559606  0.06719607  1
  H+  H299  1  0.40675494  0.58512946  0.27616821  1
  H+  H300  1  0.57543171  0.68343976  0.08942260  1
  H+  H301  1  0.66268355  0.32773226  0.23071057  1
  H+  H302  1  0.53620797  0.39882994  0.37543937  1
  H+  H303  1  0.58858707  0.66455830  0.39434994  1
  H+  H304  1  0.06257313  0.65323386  0.72385012  1
  H+  H305  1  0.93763080  0.81279578  0.56578196  1
  H+  H306  1  0.42644868  0.07419868  0.57120627  1
  H+  H307  1  0.13633336  0.63724267  0.18095436  1
  H+  H308  1  0.33604786  0.17600137  0.05043743  1
  H+  H309  1  0.34525986  0.92535860  0.74054379  1
  H+  H310  1  0.51113526  0.14363136  0.82835482  1
  H+  H311  1  0.92302661  0.83628347  0.89596641  1
  H+  H312  1  0.40072873  0.32090409  0.21755942  1
  H+  H313  1  0.81725075  0.67140988  0.08080380  1
  H+  H314  1  0.40460886  0.08823223  0.88523805  1
  H+  H315  1  0.83821517  0.16482945  0.38985186  1
  H+  H316  1  0.87792883  0.48312786  0.49661254  1
  H+  H317  1  0.84006324  0.65726391  0.42635071  1
  H+  H318  1  0.14912590  0.32139851  0.57435083  1
  H+  H319  1  0.33533889  0.17588022  0.43287569  1
  H+  H320  1  0.40147107  0.57497448  0.59357608  1
  H+  H321  1  0.46539912  0.55618757  0.20241943  1
  H+  H322  1  0.17017331  0.07333084  0.60319036  1
  H+  H323  1  0.95751222  0.62733398  0.55097127  1
  H+  H324  1  0.59117159  0.18533927  0.40939593  1
  H+  H325  1  0.15767725  0.32959296  0.27966157  1
  H+  H326  1  0.09538726  0.68231353  0.39406155  1
  H+  H327  1  0.13538017  0.25190928  1.01182520  1
  H+  H328  1  0.64348557  0.28365167  0.50618401  1
  H+  H329  1  0.86159805  0.72547700  0.33240206  1
  H+  H330  1  0.56589056  0.15277227  0.75656786  1
  H+  H331  1  0.61965132  0.44681573  0.45115666  1
  H+  H332  1  0.62652544  0.61320863  0.31846465  1
  H+  H333  1  0.08339089  0.42136239  0.44076315  1
  H+  H334  1  0.87697956  0.54016192  0.60334236  1
  H+  H335  1  0.65653168  0.07510664  0.61281733  1
  H+  H336  1  0.15410254  1.02311902  0.83620146  1
  H+  H337  1  0.32599262  0.63836385  -0.02061566  1
  H+  H338  1  0.67763350  0.86150090  0.59332003  1
  H+  H339  1  0.20207032  0.63851633  0.89030221  1
  H+  H340  1  0.63995326  0.02802399  0.16991205  1
  H+  H341  1  0.86540232  0.42824501  0.40821272  1
  H+  H342  1  0.34574978  0.67362342  0.73220111  1
  H+  H343  1  0.51457907  0.89161607  0.68638606  1
  H+  H344  1  0.10538994  0.55599002  0.94613097  1
  H+  H345  1  0.14814621  0.86265945  0.66521365  1
  H+  H346  1  0.64896252  0.57289796  0.23660789  1
  H+  H347  1  0.34164683  0.66047734  0.12186596  1
  H+  H348  1  0.08136449  0.40744914  0.07525982  1
  H+  H349  1  0.15539602  0.57643823  0.60027875  1
  H+  H350  1  0.13845994  0.11772749  0.14897807  1
  H+  H351  1  0.23585284  0.36621663  0.80902801  1
  H+  H352  1  0.15103217  0.37259306  0.81968690  1
  H+  H353  1  0.72971199  0.35891719  0.17457553  1
  H+  H354  1  0.94186692  0.09559740  0.90345307  1
  H+  H355  1  0.33677166  0.18531685  0.76722380  1
  H+  H356  1  0.39958313  0.06568192  0.26752137  1
  H+  H357  1  0.60676401  0.24460079  0.98737511  1
  H+  H358  1  0.63015312  0.83263419  0.58888862  1
  H+  H359  1  0.66241756  0.83421126  0.25962158  1
  H+  H360  1  0.67482270  0.85617868  0.93977960  1
  H+  H361  1  0.91928712  0.57543375  0.22836044  1
  H+  H362  1  0.64770542  0.60400302  0.86747656  1
  H+  H363  1  0.40757065  0.83902467  0.27562208  1
  H+  H364  1  0.48897269  0.29638058  0.79273062  1
  H+  H365  1  0.03933588  0.65506093  0.48180015  1
  H+  H366  1  0.56641871  0.40077817  0.73138882  1
  H+  H367  1  0.65156065  0.55457094  0.95833133  1
  H+  H368  1  0.92833878  0.09438634  0.25893731  1
  H+  H369  1  0.92883598  0.33014403  0.23705985  1
  H+  H370  1  0.91773613  0.33118064  0.94469198  1
  H+  H371  1  0.16950474  0.57808790  0.24797877  1
  H+  H372  1  0.18386274  0.85251643  0.90973629  1
  H+  H373  1  0.64158106  0.31137379  0.89065581  1
  H+  H374  1  0.59169131  0.94721946  0.77596306  1
  H+  H375  1  0.08558170  0.90907181  0.73047325  1
  H+  H376  1  0.89462330  0.86581756  0.32336877  1
  H+  H377  1  0.90820848  0.57822774  0.89853986  1
  H+  H378  1  0.15240951  0.06480444  0.27841168  1
  H+  H379  1  0.24588892  0.89810184  0.48282369  1
  H+  H380  1  0.17239832  0.08260524  0.89437743  1
  H+  H381  1  0.34441375  0.42159394  0.04967196  1
  H+  H382  1  0.33246487  0.90520426  0.10249232  1
  H+  H383  1  0.58586783  0.16215390  0.10055048  1
  O2-  O384  1  0.08963139  0.17685687  0.15028864  1
  O2-  O385  1  0.09014430  0.16462364  0.48285475  1
  O2-  O386  1  0.08818903  0.17263183  0.81151773  1
  O2-  O387  1  0.08575144  0.41452574  0.15344949  1
  O2-  O388  1  0.08371401  0.42711299  0.48626800  1
  O2-  O389  1  0.07422968  0.41944924  0.82641302  1
  O2-  O390  1  0.10500898  0.66844753  0.16391297  1
  O2-  O391  1  0.10069800  0.69120493  0.47114725  1
  O2-  O392  1  0.06204015  0.65716038  0.80626833  1
  O2-  O393  1  0.07917266  0.90712725  0.14583738  1
  O2-  O394  1  0.10648265  0.90151656  0.47760722  1
  O2-  O395  1  0.08898304  0.91522319  0.80911430  1
  O2-  O396  1  0.33918540  0.16222307  0.12629066  1
  O2-  O397  1  0.33940520  0.18471928  0.47747054  1
  O2-  O398  1  0.34140600  0.19751952  0.81194628  1
  O2-  O399  1  0.33300080  0.40297894  0.12842957  1
  O2-  O400  1  0.34611089  0.41395817  0.46938770  1
  O2-  O401  1  0.35862863  0.40961994  0.80992929  1
  O2-  O402  1  0.34195560  0.66141908  0.16620941  1
  O2-  O403  1  0.33901186  0.67369840  0.48378045  1
  O2-  O404  1  0.33030207  0.65050890  0.81278831  1
  O2-  O405  1  0.32872154  0.90698246  0.14825853  1
  O2-  O406  1  0.31052102  0.91826470  0.47257837  1
  O2-  O407  1  0.36178265  0.93348128  0.81921871  1
  O2-  O408  1  0.58387423  0.16225052  0.14572719  1
  O2-  O409  1  0.59079804  0.17593143  0.48378144  1
  O2-  O410  1  0.56781439  0.15546530  0.80810182  1
  O2-  O411  1  0.58696935  0.41332716  0.15141232  1
  O2-  O412  1  0.60315532  0.43114155  0.49343103  1
  O2-  O413  1  0.52767956  0.35782519  0.79970602  1
  O2-  O414  1  0.57138757  0.68302086  0.13491106  1
  O2-  O415  1  0.58956853  0.65577458  0.47994485  1
  O2-  O416  1  0.58454238  0.70833006  0.81590029  1
  O2-  O417  1  0.57791657  0.92916792  0.14037719  1
  O2-  O418  1  0.58821113  0.91097233  0.47463899  1
  O2-  O419  1  0.61114860  0.96493464  0.81971603  1
  O2-  O420  1  0.82258008  0.15277014  0.13720542  1
  O2-  O421  1  0.85128214  0.19123923  0.46363012  1
  O2-  O422  1  0.81289994  0.16411795  0.83060852  1
  O2-  O423  1  0.83521217  0.40509370  0.15288165  1
  O2-  O424  1  0.84647092  0.42316006  0.48125696  1
  O2-  O425  1  0.82951660  0.40841083  0.82094667  1
  O2-  O426  1  0.81316374  0.67718198  0.15865955  1
  O2-  O427  1  0.84193185  0.65365690  0.47114174  1
  O2-  O428  1  0.83800636  0.66879203  0.80916129  1
  O2-  O429  1  0.83644535  0.92116730  0.16909812  1
  O2-  O430  1  0.85985926  0.93934792  0.45779088  1
  O2-  O431  1  0.85034272  0.93497383  0.82100211  1
  O2-  O432  1  0.16472471  0.08245271  0.13473088  1
  O2-  O433  1  0.17321941  0.07430523  0.52313232  1
  O2-  O434  1  0.19489029  0.07946781  0.85435288  1
  O2-  O435  1  0.16505128  0.34271760  0.20127787  1
  O2-  O436  1  0.16867816  0.34486327  0.53183405  1
  O2-  O437  1  0.17434215  0.34001347  0.79917763  1
  O2-  O438  1  0.17121682  0.58159837  0.20148162  1
  O2-  O439  1  0.17459996  0.59700839  0.51919902  1
  O2-  O440  1  0.16112050  0.59874340  0.86032204  1
  O2-  O441  1  0.16573208  0.82663063  0.18722757  1
  O2-  O442  1  0.15151273  0.85558153  0.49878726  1
  O2-  O443  1  0.18836481  0.85510227  0.86344634  1
  O2-  O444  1  0.41438646  0.07521331  0.18394354  1
  O2-  O445  1  0.44090154  0.07115638  0.52825751  1
  O2-  O446  1  0.44043149  0.14505724  0.86776533  1
  O2-  O447  1  0.41197798  0.32445733  0.17230735  1
  O2-  O448  1  0.42367383  0.33766528  0.51918815  1
  O2-  O449  1  0.39521843  0.36598915  0.84559073  1
  O2-  O450  1  0.41132607  0.55378531  0.19232100  1
  O2-  O451  1  0.42126763  0.58595038  0.51366312  1
  O2-  O452  1  0.42015646  0.57798990  0.85688919  1
  O2-  O453  1  0.41885459  0.84004711  0.19831296  1
  O2-  O454  1  0.39600812  0.83649644  0.53218940  1
  O2-  O455  1  0.40548421  0.80910079  0.86432001  1
  O2-  O456  1  0.67775241  0.08817143  0.18521557  1
  O2-  O457  1  0.65955875  0.06572548  0.53058372  1
  O2-  O458  1  0.72214805  0.13425778  0.84548779  1
  O2-  O459  1  0.66720302  0.33032753  0.18558273  1
  O2-  O460  1  0.67473290  0.34570962  0.51754335  1
  O2-  O461  1  0.65343233  0.31753000  0.84608743  1
  O2-  O462  1  0.64962193  0.56983400  0.18771611  1
  O2-  O463  1  0.66161420  0.58351146  0.53676035  1
  O2-  O464  1  0.66036106  0.60120037  0.82472539  1
  O2-  O465  1  0.65393254  0.83889607  0.18087450  1
  O2-  O466  1  0.68325676  0.82222293  0.47372520  1
  O2-  O467  1  0.68340215  0.86777118  0.86619281  1
  O2-  O468  1  0.92530872  0.09925375  0.17955716  1
  O2-  O469  1  0.91675731  0.10452611  0.50346335  1
  O2-  O470  1  0.94715074  0.09815417  0.85755691  1
  O2-  O471  1  0.93152560  0.33246772  0.19192104  1
  O2-  O472  1  0.92229618  0.34060732  0.52953914  1
  O2-  O473  1  0.90982169  0.32951739  0.86895174  1
  O2-  O474  1  0.94150580  0.57503118  0.18433336  1
  O2-  O475  1  0.93205105  0.59326711  0.51445980  1
  O2-  O476  1  0.90577533  0.57418869  0.85332734  1
  O2-  O477  1  0.91876086  0.83479415  0.19090030  1
  O2-  O478  1  0.93942614  0.81254380  0.51786847  1
  O2-  O479  1  0.92223477  0.83659270  0.85096642  1
  O2-  O480  1  0.15512886  0.06860489  0.32258421  1
  O2-  O481  1  0.17105081  0.07192238  0.64845053  1
  O2-  O482  1  0.15828384  0.08947290  0.98010353  1
  O2-  O483  1  0.16457028  0.33002084  0.32463810  1
  O2-  O484  1  0.13884800  0.29751756  0.64677344  1
  O2-  O485  1  0.16680802  0.33955730  0.97180277  1
  O2-  O486  1  0.16693199  0.57872738  0.31944980  1
  O2-  O487  1  0.14302579  0.56820365  0.64434353  1
  O2-  O488  1  0.11941873  0.56549582  0.98956816  1
  O2-  O489  1  0.16473585  0.83095413  0.30650643  1
  O2-  O490  1  0.18424937  0.83641436  0.65565850  1
  O2-  O491  1  0.17876163  0.84606034  0.98195078  1
  O2-  O492  1  0.39360232  0.06066963  0.31225645  1
  O2-  O493  1  0.41823164  0.08391807  0.65234958  1
  O2-  O494  1  0.40779547  0.07362321  1.01304718  1
  O2-  O495  1  0.38981481  0.31967556  0.29198783  1
  O2-  O496  1  0.39267640  0.32844328  0.63915872  1
  O2-  O497  1  0.41916530  0.34016566  0.97555797  1
  O2-  O498  1  0.41290982  0.58753600  0.32058682  1
  O2-  O499  1  0.39930506  0.57135200  0.63870872  1
  O2-  O500  1  0.40461604  0.59063480  0.97803116  1
  O2-  O501  1  0.40104397  0.83744548  0.32093141  1
  O2-  O502  1  0.42070686  0.84377439  0.65087170  1
  O2-  O503  1  0.41823446  0.83272793  0.97894655  1
  O2-  O504  1  0.65644336  0.02423376  0.33565038  1
  O2-  O505  1  0.66151411  0.07855529  0.65765370  1
  O2-  O506  1  0.67653752  0.09794006  0.96892920  1
  O2-  O507  1  0.64078058  0.33230411  0.30819979  1
  O2-  O508  1  0.66691250  0.31296344  0.67117065  1
  O2-  O509  1  0.62994633  0.30520842  0.96909124  1
  O2-  O510  1  0.65347871  0.57981458  0.30085714  1
  O2-  O511  1  0.67155949  0.58997417  0.65176558  1
  O2-  O512  1  0.64589853  0.56061279  1.00182251  1
  O2-  O513  1  0.67268011  0.83822734  0.30449947  1
  O2-  O514  1  0.63430276  0.81076563  0.72003688  1
  O2-  O515  1  0.66863458  0.84663075  0.98524139  1
  O2-  O516  1  0.92451828  0.08573844  0.30392933  1
  O2-  O517  1  0.91911296  0.08250604  0.66392954  1
  O2-  O518  1  0.92097880  0.08184415  0.97593921  1
  O2-  O519  1  0.92894170  0.32529506  0.31564452  1
  O2-  O520  1  0.91762841  0.32523862  0.65412262  1
  O2-  O521  1  0.91751391  0.33116452  0.99049449  1
  O2-  O522  1  0.88091389  0.56232057  0.28938980  1
  O2-  O523  1  0.89136223  0.55471565  0.64614788  1
  O2-  O524  1  0.91397786  0.59084954  0.97738623  1
  O2-  O525  1  0.92239717  0.83190089  0.31094874  1
  O2-  O526  1  0.93173246  0.81844570  0.63200532  1
  O2-  O527  1  0.92960578  0.84601845  0.97702151  1
  O2-  O528  1  0.12143471  0.20091444  0.03836957  1
  O2-  O529  1  0.08186024  0.16347675  0.35926905  1
  O2-  O530  1  0.07627715  0.13585985  0.69508254  1
  O2-  O531  1  0.07750056  0.40657496  0.02992100  1
  O2-  O532  1  0.08661378  0.41628517  0.36466713  1
  O2-  O533  1  0.07992819  0.42765489  0.70229983  1
  O2-  O534  1  0.07938522  0.69054326  0.02264972  1
  O2-  O535  1  0.09120140  0.67717373  0.34874029  1
  O2-  O536  1  0.06601666  0.65777312  0.67903456  1
  O2-  O537  1  0.09350641  0.92706694  0.02206102  1
  O2-  O538  1  0.08317208  0.90603606  0.35758038  1
  O2-  O539  1  0.08642366  0.90628598  0.68526686  1
  O2-  O540  1  0.33378036  0.17914601  0.00473369  1
  O2-  O541  1  0.32749152  0.16115518  0.35176967  1
  O2-  O542  1  0.33294266  0.16633101  0.68990973  1
  O2-  O543  1  0.34961077  0.42586056  0.00468375  1
  O2-  O544  1  0.33375585  0.41803966  0.34632801  1
  O2-  O545  1  0.29436766  0.40397555  0.67413571  1
  O2-  O546  1  0.28671799  0.66141444  -0.02587487  1
  O2-  O547  1  0.33110566  0.67440279  0.36136427  1
  O2-  O548  1  0.35241090  0.68638347  0.68826559  1
  O2-  O549  1  0.33926286  0.90702021  0.02682438  1
  O2-  O550  1  0.32974684  0.91353854  0.35734214  1
  O2-  O551  1  0.34169413  0.92381585  0.69521861  1
  O2-  O552  1  0.57958765  0.15782472  0.01835321  1
  O2-  O553  1  0.59239669  0.19179390  0.36371358  1
  O2-  O554  1  0.57074266  0.15417891  0.69775252  1
  O2-  O555  1  0.56593868  0.39166953  0.02958434  1
  O2-  O556  1  0.55474843  0.41116946  0.33316715  1
  O2-  O557  1  0.59501360  0.42363272  0.69090680  1
  O2-  O558  1  0.57690014  0.67920874  0.01389847  1
  O2-  O559  1  0.58489522  0.66682975  0.34943537  1
  O2-  O560  1  0.57816669  0.66983247  0.64700393  1
  O2-  O561  1  0.58500296  0.93589486  0.01227111  1
  O2-  O562  1  0.60928338  0.93387038  0.35476478  1
  O2-  O563  1  0.57330829  0.91993413  0.70607485  1
  O2-  O564  1  0.83208163  0.16337086  0.02223523  1
  O2-  O565  1  0.83109442  0.15342773  0.34492421  1
  O2-  O566  1  0.82640969  0.16609685  0.70816176  1
  O2-  O567  1  0.86937638  0.43612824  0.03054980  1
  O2-  O568  1  0.87166061  0.42802866  0.36227779  1
  O2-  O569  1  0.83541940  0.40402981  0.69767572  1
  O2-  O570  1  0.81090762  0.66719234  0.03545012  1
  O2-  O571  1  0.83002100  0.66348438  0.34431432  1
  O2-  O572  1  0.83020873  0.65715089  0.68613656  1
  O2-  O573  1  0.83093224  0.90647321  0.02335798  1
  O2-  O574  1  0.84152710  0.92109357  0.33760563  1
  O2-  O575  1  0.81807055  0.91800594  0.69712685  1
