# generated using pymatgen
data_H2O
_symmetry_space_group_name_H-M   'P 1'
_cell_length_a   17.99061846
_cell_length_b   17.98663384
_cell_length_c   22.00925496
_cell_angle_alpha   89.98979631
_cell_angle_beta   90.02741242
_cell_angle_gamma   119.99918710
_symmetry_Int_Tables_number   1
_chemical_formula_structural   H2O
_chemical_formula_sum   'H384 O192'
_cell_volume   6167.87361921
_cell_formula_units_Z   192
loop_
 _symmetry_equiv_pos_site_id
 _symmetry_equiv_pos_as_xyz
  1  'x, y, z'
loop_
 _atom_type_symbol
 _atom_type_oxidation_number
  H+  1.0
  O2-  -2.0
loop_
 _atom_site_type_symbol
 _atom_site_label
 _atom_site_symmetry_multiplicity
 _atom_site_fract_x
 _atom_site_fract_y
 _atom_site_fract_z
 _atom_site_occupancy
  H+  H0  1  0.98824871  0.12685808  0.49987979  1
  H+  H1  1  0.62377828  0.63906126  0.15789418  1
  H+  H2  1  0.64023025  0.64309071  1.00465359  1
  H+  H3  1  0.97481955  0.84491561  0.82506576  1
  H+  H4  1  0.52878929  0.35068373  0.33367629  1
  H+  H5  1  0.10846205  0.73122051  0.48296174  1
  H+  H6  1  0.64268244  0.77990055  0.68090648  1
  H+  H7  1  0.23091351  0.39177953  0.50727599  1
  H+  H8  1  0.63588918  1.02255578  0.17147161  1
  H+  H9  1  0.87297944  0.34950502  0.18100229  1
  H+  H10  1  0.85561664  0.69716444  0.73409358  1
  H+  H11  1  0.35611021  0.20709335  0.67008169  1
  H+  H12  1  0.73071433  0.35444516  0.32943344  1
  H+  H13  1  0.45056924  0.33881622  0.81724227  1
  H+  H14  1  0.35634098  0.65307592  0.32869278  1
  H+  H15  1  0.46344483  0.07311554  0.79024828  1
  H+  H16  1  0.73454905  0.61630787  0.16710362  1
  H+  H17  1  0.85343918  0.13648936  0.65737211  1
  H+  H18  1  0.28745544  0.88751280  0.01001114  1
  H+  H19  1  0.39803578  0.54567636  0.15442539  1
  H+  H20  1  0.52655832  0.36936130  0.50381220  1
  H+  H21  1  0.66272945  0.07647813  0.23355543  1
  H+  H22  1  0.76910043  0.89752218  0.68242556  1
  H+  H23  1  0.88861153  0.52938199  0.50520496  1
  H+  H24  1  0.76829375  0.87949696  0.14136061  1
  H+  H25  1  0.92716448  0.86160750  0.58149151  1
  H+  H26  1  0.61697908  0.89100649  0.15631837  1
  H+  H27  1  0.89001718  1.00260432  0.49278608  1
  H+  H28  1  0.12411616  0.77121609  0.82735220  1
  H+  H29  1  0.52213283  0.13229379  0.16035676  1
  H+  H30  1  0.14305997  0.53339380  0.64944553  1
  H+  H31  1  0.81866617  0.15186248  0.74978672  1
  H+  H32  1  0.69085469  0.36251556  0.82574621  1
  H+  H33  1  0.88343005  0.60415018  0.31063071  1
  H+  H34  1  0.87430037  0.97694330  0.82644932  1
  H+  H35  1  0.10684520  -0.02674238  0.67427371  1
  H+  H36  1  0.14622608  0.86565697  0.16089544  1
  H+  H37  1  0.01715424  0.88592226  0.67456423  1
  H+  H38  1  0.97100396  0.63519570  0.82773096  1
  H+  H39  1  0.12068597  0.39489270  0.66535764  1
  H+  H40  1  0.38845981  0.30072821  0.54600683  1
  H+  H41  1  0.22696482  0.62781579  0.65036401  1
  H+  H42  1  0.72947105  0.12831588  0.64953597  1
  H+  H43  1  0.14391146  1.01484789  -0.01747607  1
  H+  H44  1  0.37734905  0.85289055  0.49742204  1
  H+  H45  1  0.12993364  0.27846390  0.99538162  1
  H+  H46  1  0.60685248  0.39078465  -0.00174191  1
  H+  H47  1  0.64285619  0.35063504  0.88771776  1
  H+  H48  1  0.86242458  0.47551061  -0.02799009  1
  H+  H49  1  0.89444308  0.30776038  0.93580213  1
  H+  H50  1  0.44208569  0.39325815  0.34632161  1
  H+  H51  1  0.62656627  0.40650026  0.66100379  1
  H+  H52  1  0.44795102  0.32160895  0.71859284  1
  H+  H53  1  0.51537922  0.12296189  1.01171479  1
  H+  H54  1  0.72343915  0.37185801  0.97289537  1
  H+  H55  1  0.35437626  0.32718300  0.31913779  1
  H+  H56  1  0.51689583  0.13463140  0.87791658  1
  H+  H57  1  0.87238262  0.73699492  0.15691851  1
  H+  H58  1  -0.03893684  0.09814022  0.16037776  1
  H+  H59  1  0.64229960  0.27059087  0.49798551  1
  H+  H60  1  0.64331442  0.77764729  0.16766501  1
  H+  H61  1  0.97834924  0.36019175  0.48397970  1
  H+  H62  1  0.12080770  0.73321245  0.14756980  1
  H+  H63  1  0.26948939  0.88409340  0.48577719  1
  H+  H64  1  0.38019573  0.77482198  0.32443242  1
  H+  H65  1  0.88805201  0.90570243  0.50054391  1
  H+  H66  1  0.34598146  0.18824127  0.32500738  1
  H+  H67  1  0.64836456  0.52884197  0.66854602  1
  H+  H68  1  1.01695429  0.14335768  0.99867308  1
  H+  H69  1  0.96553464  0.85625217  0.32794497  1
  H+  H70  1  0.36090022  0.22495262  -0.00290462  1
  H+  H71  1  0.91566090  0.80399962  0.52412284  1
  H+  H72  1  0.61081021  0.76290182  0.83781218  1
  H+  H73  1  0.64188980  0.13791558  0.87781063  1
  H+  H74  1  0.61367336  0.21338928  0.33856386  1
  H+  H75  1  0.39888403  0.50181258  0.84550531  1
  H+  H76  1  0.50709904  0.12351666  0.65413309  1
  H+  H77  1  0.89280418  0.68924112  0.83279798  1
  H+  H78  1  0.83352163  0.42402294  0.40118987  1
  H+  H79  1  0.66256631  0.34048172  0.58859665  1
  H+  H80  1  0.23222080  0.62940957  0.13002294  1
  H+  H81  1  0.10801900  0.72725348  0.66347416  1
  H+  H82  1  0.62851086  0.01581674  0.51000588  1
  H+  H83  1  0.82672401  0.15865653  0.06881232  1
  H+  H84  1  0.85781139  0.21496207  0.49118226  1
  H+  H85  1  0.16547536  0.07905999  0.22332503  1
  H+  H86  1  0.10683898  0.88357394  0.82109135  1
  H+  H87  1  0.62595230  0.85990119  0.52889058  1
  H+  H88  1  0.78041584  0.89221541  0.34673594  1
  H+  H89  1  0.96818947  0.35893702  0.15456888  1
  H+  H90  1  0.37026436  0.52821868  0.49980499  1
  H+  H91  1  0.87702429  1.02632497  0.66036446  1
  H+  H92  1  0.85415677  0.38226491  -0.01955821  1
  H+  H93  1  0.21596425  0.64522955  0.03183719  1
  H+  H94  1  0.38327951  0.01156358  0.49732443  1
  H+  H95  1  0.36560925  0.44967444  0.32670311  1
  H+  H96  1  0.86017557  0.12961388  0.15978504  1
  H+  H97  1  0.88987359  0.02025959  0.34297585  1
  H+  H98  1  0.14546919  0.76668854  0.30493837  1
  H+  H99  1  0.36622299  0.11000657  0.81120603  1
  H+  H100  1  0.72309671  0.10401721  0.50660318  1
  H+  H101  1  0.84886676  0.24687413  0.83406576  1
  H+  H102  1  0.88739501  0.10628685  0.82990460  1
  H+  H103  1  0.24820694  0.62275523  0.48275288  1
  H+  H104  1  0.63523340  0.85430531  -0.00366630  1
  H+  H105  1  1.01985845  0.63401755  0.32868514  1
  H+  H106  1  0.12582375  0.10286280  0.31838015  1
  H+  H107  1  0.14518887  1.02413995  0.16230510  1
  H+  H108  1  0.86903807  0.48468964  0.67526139  1
  H+  H109  1  0.07775285  0.91321702  0.76066226  1
  H+  H110  1  0.16850873  0.40486956  0.84820422  1
  H+  H111  1  0.12181361  0.61481701  0.49759556  1
  H+  H112  1  0.55622008  0.93745859  0.83951730  1
  H+  H113  1  0.87381979  0.39887004  0.67328955  1
  H+  H114  1  0.53324699  0.32714793  0.80855815  1
  H+  H115  1  0.77123759  0.13392702  0.16521120  1
  H+  H116  1  0.17934615  0.84369011  1.06458189  1
  H+  H117  1  0.52928606  0.63991181  0.51976660  1
  H+  H118  1  0.27646001  0.13971594  0.15307930  1
  H+  H119  1  0.12847128  0.85990680  0.65354105  1
  H+  H120  1  0.38488169  0.59919111  0.98401337  1
  H+  H121  1  0.39512298  0.34045024  0.93291064  1
  H+  H122  1  0.87228069  0.65380272  0.67477471  1
  H+  H123  1  0.25336750  0.58316214  0.04350707  1
  H+  H124  1  0.03368776  0.89334744  0.15582583  1
  H+  H125  1  0.83964995  0.71097493  0.46220821  1
  H+  H126  1  0.88375481  0.10660158  0.34349352  1
  H+  H127  1  0.20807672  0.09039607  0.31913334  1
  H+  H128  1  0.10188546  0.46198992  0.16632508  1
  H+  H129  1  0.87665380  0.76419249  0.31785674  1
  H+  H130  1  0.62872688  0.09919900  0.32945122  1
  H+  H131  1  0.85377120  0.44282905  0.23388141  1
  H+  H132  1  0.38467505  0.40417948  0.16126440  1
  H+  H133  1  0.51063454  0.88179937  0.50020997  1
  H+  H134  1  0.36821440  0.88316199  0.33602808  1
  H+  H135  1  0.38727118  0.20577254  0.80401206  1
  H+  H136  1  0.39379663  0.86115675  0.17633154  1
  H+  H137  1  0.53850564  0.64982394  0.67799097  1
  H+  H138  1  0.21506885  0.85438718  0.65274672  1
  H+  H139  1  -0.02103817  0.11110327  0.83687952  1
  H+  H140  1  0.59530627  0.66402136  0.36754826  1
  H+  H141  1  0.59812678  0.95780294  0.00629872  1
  H+  H142  1  0.64513888  0.60576380  0.51586606  1
  H+  H143  1  0.87958658  0.65226700  0.15612797  1
  H+  H144  1  0.35959962  0.34857344  0.46877143  1
  H+  H145  1  0.52215889  0.12589186  0.33445150  1
  H+  H146  1  0.44388857  0.62937824  0.59853267  1
  H+  H147  1  0.54441912  0.41586912  0.67533545  1
  H+  H148  1  0.10173455  0.65046428  0.82476519  1
  H+  H149  1  0.19758395  0.54037043  0.81074451  1
  H+  H150  1  0.86933954  0.88523619  0.82019796  1
  H+  H151  1  0.96113520  0.93765147  0.20192619  1
  H+  H152  1  0.03972713  0.90821174  0.49633808  1
  H+  H153  1  0.88255378  0.61397026  0.49844321  1
  H+  H154  1  0.56955221  0.85524786  0.83971215  1
  H+  H155  1  0.10541457  0.12351769  0.15361989  1
  H+  H156  1  0.37529150  0.09017089  0.65191541  1
  H+  H157  1  0.63408993  0.28298343  -0.02273874  1
  H+  H158  1  0.24125676  0.10862941  -0.01678110  1
  H+  H159  1  0.35802059  0.45721950  0.69858254  1
  H+  H160  1  0.53716036  0.64599498  0.14903691  1
  H+  H161  1  0.52247445  0.62162336  0.82851645  1
  H+  H162  1  0.98492517  0.61684022  0.98027311  1
  H+  H163  1  0.36563610  0.96958157  0.33184827  1
  H+  H164  1  0.77830322  0.38972172  0.49171804  1
  H+  H165  1  0.10990655  0.63899005  0.66498103  1
  H+  H166  1  0.32750093  0.39267976  0.75553170  1
  H+  H167  1  0.62390229  0.57386448  0.31686081  1
  H+  H168  1  0.86044525  0.23000933  0.65955514  1
  H+  H169  1  0.37304052  0.35914611  -0.00209351  1
  H+  H170  1  0.18940375  0.33735167  0.16638745  1
  H+  H171  1  1.00719512  0.43612687  0.84612622  1
  H+  H172  1  0.38803311  0.11138892  0.16456311  1
  H+  H173  1  0.82438904  0.41402375  0.76664474  1
  H+  H174  1  0.64198890  0.87062414  0.32078203  1
  H+  H175  1  0.21716090  0.61367313  0.32782833  1
  H+  H176  1  0.35872129  0.74548389  1.01065525  1
  H+  H177  1  0.57653053  0.17061061  0.70733261  1
  H+  H178  1  0.87963937  0.87867791  0.66532744  1
  H+  H179  1  0.86172152  0.87732086  0.34417098  1
  H+  H180  1  0.12617163  0.61073361  0.32323617  1
  H+  H181  1  0.08672745  0.36708607  0.16278378  1
  H+  H182  1  0.13929013  0.87024379  0.49632523  1
  H+  H183  1  0.86235706  0.47426833  0.33682593  1
  H+  H184  1  0.76660355  0.36963500  0.20389980  1
  H+  H185  1  0.87512093  0.10677928  -0.01075638  1
  H+  H186  1  0.47350163  0.10212259  0.50116066  1
  H+  H187  1  0.86841985  0.39229813  0.48544508  1
  H+  H188  1  0.61759372  0.27939847  0.64428182  1
  H+  H189  1  0.54558285  0.81779637  0.38439130  1
  H+  H190  1  0.65855415  0.79482500  0.30853627  1
  H+  H191  1  0.89757426  0.61956689  0.98702453  1
  H+  H192  1  0.16940462  0.56188394  0.24236053  1
  H+  H193  1  0.71543522  0.09948321  1.00924721  1
  H+  H194  1  0.74120279  0.63071330  0.67368727  1
  H+  H195  1  0.87378501  0.25719025  0.15500730  1
  H+  H196  1  0.28566654  0.88891394  0.15204513  1
  H+  H197  1  0.37828750  0.76490741  0.49846424  1
  H+  H198  1  -0.00496774  0.62691239  0.15988153  1
  H+  H199  1  0.63863793  0.51421973  0.50208760  1
  H+  H200  1  0.62114895  0.36631810  0.34184947  1
  H+  H201  1  0.39066464  0.35472635  0.68558737  1
  H+  H202  1  0.64131493  0.52815070  0.99173751  1
  H+  H203  1  0.85838457  0.88243363  0.14417347  1
  H+  H204  1  0.18007769  0.82896122  0.21540244  1
  H+  H205  1  0.13615248  0.36995744  0.51056596  1
  H+  H206  1  0.86241091  -0.02457057  0.98847648  1
  H+  H207  1  0.33849746  0.84889988  0.67182345  1
  H+  H208  1  0.23796057  0.40906777  0.31904612  1
  H+  H209  1  0.31461998  0.42133524  0.19014894  1
  H+  H210  1  0.76452792  0.12320037  0.34497151  1
  H+  H211  1  0.85075213  0.21740668  0.00898718  1
  H+  H212  1  0.10237329  0.38588067  0.00538190  1
  H+  H213  1  0.35534689  0.94595018  0.66629888  1
  H+  H214  1  0.30663262  0.28278760  0.84762517  1
  H+  H215  1  0.17071230  0.31635984  0.34172418  1
  H+  H216  1  0.52949047  0.87170371  0.74816438  1
  H+  H217  1  0.36919581  0.87465914  0.00549267  1
  H+  H218  1  0.25802671  0.37959764  1.01128096  1
  H+  H219  1  0.43094126  0.65062323  0.51460576  1
  H+  H220  1  0.36669863  0.22789896  0.15105177  1
  H+  H221  1  0.50713345  0.85938498  0.34012759  1
  H+  H222  1  0.14019593  0.01553336  0.83262507  1
  H+  H223  1  0.36898912  0.12074900  0.48126361  1
  H+  H224  1  0.38550685  0.21520618  0.47391162  1
  H+  H225  1  0.75455659  0.66227127  0.84306289  1
  H+  H226  1  0.63011968  1.01142152  0.32932172  1
  H+  H227  1  0.14946772  0.12778033  0.48918154  1
  H+  H228  1  0.40584842  0.06247281  0.59214524  1
  H+  H229  1  0.63110413  0.12388639  0.64651763  1
  H+  H230  1  0.23628972  0.12342940  0.48523130  1
  H+  H231  1  0.39929574  1.02139203  -0.00275485  1
  H+  H232  1  0.62166305  0.47744234  0.15069848  1
  H+  H233  1  0.26076590  0.87552979  0.82192956  1
  H+  H234  1  0.26511950  0.67840213  0.86190325  1
  H+  H235  1  0.61135639  0.11932879  1.01412863  1
  H+  H236  1  0.10537455  0.48130067  0.34191801  1
  H+  H237  1  0.38332997  0.09397285  0.31780744  1
  H+  H238  1  0.12284024  0.24419197  0.48858005  1
  H+  H239  1  0.36068259  0.53431237  0.31616916  1
  H+  H240  1  0.64465289  0.62548069  0.67449005  1
  H+  H241  1  0.10629304  0.22531207  0.67146691  1
  H+  H242  1  0.84157563  0.46410743  0.82865412  1
  H+  H243  1  0.09574057  0.20406416  0.31120761  1
  H+  H244  1  0.63519888  0.49241832  0.31632178  1
  H+  H245  1  0.89030686  0.86329675  -0.02190836  1
  H+  H246  1  0.59374160  0.22968173  0.86724524  1
  H+  H247  1  0.21057689  0.10022158  0.66061834  1
  H+  H248  1  0.43732097  0.80792068  0.67886729  1
  H+  H249  1  0.49039266  0.37103317  0.16237029  1
  H+  H250  1  0.37736746  0.33268221  0.44410719  1
  H+  H251  1  0.48221761  0.86298776  0.17671474  1
  H+  H252  1  0.57741105  0.85759838  0.69213209  1
  H+  H253  1  0.87050845  1.01487533  0.15154486  1
  H+  H254  1  0.51879356  0.39299168  0.00045024  1
  H+  H255  1  0.87946488  0.35557995  0.34256722  1
  H+  H256  1  0.47972251  0.63714173  0.30085238  1
  H+  H257  1  0.90813197  0.32109236  0.43334341  1
  H+  H258  1  0.11429110  0.88828873  1.00753295  1
  H+  H259  1  0.04980455  0.43843673  0.84222337  1
  H+  H260  1  0.90984555  0.08469252  0.92766522  1
  H+  H261  1  0.63642099  0.77734876  0.53768043  1
  H+  H262  1  1.01512872  0.13883631  0.67136637  1
  H+  H263  1  0.76340441  0.11478733  0.81058498  1
  H+  H264  1  0.39008352  0.02203935  0.16449250  1
  H+  H265  1  -0.03011186  0.35687403  0.34333684  1
  H+  H266  1  0.36913532  0.66743849  0.67034822  1
  H+  H267  1  0.61074275  0.13224230  0.49183534  1
  H+  H268  1  0.10970450  0.12871768  0.82265942  1
  H+  H269  1  0.51258260  0.86373252  0.00756187  1
  H+  H270  1  0.75971587  0.61838394  0.47902741  1
  H+  H271  1  0.12711072  0.64848954  0.15142501  1
  H+  H272  1  0.06595901  0.41221023  0.06117161  1
  H+  H273  1  0.38174552  0.78926350  0.94476026  1
  H+  H274  1  0.63198040  0.26809732  0.17427184  1
  H+  H275  1  0.92324560  0.58324930  0.25267241  1
  H+  H276  1  0.34439633  0.82546986  0.84953685  1
  H+  H277  1  0.23504896  0.10084286  0.83119708  1
  H+  H278  1  0.09173977  0.20381101  0.16131722  1
  H+  H279  1  0.90334294  0.54450047  0.15015202  1
  H+  H280  1  0.08986165  0.96331055  0.33166669  1
  H+  H281  1  0.14504266  0.63245390  0.92607180  1
  H+  H282  1  0.10489711  0.47890840  0.49383834  1
  H+  H283  1  0.37939782  0.51043326  -0.00337478  1
  H+  H284  1  0.23658628  0.37506545  0.85413839  1
  H+  H285  1  0.63722972  0.74110978  1.00413622  1
  H+  H286  1  0.87037211  0.72953099  -0.00011295  1
  H+  H287  1  0.62313908  0.64588404  0.82792801  1
  H+  H288  1  0.64310559  0.82179797  0.89681416  1
  H+  H289  1  0.42711818  0.62832650  0.23947198  1
  H+  H290  1  0.82623434  0.64842859  0.38135950  1
  H+  H291  1  0.83977320  0.92908284  0.73560823  1
  H+  H292  1  0.43185688  0.34410521  0.22192866  1
  H+  H293  1  0.65569404  0.20086629  0.77175814  1
  H+  H294  1  0.15520711  0.32764554  0.23443086  1
  H+  H295  1  0.48783942  0.71601852  0.63612441  1
  H+  H296  1  0.61021598  0.67686918  0.06840885  1
  H+  H297  1  0.83486286  0.91163546  0.04544192  1
  H+  H298  1  0.07797096  0.66877330  0.38882541  1
  H+  H299  1  0.60944604  0.68765432  0.47016201  1
  H+  H300  1  0.85022407  0.44727276  0.07888261  1
  H+  H301  1  0.06771869  0.91282811  0.39476788  1
  H+  H302  1  0.01433479  0.12856784  0.34220014  1
  H+  H303  1  0.69015763  0.60868899  0.89586770  1
  H+  H304  1  0.09059165  0.18659427  0.42756616  1
  H+  H305  1  0.43005389  0.56698934  0.90112182  1
  H+  H306  1  0.16202530  0.83407382  0.55581634  1
  H+  H307  1  0.14364338  0.77629427  1.01190439  1
  H+  H308  1  0.64220563  0.35965571  0.49732125  1
  H+  H309  1  0.57883278  0.91406992  0.09923407  1
  H+  H310  1  0.51969670  0.57417161  0.38291405  1
  H+  H311  1  0.12738422  -0.00797813  0.48069304  1
  H+  H312  1  0.12382224  0.10411176  0.66564312  1
  H+  H313  1  0.30744820  0.58336786  0.47023825  1
  H+  H314  1  0.07958320  0.67316740  0.75659083  1
  H+  H315  1  0.15415415  0.82353249  0.88995811  1
  H+  H316  1  0.23624880  0.85301247  0.30739362  1
  H+  H317  1  0.67059518  0.57297268  0.22353470  1
  H+  H318  1  0.15629832  0.58955996  0.55802863  1
  H+  H319  1  0.58769951  0.66431481  0.74299787  1
  H+  H320  1  0.92650999  0.34437255  0.59460304  1
  H+  H321  1  0.88173277  0.78861247  0.66186841  1
  H+  H322  1  0.91821298  0.82274507  0.92378799  1
  H+  H323  1  0.58292269  0.15707746  0.07549880  1
  H+  H324  1  0.08690270  0.42131504  0.43425821  1
  H+  H325  1  0.91303625  0.08221548  0.59874601  1
  H+  H326  1  0.72998845  0.86326487  0.98562448  1
  H+  H327  1  0.32692864  0.14096285  0.38865337  1
  H+  H328  1  0.65961996  0.84075030  0.62325791  1
  H+  H329  1  0.07765812  0.15876300  0.76552684  1
  H+  H330  1  0.58636446  0.41606572  0.09230839  1
  H+  H331  1  0.33002262  0.91133248  0.42634341  1
  H+  H332  1  0.42114237  0.07597543  0.25768283  1
  H+  H333  1  0.08327224  0.91929653  0.09186389  1
  H+  H334  1  0.92355174  0.85188801  0.23829755  1
  H+  H335  1  0.33074705  0.48188739  0.43421915  1
  H+  H336  1  0.57938697  0.15766733  0.43148481  1
  H+  H337  1  0.89161847  0.11466450  0.50194715  1
  H+  H338  1  0.63327626  0.15249856  0.77309400  1
  H+  H339  1  0.61266054  0.13258238  0.16398017  1
  H+  H340  1  0.97426065  0.62122077  0.65690512  1
  H+  H341  1  0.35243729  0.91856823  0.09693382  1
  H+  H342  1  0.31831184  0.66171770  0.39365945  1
  H+  H343  1  0.85293019  0.21359293  0.35234260  1
  H+  H344  1  0.18105190  0.07419133  0.91548785  1
  H+  H345  1  0.63630297  0.35984866  0.17212413  1
  H+  H346  1  0.33284459  0.16618882  0.05691724  1
  H+  H347  1  0.42277753  0.83420048  0.26398167  1
  H+  H348  1  0.73650835  0.61379940  0.99463833  1
  H+  H349  1  0.66602679  0.32241703  0.27127098  1
  H+  H350  1  0.57043030  0.39609652  0.43656677  1
  H+  H351  1  0.16855038  0.34968670  0.94105235  1
  H+  H352  1  0.57799586  0.91381273  0.44585687  1
  H+  H353  1  0.40277568  0.63408754  0.13690484  1
  H+  H354  1  0.32061938  0.41057008  0.07039788  1
  H+  H355  1  0.24317452  0.50238949  0.77149730  1
  H+  H356  1  0.39823086  0.11142589  0.99686826  1
  H+  H357  1  0.83110651  0.32527855  0.84528281  1
  H+  H358  1  0.91210831  0.59383325  0.59949705  1
  H+  H359  1  0.84483169  0.67425934  0.06128530  1
  H+  H360  1  0.09170451  0.66324178  0.05617732  1
  H+  H361  1  0.76898000  0.61879754  0.32184387  1
  H+  H362  1  0.42072086  0.80848018  0.85206581  1
  H+  H363  1  0.98564358  0.36925679  0.65326037  1
  H+  H364  1  0.45094298  0.31222830  0.59730740  1
  H+  H365  1  0.38454635  -0.00347520  0.82231977  1
  H+  H366  1  0.11151844  0.44572684  0.72003269  1
  H+  H367  1  0.17536235  0.33896530  0.60260107  1
  H+  H368  1  0.66445296  0.08207051  0.94796181  1
  H+  H369  1  0.84125539  0.44294517  0.11263985  1
  H+  H370  1  0.66440864  0.08733815  0.58613953  1
  H+  H371  1  0.32600275  0.14093989  0.72385597  1
  H+  H372  1  0.07347400  0.16604320  0.05785762  1
  H+  H373  1  0.68037245  0.84864622  0.22128098  1
  H+  H374  1  0.91885505  0.60811280  0.88994261  1
  H+  H375  1  0.74092507  0.17810647  0.88322188  1
  H+  H376  1  0.96509809  0.35162012  0.99076514  1
  H+  H377  1  0.85069452  0.92485816  0.43447286  1
  H+  H378  1  0.01797599  0.64329185  0.48544408  1
  H+  H379  1  0.82151664  0.14778117  0.43796263  1
  H+  H380  1  0.22432829  0.35664996  0.66708974  1
  H+  H381  1  0.11039436  0.39554581  0.33854275  1
  H+  H382  1  0.02577593  0.88945856  -0.00633470  1
  H+  H383  1  0.31920766  0.88943516  0.76339367  1
  O2-  O384  1  0.06845865  0.14770732  0.14093623  1
  O2-  O385  1  0.08901742  0.18409275  0.47252316  1
  O2-  O386  1  0.07558877  0.15496350  0.81064168  1
  O2-  O387  1  0.06345692  0.40374905  0.14832006  1
  O2-  O388  1  0.08215523  0.41794641  0.47976576  1
  O2-  O389  1  0.18635335  0.49095027  0.78360459  1
  O2-  O390  1  0.08974945  0.67069957  0.13476029  1
  O2-  O391  1  0.07706493  0.67055682  0.46761385  1
  O2-  O392  1  0.07480782  0.67953918  0.80167635  1
  O2-  O393  1  0.09126444  0.91850366  0.13672287  1
  O2-  O394  1  0.09237902  0.92790903  0.47205011  1
  O2-  O395  1  0.07564398  0.91357168  0.80706674  1
  O2-  O396  1  0.33640927  0.16786042  0.13625982  1
  O2-  O397  1  0.34668383  0.15650566  0.46042295  1
  O2-  O398  1  0.33891438  0.14534293  0.80112736  1
  O2-  O399  1  0.35146948  0.43527427  0.15456629  1
  O2-  O400  1  0.31486057  0.48740382  0.47586810  1
  O2-  O401  1  0.33203033  0.39722492  0.82391436  1
  O2-  O402  1  0.20874335  0.63335578  0.17092925  1
  O2-  O403  1  0.30618251  0.63797377  0.46588890  1
  O2-  O404  1  0.21998792  0.61650667  0.86416532  1
  O2-  O405  1  0.34840213  0.92101175  0.14220083  1
  O2-  O406  1  0.33086041  0.91272490  0.47199392  1
  O2-  O407  1  0.32110265  0.89563589  0.80873783  1
  O2-  O408  1  0.58386760  0.16352249  0.14625814  1
  O2-  O409  1  0.57985344  0.16167702  0.47690047  1
  O2-  O410  1  0.57650341  0.17526084  0.88955000  1
  O2-  O411  1  0.58914435  0.41586679  0.13813027  1
  O2-  O412  1  0.58076867  0.40485735  0.48077428  1
  O2-  O413  1  0.47512139  0.31021778  0.79252845  1
  O2-  O414  1  0.59998309  0.67464033  0.14040066  1
  O2-  O415  1  0.59909950  0.66937536  0.51226846  1
  O2-  O416  1  0.58201605  0.66357012  0.81160686  1
  O2-  O417  1  0.58537638  0.92116431  0.14432732  1
  O2-  O418  1  0.57483400  0.91644230  0.49037334  1
  O2-  O419  1  0.52818346  0.87744947  0.82723715  1
  O2-  O420  1  0.83105982  0.16476813  0.14863295  1
  O2-  O421  1  0.82577572  0.15146196  0.48404852  1
  O2-  O422  1  0.82220686  0.14662719  0.79457337  1
  O2-  O423  1  0.82548128  0.38454481  0.21789672  1
  O2-  O424  1  0.83928180  0.42606008  0.47723595  1
  O2-  O425  1  0.80934861  0.40620872  0.81144639  1
  O2-  O426  1  0.84314406  0.67737832  0.14307233  1
  O2-  O427  1  0.82035560  0.65021733  0.45776861  1
  O2-  O428  1  0.86885464  0.72711173  0.81512598  1
  O2-  O429  1  0.82698751  0.90652939  0.12279019  1
  O2-  O430  1  0.85924709  0.93620357  0.48043330  1
  O2-  O431  1  0.84475259  0.91997235  0.80570517  1
  O2-  O432  1  0.17175561  0.08424221  0.17796234  1
  O2-  O433  1  0.17574967  0.09210948  0.49792641  1
  O2-  O434  1  0.17706103  0.07460214  0.85049144  1
  O2-  O435  1  0.13746522  0.31239738  0.19108621  1
  O2-  O436  1  0.17378396  0.34599014  0.52242697  1
  O2-  O437  1  0.17913359  0.36311453  0.86941874  1
  O2-  O438  1  0.18274757  0.54996630  0.19957882  1
  O2-  O439  1  0.15026226  0.58245353  0.51276648  1
  O2-  O440  1  0.14012091  0.61604416  0.87830688  1
  O2-  O441  1  0.17737306  0.83379721  0.16840644  1
  O2-  O442  1  0.16506934  0.83497366  0.51042450  1
  O2-  O443  1  0.15738215  0.83194988  0.84608686  1
  O2-  O444  1  0.41955632  0.08297548  0.18039860  1
  O2-  O445  1  0.41198099  0.07217246  0.51421273  1
  O2-  O446  1  0.42437491  0.06125127  0.82424206  1
  O2-  O447  1  0.42871668  0.34376818  0.17751495  1
  O2-  O448  1  0.44194394  0.30072528  0.55313550  1
  O2-  O449  1  0.35899260  0.33877452  0.85168989  1
  O2-  O450  1  0.42905718  0.60901432  0.16243562  1
  O2-  O451  1  0.44336005  0.60812429  0.53218246  1
  O2-  O452  1  0.43080941  0.56424950  0.85612750  1
  O2-  O453  1  0.42330540  0.83204325  0.19406990  1
  O2-  O454  1  0.41027653  0.82500161  0.51145751  1
  O2-  O455  1  0.36152901  0.78585024  0.86846940  1
  O2-  O456  1  0.66509142  0.08258745  0.18849672  1
  O2-  O457  1  0.66237414  0.07899708  0.52202607  1
  O2-  O458  1  0.68782696  0.12114802  0.87970859  1
  O2-  O459  1  0.65968651  0.32659347  0.19295838  1
  O2-  O460  1  0.67560400  0.33190495  0.51093663  1
  O2-  O461  1  0.63232335  0.33722985  0.84350494  1
  O2-  O462  1  0.67272898  0.58316576  0.17874786  1
  O2-  O463  1  0.67827307  0.57487415  0.51325229  1
  O2-  O464  1  0.69434860  0.61906024  0.85171561  1
  O2-  O465  1  0.67312796  0.84057603  0.17660657  1
  O2-  O466  1  0.66017323  0.83837069  0.54960227  1
  O2-  O467  1  0.62948632  0.82196749  0.85352334  1
  O2-  O468  1  0.89952593  0.07144958  0.17204188  1
  O2-  O469  1  0.92747853  0.08838542  0.51455600  1
  O2-  O470  1  0.91725345  0.08085190  0.85202435  1
  O2-  O471  1  0.90161164  0.32471529  0.15358881  1
  O2-  O472  1  0.91365774  0.32563800  0.47842580  1
  O2-  O473  1  0.83903267  0.28027213  0.86563249  1
  O2-  O474  1  0.93224119  0.59794488  0.17364952  1
  O2-  O475  1  0.91647569  0.59087619  0.51821969  1
  O2-  O476  1  0.91306728  0.61595501  0.84548163  1
  O2-  O477  1  0.93868237  0.87632399  0.19517118  1
  O2-  O478  1  0.93517963  0.86360203  0.53441289  1
  O2-  O479  1  0.91473742  0.81251900  0.84393051  1
  O2-  O480  1  0.15065481  0.06897552  0.30047414  1
  O2-  O481  1  0.14832049  0.06793706  0.65253497  1
  O2-  O482  1  0.18117623  0.07467361  0.96400107  1
  O2-  O483  1  0.17839644  0.35822934  0.31043491  1
  O2-  O484  1  0.16721188  0.33449527  0.64765181  1
  O2-  O485  1  0.16488687  0.34226811  0.98698242  1
  O2-  O486  1  0.15643929  0.57753790  0.31303635  1
  O2-  O487  1  0.16708471  0.59368140  0.63463443  1
  O2-  O488  1  0.15717786  0.65422654  0.98765072  1
  O2-  O489  1  0.18189600  0.82198999  0.28395242  1
  O2-  O490  1  0.15611912  0.82866193  0.63520876  1
  O2-  O491  1  0.17491146  0.84081877  1.02018939  1
  O2-  O492  1  0.42245685  0.07371150  0.30324094  1
  O2-  O493  1  0.40811241  0.06183664  0.63768933  1
  O2-  O494  1  0.43329749  0.08422539  0.98781429  1
  O2-  O495  1  0.40714406  0.38055425  0.30959440  1
  O2-  O496  1  0.42865066  0.32939644  0.67757093  1
  O2-  O497  1  0.40428002  0.33325630  0.97639117  1
  O2-  O498  1  0.42544179  0.62985699  0.28478118  1
  O2-  O499  1  0.45148336  0.65436390  0.64282929  1
  O2-  O500  1  0.41794226  0.56997299  0.98148389  1
  O2-  O501  1  0.42218701  0.83481359  0.31099877  1
  O2-  O502  1  0.37716065  0.77787094  0.65794470  1
  O2-  O503  1  0.39699381  0.79953132  0.98916434  1
  O2-  O504  1  0.66096414  0.07021276  0.31399773  1
  O2-  O505  1  0.66643191  0.09594070  0.63418808  1
  O2-  O506  1  0.65433583  0.06948326  0.99332395  1
  O2-  O507  1  0.66857836  0.32004464  0.31663438  1
  O2-  O508  1  0.64782425  0.33998510  0.63210601  1
  O2-  O509  1  0.65798659  0.34384465  0.96768862  1
  O2-  O510  1  0.66041853  0.55212691  0.30026096  1
  O2-  O511  1  0.67982462  0.59812971  0.65855947  1
  O2-  O512  1  0.67592438  0.59028417  0.98007927  1
  O2-  O513  1  0.68433753  0.85639412  0.30170444  1
  O2-  O514  1  0.66129158  0.84033931  0.66930650  1
  O2-  O515  1  0.66592086  0.82512120  0.97966627  1
  O2-  O516  1  0.92063196  0.08193217  0.33231067  1
  O2-  O517  1  0.90644958  0.08684541  0.64296509  1
  O2-  O518  1  0.90738324  0.07930197  0.97325346  1
  O2-  O519  1  0.90647239  0.31924250  0.34746241  1
  O2-  O520  1  0.92463869  0.33679084  0.63855433  1
  O2-  O521  1  0.90175022  0.31670129  0.98045707  1
  O2-  O522  1  0.91446249  0.57344488  0.29730344  1
  O2-  O523  1  0.91248391  0.59528299  0.64478170  1
  O2-  O524  1  0.92510607  0.59105818  0.96528309  1
  O2-  O525  1  0.90402390  0.82685221  0.30912871  1
  O2-  O526  1  0.91217586  0.85005431  0.64867495  1
  O2-  O527  1  0.92230742  0.83205159  0.96861357  1
  O2-  O528  1  0.07700022  0.17611725  0.01361557  1
  O2-  O529  1  0.08158253  0.16452607  0.34522593  1
  O2-  O530  1  0.07519990  0.16490929  0.68618099  1
  O2-  O531  1  0.06454161  0.40981041  0.01660045  1
  O2-  O532  1  0.07768954  0.42027010  0.35749344  1
  O2-  O533  1  0.09193939  0.42830777  0.67743595  1
  O2-  O534  1  0.09218701  0.67402781  0.01127366  1
  O2-  O535  1  0.08011402  0.66496826  0.34350880  1
  O2-  O536  1  0.07865701  0.66774385  0.68113841  1
  O2-  O537  1  0.08512622  0.92316386  0.01168828  1
  O2-  O538  1  0.05599052  0.90562402  0.35023915  1
  O2-  O539  1  0.07789677  0.91012911  0.68773637  1
  O2-  O540  1  0.33409880  0.16381443  0.01142300  1
  O2-  O541  1  0.31578328  0.13136224  0.34324791  1
  O2-  O542  1  0.32534005  0.14473957  0.67839688  1
  O2-  O543  1  0.32071082  0.40655016  0.02593903  1
  O2-  O544  1  0.33302951  0.47822918  0.33875797  1
  O2-  O545  1  0.32715815  0.39586769  0.70758915  1
  O2-  O546  1  0.26242278  0.63895212  0.05652266  1
  O2-  O547  1  0.31981420  0.67276279  0.34834762  1
  O2-  O548  1  0.33163462  0.69088208  0.68466421  1
  O2-  O549  1  0.35011446  0.91618355  0.01837737  1
  O2-  O550  1  0.33409833  0.91051916  0.34914640  1
  O2-  O551  1  0.31725348  0.88863992  0.68428691  1
  O2-  O552  1  0.58132903  0.15319794  0.02871211  1
  O2-  O553  1  0.58101170  0.15262743  0.35305833  1
  O2-  O554  1  0.57116371  0.16221165  0.66335286  1
  O2-  O555  1  0.57878527  0.42233796  0.01603506  1
  O2-  O556  1  0.58304800  0.39215052  0.35241019  1
  O2-  O557  1  0.60694072  0.44453811  0.68180396  1
  O2-  O558  1  0.61328513  0.67838110  0.02220682  1
  O2-  O559  1  0.55289785  0.61023079  0.34866296  1
  O2-  O560  1  0.59598478  0.66889883  0.69630413  1
  O2-  O561  1  0.57336523  0.89745816  0.02118222  1
  O2-  O562  1  0.56345011  0.87147723  0.36257973  1
  O2-  O563  1  0.52787698  0.86528901  0.70314574  1
  O2-  O564  1  0.82011357  0.15584560  0.02379496  1
  O2-  O565  1  0.82249399  0.15125834  0.36413196  1
  O2-  O566  1  0.82242307  0.16812657  0.67043674  1
  O2-  O567  1  0.82163998  0.41334879  -0.02360315  1
  O2-  O568  1  0.83016620  0.41632411  0.35565990  1
  O2-  O569  1  0.84625915  0.42724581  0.69380669  1
  O2-  O570  1  0.84172445  0.66951392  0.01631041  1
  O2-  O571  1  0.82952711  0.65328428  0.33581575  1
  O2-  O572  1  0.84336893  0.68612509  0.69011845  1
  O2-  O573  1  0.83423454  0.91247034  0.00005178  1
  O2-  O574  1  0.83789132  0.91167372  0.36459622  1
  O2-  O575  1  0.83300540  0.92968204  0.68930467  1
