# generated using pymatgen
data_H2O
_symmetry_space_group_name_H-M   'P 1'
_cell_length_a   17.98112431
_cell_length_b   17.98776925
_cell_length_c   21.99798542
_cell_angle_alpha   89.99786298
_cell_angle_beta   90.02518401
_cell_angle_gamma   120.02826532
_symmetry_Int_Tables_number   1
_chemical_formula_structural   H2O
_chemical_formula_sum   'H384 O192'
_cell_volume   6160.04485971
_cell_formula_units_Z   192
loop_
 _symmetry_equiv_pos_site_id
 _symmetry_equiv_pos_as_xyz
  1  'x, y, z'
loop_
 _atom_type_symbol
 _atom_type_oxidation_number
  H+  1.0
  O2-  -2.0
loop_
 _atom_site_type_symbol
 _atom_site_label
 _atom_site_symmetry_multiplicity
 _atom_site_fract_x
 _atom_site_fract_y
 _atom_site_fract_z
 _atom_site_occupancy
  H+  H0  1  0.47008394  0.37396318  0.66812777  1
  H+  H1  1  0.72377831  0.85768176  0.53825260  1
  H+  H2  1  0.71788995  0.35774377  0.33088792  1
  H+  H3  1  0.87818378  0.39590192  0.15667317  1
  H+  H4  1  0.57419605  0.86344999  -0.01868916  1
  H+  H5  1  0.89607164  0.85536493  0.17225150  1
  H+  H6  1  0.12880741  -0.01511820  1.00527681  1
  H+  H7  1  0.15237340  0.77951734  0.65371308  1
  H+  H8  1  0.89182830  0.12218117  0.50936933  1
  H+  H9  1  0.81730391  0.09177197  0.80916782  1
  H+  H10  1  0.10588338  0.85720985  0.33947388  1
  H+  H11  1  0.87157504  0.89123735  0.83648247  1
  H+  H12  1  0.51400921  0.12252928  0.48613161  1
  H+  H13  1  0.46402342  0.61401303  0.30442017  1
  H+  H14  1  0.61065398  0.12709697  0.48390879  1
  H+  H15  1  0.38653091  0.53284215  0.65479497  1
  H+  H16  1  0.12296028  0.89895940  0.85344124  1
  H+  H17  1  0.89684143  0.23884973  0.86125897  1
  H+  H18  1  0.88626352  1.01003424  0.02035937  1
  H+  H19  1  0.05327138  0.13595055  0.67603958  1
  H+  H20  1  0.54193293  0.30456676  0.87052505  1
  H+  H21  1  0.86967505  0.46823456  0.00352683  1
  H+  H22  1  0.85641205  0.87750066  0.49894928  1
  H+  H23  1  0.88397143  0.02148831  0.82971457  1
  H+  H24  1  0.87565102  0.26305056  0.32974568  1
  H+  H25  1  0.74396868  0.61092824  0.17464097  1
  H+  H26  1  0.60408187  0.13518749  0.15470655  1
  H+  H27  1  0.15118394  0.60065113  0.85157361  1
  H+  H28  1  0.60577212  0.48347209  0.67105386  1
  H+  H29  1  0.14841759  0.36655579  0.99205074  1
  H+  H30  1  0.72286518  0.12803810  0.85410412  1
  H+  H31  1  0.75424776  0.14839113  0.66339595  1
  H+  H32  1  0.34400911  0.48414667  0.32070158  1
  H+  H33  1  0.64934796  0.36654986  0.17361866  1
  H+  H34  1  0.11932051  0.35894158  0.30532801  1
  H+  H35  1  0.12960973  0.28176238  0.20633981  1
  H+  H36  1  0.35036867  0.88400810  0.86096574  1
  H+  H37  1  0.47190461  0.11243027  0.17760796  1
  H+  H38  1  0.14229683  0.61052226  0.34133822  1
  H+  H39  1  0.38548328  0.02682860  0.66803477  1
  H+  H40  1  0.89540298  0.03184925  0.31119814  1
  H+  H41  1  0.89758365  0.35948715  0.54776458  1
  H+  H42  1  0.40683888  0.58742882  0.55256182  1
  H+  H43  1  0.67105464  0.58518962  0.94374285  1
  H+  H44  1  0.15730822  0.12513320  1.00444863  1
  H+  H45  1  0.89094744  0.51567664  0.33410260  1
  H+  H46  1  0.23467987  0.36438661  0.49520124  1
  H+  H47  1  0.57980255  0.73144700  0.45469163  1
  H+  H48  1  0.47807051  0.61807783  0.65252441  1
  H+  H49  1  0.44580113  0.30212021  0.34018888  1
  H+  H50  1  0.38391637  0.61982832  0.32628498  1
  H+  H51  1  0.27783507  0.88817549  0.33519257  1
  H+  H52  1  0.24937779  0.61473150  0.83314018  1
  H+  H53  1  1.04534474  0.15073291  0.81839905  1
  H+  H54  1  0.88400457  0.72315832  0.15808644  1
  H+  H55  1  0.39881360  0.36018458  0.99374591  1
  H+  H56  1  0.38376643  0.77083476  0.46462347  1
  H+  H57  1  0.88367811  0.84174075  0.31679859  1
  H+  H58  1  0.67893114  0.95802536  0.08724465  1
  H+  H59  1  0.57444474  0.21160904  -0.01131900  1
  H+  H60  1  0.86587194  0.13705373  0.33389927  1
  H+  H61  1  0.88403504  0.02947483  0.51080220  1
  H+  H62  1  0.63075325  0.61605650  0.49755804  1
  H+  H63  1  0.03522246  0.38435648  0.66138293  1
  H+  H64  1  0.11123497  0.88057470  0.49476111  1
  H+  H65  1  0.06133441  1.01342962  0.29781483  1
  H+  H66  1  0.16697012  0.82638352  0.26818148  1
  H+  H67  1  0.05473265  0.90890518  0.68662747  1
  H+  H68  1  0.89659568  0.59939075  0.64938039  1
  H+  H69  1  0.64171638  0.14180639  0.85974760  1
  H+  H70  1  0.52632915  0.89160130  0.63215018  1
  H+  H71  1  0.11929194  0.38102523  0.48239977  1
  H+  H72  1  0.27205107  0.88606809  0.16133304  1
  H+  H73  1  0.64225479  0.86031756  0.32279983  1
  H+  H74  1  0.26359772  0.18767638  0.32223696  1
  H+  H75  1  0.77812383  0.14915721  0.48759286  1
  H+  H76  1  0.11673035  0.13275467  0.49525372  1
  H+  H77  1  0.91313675  0.57364222  0.55105910  1
  H+  H78  1  0.29172616  0.64414920  0.68144169  1
  H+  H79  1  0.15219128  0.27507795  0.65450557  1
  H+  H80  1  0.59931381  0.21937976  0.83065943  1
  H+  H81  1  0.12361230  0.17356981  0.33560032  1
  H+  H82  1  0.97234333  0.85156917  0.49526396  1
  H+  H83  1  0.77187550  0.12203979  0.76110199  1
  H+  H84  1  0.15629847  0.54441679  1.00032267  1
  H+  H85  1  0.03179580  0.41691440  0.81259294  1
  H+  H86  1  0.33955041  0.40907269  0.81983485  1
  H+  H87  1  0.99798642  0.38151508  0.13181798  1
  H+  H88  1  0.13819513  0.86248241  0.17305001  1
  H+  H89  1  0.62936000  0.77249884  0.00600433  1
  H+  H90  1  0.70046071  0.36580152  0.67245448  1
  H+  H91  1  0.34435125  0.83205912  0.19552375  1
  H+  H92  1  0.24308800  0.39040169  0.83022973  1
  H+  H93  1  0.44668846  0.84541968  0.91752660  1
  H+  H94  1  0.53591746  0.38916737  0.01345483  1
  H+  H95  1  0.29412584  0.73136931  0.21622667  1
  H+  H96  1  0.98422408  0.12180484  0.32304669  1
  H+  H97  1  0.14180104  0.76467824  0.32745236  1
  H+  H98  1  0.28860789  0.14426470  0.83234166  1
  H+  H99  1  0.78840524  0.85993789  0.67396089  1
  H+  H100  1  0.13227104  0.24518046  0.83037852  1
  H+  H101  1  0.29642925  0.13882694  0.01616049  1
  H+  H102  1  0.63333420  0.62200355  0.84895855  1
  H+  H103  1  0.04087697  0.89484654  0.00435752  1
  H+  H104  1  0.60643244  0.50610317  0.82918197  1
  H+  H105  1  0.37188192  0.23597360  0.67967038  1
  H+  H106  1  0.79005050  0.89015209  0.17075807  1
  H+  H107  1  0.38417667  0.11401728  0.17870682  1
  H+  H108  1  0.72331080  0.12734973  0.17558153  1
  H+  H109  1  0.40190747  0.37430326  0.18036857  1
  H+  H110  1  0.61422568  0.89439452  0.61801630  1
  H+  H111  1  0.47871213  0.10906213  0.83620741  1
  H+  H112  1  0.90975472  0.02073149  0.17358727  1
  H+  H113  1  0.38241138  0.42062752  0.45414955  1
  H+  H114  1  0.43218257  0.13734073  0.03076008  1
  H+  H115  1  0.26981871  0.89760924  0.86753190  1
  H+  H116  1  0.55383881  0.15618196  0.10245109  1
  H+  H117  1  0.37319226  0.46890695  0.00566315  1
  H+  H118  1  0.79880129  0.36725165  0.63905399  1
  H+  H119  1  0.25796262  0.39252547  0.31955434  1
  H+  H120  1  0.02653823  0.64016722  0.49251547  1
  H+  H121  1  0.79820634  0.73581340  0.68125354  1
  H+  H122  1  0.38052117  0.53019901  0.49070477  1
  H+  H123  1  0.63587671  0.76973565  0.54157645  1
  H+  H124  1  0.72226929  0.34905587  0.99765861  1
  H+  H125  1  0.03463383  0.88924673  0.15609858  1
  H+  H126  1  0.78421588  0.38935142  0.16270807  1
  H+  H127  1  0.11283851  0.46540638  0.47836714  1
  H+  H128  1  0.64590873  0.52515608  1.00247988  1
  H+  H129  1  0.62153126  0.59805858  0.31921890  1
  H+  H130  1  0.36634123  -0.02155188  0.50072858  1
  H+  H131  1  0.85471941  0.64445014  0.82860212  1
  H+  H132  1  0.88467152  0.34815583  1.00817952  1
  H+  H133  1  0.38371068  0.11252810  0.83523388  1
  H+  H134  1  0.47606590  0.86916502  0.32645319  1
  H+  H135  1  0.12434272  0.23466296  0.01433799  1
  H+  H136  1  0.32995580  0.45548893  0.15841403  1
  H+  H137  1  0.36432693  0.98162763  0.33456216  1
  H+  H138  1  0.61502677  0.22403312  0.33815592  1
  H+  H139  1  0.13945438  0.51971624  0.33408614  1
  H+  H140  1  0.51057081  0.64432893  0.48575305  1
  H+  H141  1  0.37430883  0.34491023  0.85191172  1
  H+  H142  1  0.91032874  0.33987990  0.85721426  1
  H+  H143  1  0.57609591  0.92609529  0.82738892  1
  H+  H144  1  0.81705555  0.93140992  0.75042239  1
  H+  H145  1  0.90680928  0.24249937  0.82745035  1
  H+  H146  1  -0.01429293  0.87078582  0.84886122  1
  H+  H147  1  0.13186865  0.64074000  0.16835066  1
  H+  H148  1  0.26845802  0.62605237  0.36721056  1
  H+  H149  1  0.67425982  0.99422589  0.82619609  1
  H+  H150  1  0.14799038  0.27240241  0.50114159  1
  H+  H151  1  0.37990056  0.33961008  0.81834921  1
  H+  H152  1  0.51794313  0.13392857  0.67565464  1
  H+  H153  1  0.72519473  0.10929003  0.32191724  1
  H+  H154  1  0.38808318  0.10576354  0.50744350  1
  H+  H155  1  0.57932161  0.91074621  0.09278295  1
  H+  H156  1  0.16900886  0.32951232  0.93115485  1
  H+  H157  1  0.64131771  1.03075476  0.49815483  1
  H+  H158  1  0.17819371  0.84053347  0.56768160  1
  H+  H159  1  -0.01710501  0.59806570  0.64071849  1
  H+  H160  1  0.84955385  0.37548046  0.34751010  1
  H+  H161  1  0.46273078  0.83139242  0.13796546  1
  H+  H162  1  0.35774047  0.63534476  0.46541863  1
  H+  H163  1  0.77883368  0.88265172  0.32401195  1
  H+  H164  1  0.52880020  0.63350676  0.01384054  1
  H+  H165  1  0.93510699  0.09058672  0.23095104  1
  H+  H166  1  0.84281596  0.70770682  0.33143744  1
  H+  H167  1  0.94688992  0.42900074  0.88989612  1
  H+  H168  1  0.53038705  0.39489506  0.83181808  1
  H+  H169  1  0.65282808  0.86638824  0.85819057  1
  H+  H170  1  0.14348698  0.43535763  0.10362046  1
  H+  H171  1  0.12206584  0.63092158  0.66125004  1
  H+  H172  1  0.57808714  0.16067499  0.76981871  1
  H+  H173  1  0.28363290  0.38023124  1.00200081  1
  H+  H174  1  0.77768546  0.88220660  0.84260148  1
  H+  H175  1  0.38142263  0.15653200  0.34030060  1
  H+  H176  1  0.94336435  0.13614080  0.66341224  1
  H+  H177  1  0.51366044  0.38345001  0.49538980  1
  H+  H178  1  0.62730671  0.47828922  0.16141465  1
  H+  H179  1  0.88130107  0.59715812  0.49045563  1
  H+  H180  1  0.16061346  0.11930946  0.66204705  1
  H+  H181  1  0.64459629  0.27615097  0.17068784  1
  H+  H182  1  0.09285113  0.66434730  0.89684576  1
  H+  H183  1  0.12499064  0.34691528  0.84763293  1
  H+  H184  1  0.51623861  0.63445472  0.83515064  1
  H+  H185  1  0.89432484  0.77535095  1.00072968  1
  H+  H186  1  0.14831317  1.03319218  0.17466602  1
  H+  H187  1  0.89646995  0.52048975  0.16416075  1
  H+  H188  1  0.84962832  0.98872302  0.68988360  1
  H+  H189  1  0.39111804  0.11810127  0.66163542  1
  H+  H190  1  0.63842462  0.77042252  0.84978866  1
  H+  H191  1  0.39997428  0.60385116  1.01777524  1
  H+  H192  1  0.74105379  0.61416477  0.33351587  1
  H+  H193  1  0.11626547  0.64095209  0.49366558  1
  H+  H194  1  0.38253751  0.22992892  1.01601885  1
  H+  H195  1  0.27921093  0.12765964  0.49393403  1
  H+  H196  1  0.13689821  0.77203993  0.17503714  1
  H+  H197  1  0.89351930  0.78302755  0.84646019  1
  H+  H198  1  0.65712606  0.31952332  0.90874334  1
  H+  H199  1  0.60256233  0.22575980  0.67773816  1
  H+  H200  1  0.01152745  0.12189102  0.17156561  1
  H+  H201  1  0.85427446  0.71278332  0.48152177  1
  H+  H202  1  0.84138074  0.19714493  0.02137325  1
  H+  H203  1  0.18788299  0.77057495  1.03126499  1
  H+  H204  1  0.86724005  0.23911440  0.15909851  1
  H+  H205  1  0.62577863  0.11781737  0.65094023  1
  H+  H206  1  0.63782570  0.37281007  0.51425699  1
  H+  H207  1  0.39231864  0.62527132  0.85026597  1
  H+  H208  1  0.87045061  0.63398855  1.00691811  1
  H+  H209  1  0.28784412  0.14349435  0.67553660  1
  H+  H210  1  0.69495182  0.35645041  0.84189856  1
  H+  H211  1  0.42480901  0.99926831  0.03134470  1
  H+  H212  1  0.03160581  0.39033237  0.01637654  1
  H+  H213  1  0.34935326  0.78785518  0.92853334  1
  H+  H214  1  0.61302990  0.72005567  0.32780987  1
  H+  H215  1  0.37447230  0.23694018  0.17064092  1
  H+  H216  1  0.72296942  0.62117453  0.84540669  1
  H+  H217  1  0.79556953  0.89711704  0.45747585  1
  H+  H218  1  0.85679293  0.87638781  0.01447485  1
  H+  H219  1  0.38193962  0.64906390  0.67317592  1
  H+  H220  1  0.65506074  0.77769259  0.17304124  1
  H+  H221  1  0.90567788  0.87023026  0.64408918  1
  H+  H222  1  -0.00349827  0.61154015  0.16475559  1
  H+  H223  1  0.36197147  0.88273367  0.48420137  1
  H+  H224  1  0.63144271  0.03269315  0.63239610  1
  H+  H225  1  0.89160411  0.27950274  0.65191305  1
  H+  H226  1  0.14315956  0.77525759  0.50950979  1
  H+  H227  1  0.26689198  0.88207570  0.50011832  1
  H+  H228  1  0.86279975  0.52470798  0.83169086  1
  H+  H229  1  0.65939434  0.86991279  0.16787725  1
  H+  H230  1  0.64523778  0.03398746  0.16379650  1
  H+  H231  1  0.74860548  0.80203728  0.61433812  1
  H+  H232  1  0.37218451  0.52947963  0.84498332  1
  H+  H233  1  0.03889547  0.14376983  0.02576527  1
  H+  H234  1  0.17357923  0.58400672  0.72443085  1
  H+  H235  1  0.13935381  0.01797031  0.50544699  1
  H+  H236  1  0.22587913  0.61174625  0.48157970  1
  H+  H237  1  0.61615565  0.13362897  0.33635084  1
  H+  H238  1  0.15720704  0.13101989  0.84326709  1
  H+  H239  1  0.86057105  0.24094733  0.48325707  1
  H+  H240  1  0.87254982  0.45830821  0.49679320  1
  H+  H241  1  0.38008911  0.37181103  0.66765753  1
  H+  H242  1  0.39138098  0.75128375  0.04039629  1
  H+  H243  1  1.01750841  0.38540837  0.33468867  1
  H+  H244  1  0.61453820  -0.00047916  0.97674721  1
  H+  H245  1  0.08147504  0.40510482  0.39091459  1
  H+  H246  1  1.02899278  0.62990025  0.34352264  1
  H+  H247  1  0.02970226  0.13708092  0.49835130  1
  H+  H248  1  0.36753480  0.21493086  0.50369902  1
  H+  H249  1  0.47579200  0.11262841  0.32552389  1
  H+  H250  1  0.38181574  0.01572309  0.84823468  1
  H+  H251  1  0.71013989  0.08228701  1.00021190  1
  H+  H252  1  0.84752902  0.11205502  0.02348300  1
  H+  H253  1  0.59945362  0.39097457  0.68090475  1
  H+  H254  1  0.15067439  0.51112190  0.82479914  1
  H+  H255  1  0.71579878  0.61186237  0.65364208  1
  H+  H256  1  0.84122884  0.40332896  0.81817817  1
  H+  H257  1  0.14794732  0.51637788  0.67281152  1
  H+  H258  1  -0.04085235  0.60235833  0.83886368  1
  H+  H259  1  0.48529003  0.82454227  0.16418523  1
  H+  H260  1  0.61523083  0.89421061  0.50409606  1
  H+  H261  1  0.36245272  -0.02825281  0.16846702  1
  H+  H262  1  0.16264061  1.03137747  0.66704874  1
  H+  H263  1  0.33424033  0.59415931  0.13527773  1
  H+  H264  1  0.12693728  0.14307529  0.16995961  1
  H+  H265  1  0.90163892  0.62060533  0.16194639  1
  H+  H266  1  0.90778000  0.37233768  0.65919140  1
  H+  H267  1  0.82360714  0.16056410  0.11411691  1
  H+  H268  1  0.44281116  0.26259313  0.84903251  1
  H+  H269  1  0.14856952  0.80562650  0.93097053  1
  H+  H270  1  0.64035205  0.36194923  1.00005738  1
  H+  H271  1  0.39084579  0.77918806  0.66938356  1
  H+  H272  1  0.27509888  0.39866223  0.66839186  1
  H+  H273  1  0.86437912  0.70418973  0.67649583  1
  H+  H274  1  0.11245368  0.17872621  0.73508483  1
  H+  H275  1  0.23604300  0.59809325  0.19127716  1
  H+  H276  1  0.13551825  0.89623437  0.68480616  1
  H+  H277  1  0.36487179  0.73566012  0.83842287  1
  H+  H278  1  0.08653398  0.03105677  0.32685514  1
  H+  H279  1  0.76259153  0.62646898  0.48520816  1
  H+  H280  1  0.85814384  0.46489084  0.65713827  1
  H+  H281  1  0.23908878  0.86827836  0.66709299  1
  H+  H282  1  0.53626105  0.39084682  0.16378664  1
  H+  H283  1  0.53043438  0.89010456  0.48112293  1
  H+  H284  1  0.62147181  0.64140100  1.01445156  1
  H+  H285  1  0.15766897  0.89211539  0.95170656  1
  H+  H286  1  0.60934489  0.63407719  0.67189602  1
  H+  H287  1  0.63547596  0.64927518  0.16282798  1
  H+  H288  1  0.44389659  0.32781768  0.94354596  1
  H+  H289  1  0.91761195  0.10768917  0.86784050  1
  H+  H290  1  0.91023306  0.57708776  0.93191003  1
  H+  H291  1  0.85003548  0.66121506  0.09843805  1
  H+  H292  1  0.66579741  0.82846334  0.94611403  1
  H+  H293  1  0.09032540  0.93691469  0.33838715  1
  H+  H294  1  0.34740305  0.17849877  0.11028422  1
  H+  H295  1  0.17736770  0.33237262  0.59262140  1
  H+  H296  1  0.24393018  0.63464197  1.00814704  1
  H+  H297  1  0.23728019  0.12345646  0.17359493  1
  H+  H298  1  0.08973948  0.41849453  0.75514297  1
  H+  H299  1  0.78135100  0.63464458  0.01128794  1
  H+  H300  1  0.07603335  0.16305931  0.39930393  1
  H+  H301  1  0.07845165  0.90044076  0.43302892  1
  H+  H302  1  0.93011606  0.08493335  0.60239518  1
  H+  H303  1  0.11251815  0.69617009  0.82930755  1
  H+  H304  1  0.66838697  0.09839269  0.93155675  1
  H+  H305  1  0.57598362  0.66299516  0.77545109  1
  H+  H306  1  0.44449195  0.35336160  0.23812575  1
  H+  H307  1  0.92016398  0.83691522  0.94286191  1
  H+  H308  1  0.67369278  0.83314476  0.26304560  1
  H+  H309  1  0.34591080  0.16944554  0.77017035  1
  H+  H310  1  0.98370257  0.61188814  0.98179997  1
  H+  H311  1  0.41382260  0.08589682  0.26754907  1
  H+  H312  1  0.84323850  0.91342006  0.10960001  1
  H+  H313  1  0.18654971  0.10100481  0.94253315  1
  H+  H314  1  0.36841041  0.92441235  0.07756102  1
  H+  H315  1  0.32134132  0.43526283  0.73227433  1
  H+  H316  1  0.36306503  0.33188409  0.51923379  1
  H+  H317  1  0.66594239  0.09739421  0.55394172  1
  H+  H318  1  0.59543355  0.36913890  0.33214477  1
  H+  H319  1  0.45482599  0.90074552  1.03365924  1
  H+  H320  1  0.91298427  0.30067867  0.96027299  1
  H+  H321  1  0.92638560  0.07367197  0.96614410  1
  H+  H322  1  0.98415500  0.36815023  0.20094761  1
  H+  H323  1  0.41888240  0.58455456  0.94680187  1
  H+  H324  1  0.10556066  0.67167708  0.10600424  1
  H+  H325  1  0.82113400  0.68045785  0.77430233  1
  H+  H326  1  0.19134866  0.60832978  0.25049779  1
  H+  H327  1  0.57170672  0.65431685  0.38288573  1
  H+  H328  1  0.82068499  0.40169350  0.40761536  1
  H+  H329  1  0.61463079  0.97421436  0.33201541  1
  H+  H330  1  0.59725867  0.41888726  0.07178123  1
  H+  H331  1  0.80050487  0.41449491  0.75843225  1
  H+  H332  1  0.61585825  0.72439478  0.68033591  1
  H+  H333  1  0.38495448  0.87947625  0.33498673  1
  H+  H334  1  0.59755837  0.67646160  0.10758333  1
  H+  H335  1  0.96479105  0.82737310  0.32721657  1
  H+  H336  1  0.67690181  0.57951363  0.23020210  1
  H+  H337  1  0.41227723  0.80914520  0.52884221  1
  H+  H338  1  0.15302362  0.04001464  0.84887125  1
  H+  H339  1  0.66717656  0.32845178  0.26728144  1
  H+  H340  1  0.61934888  0.50609991  0.32279573  1
  H+  H341  1  0.72092385  0.36284243  0.52114540  1
  H+  H342  1  0.59039857  0.91598396  0.39126415  1
  H+  H343  1  0.59655014  0.86935466  0.73427694  1
  H+  H344  1  0.57599292  0.15602987  0.41897336  1
  H+  H345  1  0.35712001  0.18515319  0.40182020  1
  H+  H346  1  0.83541743  0.16404499  0.39531020  1
  H+  H347  1  0.18456993  0.58053521  0.54609522  1
  H+  H348  1  0.09978061  0.18119636  0.11252208  1
  H+  H349  1  0.34239371  0.41025281  0.10104987  1
  H+  H350  1  0.83242017  0.13543463  0.67360428  1
  H+  H351  1  0.83847329  0.41508704  0.06510513  1
  H+  H352  1  0.08887618  0.67020098  0.40253384  1
  H+  H353  1  0.88824000  0.32198909  0.27324156  1
  H+  H354  1  0.62336590  0.52347966  0.49837568  1
  H+  H355  1  0.92366616  0.81807091  0.22824371  1
  H+  H356  1  0.56630475  0.40722897  0.43324244  1
  H+  H357  1  0.65722313  0.58154264  0.59288372  1
  H+  H358  1  0.98874965  0.94448581  0.61372404  1
  H+  H359  1  0.14103180  0.64636817  -0.01732412  1
  H+  H360  1  0.42098485  0.07808463  0.56724893  1
  H+  H361  1  0.41001741  0.32797966  0.57829537  1
  H+  H362  1  0.12420142  0.38168865  0.66333659  1
  H+  H363  1  0.37756414  0.83404475  0.61913704  1
  H+  H364  1  0.92611070  0.57043734  0.27409736  1
  H+  H365  1  0.81075055  0.64788389  0.39562502  1
  H+  H366  1  0.34714947  0.58061377  0.20639790  1
  H+  H367  1  0.64932095  0.33911303  0.60967084  1
  H+  H368  1  0.10541280  0.92284389  0.78591022  1
  H+  H369  1  0.36791225  0.89411654  0.69799443  1
  H+  H370  1  0.66264210  0.08139587  0.26330231  1
  H+  H371  1  0.20152801  0.14702721  0.26620329  1
  H+  H372  1  0.57747639  0.89834825  0.73322146  1
  H+  H373  1  0.35319062  0.68802847  0.77176450  1
  H+  H374  1  0.32098445  0.43177684  0.40901355  1
  H+  H375  1  0.07801181  0.66388677  0.70613428  1
  H+  H376  1  0.85816206  0.92825945  0.37048343  1
  H+  H377  1  0.76730272  0.87898001  0.01783211  1
  H+  H378  1  0.17585160  0.07795802  0.56493868  1
  H+  H379  1  0.32678713  0.91842035  0.75356266  1
  H+  H380  1  0.57108439  0.44289012  0.76182645  1
  H+  H381  1  0.91801196  0.82043869  0.55433835  1
  H+  H382  1  0.09845859  0.92126108  0.09877191  1
  H+  H383  1  0.38713265  0.81592396  0.27712713  1
  O2-  O384  1  0.09279834  0.17249402  0.15790771  1
  O2-  O385  1  0.08889156  0.16588786  0.48186679  1
  O2-  O386  1  0.10722746  0.18198923  0.80983851  1
  O2-  O387  1  0.09372673  0.44013095  0.09032264  1
  O2-  O388  1  0.08591683  0.40564745  0.46418053  1
  O2-  O389  1  0.09009673  0.43031187  0.80008956  1
  O2-  O390  1  0.09150607  0.65838499  0.14968516  1
  O2-  O391  1  0.08918838  0.67605114  0.48323039  1
  O2-  O392  1  0.08664745  0.64397710  0.85399064  1
  O2-  O393  1  0.09632223  0.92167882  0.14409123  1
  O2-  O394  1  0.07800707  0.90673733  0.47830022  1
  O2-  O395  1  0.09612708  0.92654209  0.83020462  1
  O2-  O396  1  0.34226329  0.17631842  0.15568562  1
  O2-  O397  1  0.34192372  0.15770783  0.48353987  1
  O2-  O398  1  0.34844120  0.16524598  0.81578097  1
  O2-  O399  1  0.34192918  0.41005995  0.14608950  1
  O2-  O400  1  0.33580466  0.43349633  0.45555610  1
  O2-  O401  1  0.30525129  0.43590936  0.80947793  1
  O2-  O402  1  0.37208078  0.64063559  0.06864217  1
  O2-  O403  1  0.32748966  0.66527290  0.44810974  1
  O2-  O404  1  0.34007021  0.67981454  0.81643293  1
  O2-  O405  1  0.33446257  0.91199789  0.15199770  1
  O2-  O406  1  0.33065613  0.91641443  0.48448902  1
  O2-  O407  1  0.32223836  0.91452926  0.84290024  1
  O2-  O408  1  0.57448239  0.16838396  0.14498816  1
  O2-  O409  1  0.57352749  0.15220605  0.46737810  1
  O2-  O410  1  0.57220657  0.15829841  0.81532242  1
  O2-  O411  1  0.59681185  0.41676698  0.14818478  1
  O2-  O412  1  0.57217216  0.41716528  0.47783843  1
  O2-  O413  1  0.55944462  0.45116752  0.80653176  1
  O2-  O414  1  0.60827134  0.68358041  0.15224771  1
  O2-  O415  1  0.57318790  0.67891572  0.47292330  1
  O2-  O416  1  0.57768029  0.66520334  0.82045524  1
  O2-  O417  1  0.63316085  0.93966807  0.11718718  1
  O2-  O418  1  0.59379285  0.92142409  0.47571491  1
  O2-  O419  1  0.62910371  0.94601760  0.85023057  1
  O2-  O420  1  0.82568214  0.17715976  0.15715521  1
  O2-  O421  1  0.83957191  0.17931699  0.47513113  1
  O2-  O422  1  0.76290186  0.09225583  0.80061040  1
  O2-  O423  1  0.84419629  0.42392579  0.14538031  1
  O2-  O424  1  0.83246690  0.39459821  0.49290902  1
  O2-  O425  1  0.80082767  0.42141153  0.80288792  1
  O2-  O426  1  0.85643946  0.66109815  0.14457715  1
  O2-  O427  1  0.82134521  0.65214104  0.46674878  1
  O2-  O428  1  0.82544230  0.67783203  0.81924155  1
  O2-  O429  1  0.85097430  0.91809353  0.15483357  1
  O2-  O430  1  0.82280870  0.90852771  0.49736914  1
  O2-  O431  1  0.83626938  0.91769500  0.82396872  1
  O2-  O432  1  0.17591556  0.09405426  0.18783110  1
  O2-  O433  1  0.17316392  0.07854846  0.51958172  1
  O2-  O434  1  0.18784092  0.10168451  0.86042876  1
  O2-  O435  1  0.13435026  0.33580222  0.22126700  1
  O2-  O436  1  0.17828376  0.33325998  0.51605619  1
  O2-  O437  1  0.16587869  0.32816232  0.85793444  1
  O2-  O438  1  0.20612790  0.62862451  0.20755441  1
  O2-  O439  1  0.16995099  0.58373466  0.50390849  1
  O2-  O440  1  0.18680519  0.57189707  0.84713383  1
  O2-  O441  1  0.16709709  0.83173410  0.19049407  1
  O2-  O442  1  0.17651903  0.83799618  0.52208087  1
  O2-  O443  1  0.17107576  0.86487880  0.91703513  1
  O2-  O444  1  0.41158529  0.08025354  0.19301447  1
  O2-  O445  1  0.41915040  0.07418317  0.52157744  1
  O2-  O446  1  0.41608563  0.08107979  0.85206264  1
  O2-  O447  1  0.43532469  0.34576375  0.19378696  1
  O2-  O448  1  0.40796385  0.32015560  0.53258279  1
  O2-  O449  1  0.49122132  0.31311815  0.86902667  1
  O2-  O450  1  0.30512029  0.55910258  0.17309423  1
  O2-  O451  1  0.40916618  0.59060307  0.50731223  1
  O2-  O452  1  0.41472404  0.58737812  0.86251404  1
  O2-  O453  1  0.34772497  0.78829675  0.22113994  1
  O2-  O454  1  0.41392744  0.82778477  0.48690333  1
  O2-  O455  1  0.39047970  0.81765261  0.89577640  1
  O2-  O456  1  0.66032175  0.08830835  0.18510960  1
  O2-  O457  1  0.66679726  0.09301277  0.50822593  1
  O2-  O458  1  0.69037097  0.14418268  0.88342347  1
  O2-  O459  1  0.67972768  0.33529467  0.18768796  1
  O2-  O460  1  0.66404860  0.34552641  0.53849195  1
  O2-  O461  1  0.64261351  0.31423062  0.86384300  1
  O2-  O462  1  0.68231837  0.58310777  0.18521901  1
  O2-  O463  1  0.65832128  0.58441570  0.51326974  1
  O2-  O464  1  0.66229555  0.58834387  0.86096184  1
  O2-  O465  1  0.68557919  0.84022938  0.18929308  1
  O2-  O466  1  0.67001269  0.82529284  0.56228822  1
  O2-  O467  1  0.67628745  0.82777227  0.86855333  1
  O2-  O468  1  0.94175677  0.08391577  0.18507867  1
  O2-  O469  1  0.91826568  0.08908231  0.52586195  1
  O2-  O470  1  0.90900436  0.08604253  0.82640925  1
  O2-  O471  1  0.95174912  0.35803037  0.16327321  1
  O2-  O472  1  0.88654355  0.35497522  0.50340335  1
  O2-  O473  1  0.93391981  0.40173461  0.84979323  1
  O2-  O474  1  0.93201342  0.58413227  0.17729405  1
  O2-  O475  1  0.91636777  0.57268636  0.50605210  1
  O2-  O476  1  0.89951246  0.58189308  0.85146021  1
  O2-  O477  1  0.92683959  0.82347412  0.18313663  1
  O2-  O478  1  0.91067122  0.81986066  0.50987412  1
  O2-  O479  1  0.92480853  0.84260774  0.86301129  1
  O2-  O480  1  0.21450008  0.18584180  0.30102244  1
  O2-  O481  1  0.18887180  0.08756241  0.64523296  1
  O2-  O482  1  0.18599038  0.09455598  0.98755594  1
  O2-  O483  1  0.14959762  0.33036182  0.28642469  1
  O2-  O484  1  0.17583575  0.33462806  0.63837067  1
  O2-  O485  1  0.17220326  0.33073292  0.97794923  1
  O2-  O486  1  0.17709885  0.58351329  0.32900036  1
  O2-  O487  1  0.17779830  0.58121874  0.68027212  1
  O2-  O488  1  0.18877608  0.60372895  0.98458681  1
  O2-  O489  1  0.16838862  0.82618809  0.31377875  1
  O2-  O490  1  0.18250335  0.84194937  0.64537479  1
  O2-  O491  1  0.12532486  0.73135376  1.03376937  1
  O2-  O492  1  0.41466021  0.08675285  0.31356627  1
  O2-  O493  1  0.41636704  0.08264136  0.64638888  1
  O2-  O494  1  0.47809018  0.12092309  1.03425526  1
  O2-  O495  1  0.48097632  0.36042980  0.32030440  1
  O2-  O496  1  0.40952226  0.33999732  0.65334940  1
  O2-  O497  1  0.43377333  0.33076460  0.98727361  1
  O2-  O498  1  0.40260834  0.59206088  0.29604477  1
  O2-  O499  1  0.41818622  0.59251252  0.63703377  1
  O2-  O500  1  0.42615217  0.57550589  0.99022183  1
  O2-  O501  1  0.41196552  0.84008608  0.32237735  1
  O2-  O502  1  0.41126308  0.84016147  0.65545979  1
  O2-  O503  1  0.48985361  0.86746895  1.03387496  1
  O2-  O504  1  0.66352495  0.07985537  0.30904644  1
  O2-  O505  1  0.66141709  0.09694641  0.62974790  1
  O2-  O506  1  0.65453179  0.06372444  0.97776578  1
  O2-  O507  1  0.65890664  0.32554279  0.31251115  1
  O2-  O508  1  0.64178827  0.33370778  0.65597458  1
  O2-  O509  1  0.66238513  0.32437574  0.98310870  1
  O2-  O510  1  0.65434365  0.56757377  0.30923435  1
  O2-  O511  1  0.65563853  0.58054627  0.63843318  1
  O2-  O512  1  0.67698111  0.58670573  0.98857919  1
  O2-  O513  1  0.67334494  0.83027730  0.30920270  1
  O2-  O514  1  0.78795017  0.81122487  0.64832941  1
  O2-  O515  1  0.65680255  0.83352034  0.99052382  1
  O2-  O516  1  0.92422506  0.09358182  0.30139870  1
  O2-  O517  1  0.93820206  0.08305818  0.64765920  1
  O2-  O518  1  0.91895167  0.07362262  1.01000021  1
  O2-  O519  1  0.90078313  0.32519056  0.31653749  1
  O2-  O520  1  0.92950868  0.33927581  0.63732562  1
  O2-  O521  1  0.91437222  0.31318495  1.00350963  1
  O2-  O522  1  0.92831419  0.57475870  0.31839638  1
  O2-  O523  1  0.91994602  0.56632162  0.63054674  1
  O2-  O524  1  0.92047881  0.57719819  0.97640847  1
  O2-  O525  1  0.90605847  0.80181048  0.30817302  1
  O2-  O526  1  0.96561849  0.88783655  0.63224837  1
  O2-  O527  1  0.92057595  0.83668322  0.98826260  1
  O2-  O528  1  0.10056288  0.17769314  0.03590399  1
  O2-  O529  1  0.06859289  0.16256950  0.35487117  1
  O2-  O530  1  0.11330723  0.17388070  0.68891292  1
  O2-  O531  1  0.09457413  0.42854491  0.02339457  1
  O2-  O532  1  0.07905513  0.41143268  0.34503254  1
  O2-  O533  1  0.09444179  0.41311355  0.67927740  1
  O2-  O534  1  0.10477127  0.67979009  -0.02353592  1
  O2-  O535  1  0.09055637  0.66505171  0.35757505  1
  O2-  O536  1  0.08749072  0.66098646  0.66267090  1
  O2-  O537  1  0.10294924  0.92220113  0.01425071  1
  O2-  O538  1  0.06698264  0.87931457  0.35583611  1
  O2-  O539  1  0.11255497  0.93055817  0.70436218  1
  O2-  O540  1  0.35543635  0.17042531  0.03348621  1
  O2-  O541  1  0.36857040  0.20004830  0.35817752  1
  O2-  O542  1  0.34766910  0.17490578  0.69302748  1
  O2-  O543  1  0.34377833  0.40633086  0.01695945  1
  O2-  O544  1  0.31276519  0.42752782  0.34148850  1
  O2-  O545  1  0.33313247  0.43327503  0.68766945  1
  O2-  O546  1  0.33810698  0.69523088  0.04604166  1
  O2-  O547  1  0.33074667  0.65463499  0.38194520  1
  O2-  O548  1  0.35329270  0.67943270  0.69291612  1
  O2-  O549  1  0.39611279  0.93622760  0.03643627  1
  O2-  O550  1  0.33849164  0.92100742  0.34959145  1
  O2-  O551  1  0.33391594  0.92211981  0.70889462  1
  O2-  O552  1  0.52673416  0.15373458  -0.02284123  1
  O2-  O553  1  0.58546416  0.16296598  0.35382277  1
  O2-  O554  1  0.57880376  0.16485094  0.69086551  1
  O2-  O555  1  0.59793350  0.42051051  0.02600957  1
  O2-  O556  1  0.56676964  0.40103923  0.34913003  1
  O2-  O557  1  0.57422069  0.42763738  0.69383820  1
  O2-  O558  1  0.58978856  0.67040028  0.02836647  1
  O2-  O559  1  0.57800929  0.65749584  0.33836423  1
  O2-  O560  1  0.58028701  0.66374445  0.69072549  1
  O2-  O561  1  0.53837164  0.89197268  -0.02427351  1
  O2-  O562  1  0.58370880  0.91290809  0.34652179  1
  O2-  O563  1  0.58338363  0.92589590  0.61289476  1
  O2-  O564  1  0.80846364  0.13530867  0.03219738  1
  O2-  O565  1  0.83110562  0.16226871  0.35000240  1
  O2-  O566  1  0.81167682  0.17423061  0.68517311  1
  O2-  O567  1  0.83941862  0.40859220  0.02010462  1
  O2-  O568  1  0.82020542  0.40661253  0.36280183  1
  O2-  O569  1  0.82322574  0.40542696  0.67425488  1
  O2-  O570  1  0.84301859  0.66496221  0.02533446  1
  O2-  O571  1  0.80544042  0.64713864  0.34907782  1
  O2-  O572  1  0.80849057  0.68754937  0.69425767  1
  O2-  O573  1  0.82798634  0.90684000  0.03267106  1
  O2-  O574  1  0.84376197  0.91160479  0.32809263  1
  O2-  O575  1  0.80045133  0.93772300  0.70810961  1
