# generated using pymatgen
data_H2O
_symmetry_space_group_name_H-M   'P 1'
_cell_length_a   17.99825143
_cell_length_b   17.99409674
_cell_length_c   21.99910383
_cell_angle_alpha   90.01229901
_cell_angle_beta   89.99895198
_cell_angle_gamma   120.00518276
_symmetry_Int_Tables_number   1
_chemical_formula_structural   H2O
_chemical_formula_sum   'H384 O192'
_cell_volume   6169.83132332
_cell_formula_units_Z   192
loop_
 _symmetry_equiv_pos_site_id
 _symmetry_equiv_pos_as_xyz
  1  'x, y, z'
loop_
 _atom_type_symbol
 _atom_type_oxidation_number
  H+  1.0
  O2-  -2.0
loop_
 _atom_site_type_symbol
 _atom_site_label
 _atom_site_symmetry_multiplicity
 _atom_site_fract_x
 _atom_site_fract_y
 _atom_site_fract_z
 _atom_site_occupancy
  H+  H0  1  0.73547230  0.11694386  0.99591423  1
  H+  H1  1  0.27283778  0.87651562  0.00710168  1
  H+  H2  1  0.13458503  0.11138157  0.99296816  1
  H+  H3  1  0.63530471  0.92598329  0.32845197  1
  H+  H4  1  0.94078744  0.32455372  0.91921952  1
  H+  H5  1  0.38561621  0.87422626  -0.00190484  1
  H+  H6  1  0.65193051  0.33287652  0.90753053  1
  H+  H7  1  0.12915060  0.75416690  0.65868446  1
  H+  H8  1  0.72426793  0.60829777  0.65765765  1
  H+  H9  1  0.62913447  0.39739996  0.68795409  1
  H+  H10  1  0.62841599  0.50911313  1.00461062  1
  H+  H11  1  0.16498259  0.57676361  0.56520321  1
  H+  H12  1  0.64879575  0.65553772  0.33087781  1
  H+  H13  1  0.40378507  0.15983382  0.47527399  1
  H+  H14  1  0.64132328  0.51307612  0.50061437  1
  H+  H15  1  0.08265153  0.10856775  0.48980023  1
  H+  H16  1  0.38327345  0.82806699  0.70627490  1
  H+  H17  1  0.78131622  0.63383648  0.15869765  1
  H+  H18  1  0.83695208  0.96643591  0.81587809  1
  H+  H19  1  0.11540535  0.26081728  0.83818366  1
  H+  H20  1  0.53955008  0.66372177  0.47656382  1
  H+  H21  1  0.39915043  0.28461726  0.65807406  1
  H+  H22  1  0.39570318  0.62435075  0.50932887  1
  H+  H23  1  0.47645899  0.36271123  0.85035186  1
  H+  H24  1  0.75945204  0.89466617  0.49386919  1
  H+  H25  1  0.85276680  0.72594406  0.82418363  1
  H+  H26  1  0.11108555  0.22533109  0.15168133  1
  H+  H27  1  0.81671201  0.43093429  0.32721717  1
  H+  H28  1  0.89892850  0.32444151  0.22722515  1
  H+  H29  1  0.88012129  0.00358418  0.31950950  1
  H+  H30  1  0.96309823  1.00943321  0.70380979  1
  H+  H31  1  0.51563416  0.63928041  0.31852912  1
  H+  H32  1  0.12681949  0.51591376  0.50701581  1
  H+  H33  1  0.47766348  0.86191629  0.84409952  1
  H+  H34  1  0.75291190  0.86162134  0.72686899  1
  H+  H35  1  0.64438626  0.03020920  0.99852065  1
  H+  H36  1  0.27401085  0.62798712  0.49047331  1
  H+  H37  1  0.52966348  0.63305423  0.16035060  1
  H+  H38  1  0.14312474  0.84920636  0.66296452  1
  H+  H39  1  0.60863341  0.15220017  0.83269395  1
  H+  H40  1  1.02058310  0.62762104  0.67740907  1
  H+  H41  1  0.37183272  0.62213018  1.01790038  1
  H+  H42  1  0.41291981  0.28486326  0.50436274  1
  H+  H43  1  0.88525097  0.61707645  0.81998942  1
  H+  H44  1  0.21722362  0.10923499  0.65516882  1
  H+  H45  1  0.81943421  0.61365596  0.32802001  1
  H+  H46  1  0.13822665  0.86014548  0.00129348  1
  H+  H47  1  0.50246626  0.88804008  0.32244065  1
  H+  H48  1  0.08728810  0.67641039  0.39609148  1
  H+  H49  1  0.90415979  0.58130021  0.88032644  1
  H+  H50  1  0.52525614  0.13945673  0.16675670  1
  H+  H51  1  0.52909863  0.63105629  1.00966474  1
  H+  H52  1  0.11719447  0.72594672  0.16863493  1
  H+  H53  1  0.88290190  0.85781425  0.16776583  1
  H+  H54  1  0.39259692  0.86479401  0.84509618  1
  H+  H55  1  0.88382531  0.76312713  0.99087834  1
  H+  H56  1  0.63185698  0.76582264  0.99706637  1
  H+  H57  1  0.48070242  0.14315425  0.84890314  1
  H+  H58  1  0.33398689  0.95359123  0.64622901  1
  H+  H59  1  0.24667293  0.82869883  0.69516063  1
  H+  H60  1  0.36909268  0.24911156  1.00366161  1
  H+  H61  1  0.90163812  0.54837325  0.34544805  1
  H+  H62  1  0.61051527  0.38624733  0.48167576  1
  H+  H63  1  0.55819446  0.88663914  0.68663279  1
  H+  H64  1  0.61206224  -0.02235758  0.51994428  1
  H+  H65  1  0.39322688  0.51485469  -0.00222719  1
  H+  H66  1  0.98176159  0.62815344  0.50377683  1
  H+  H67  1  0.40290696  0.77942696  0.47204564  1
  H+  H68  1  0.41946919  0.51588081  0.33646345  1
  H+  H69  1  0.82938615  0.71414760  0.32078755  1
  H+  H70  1  0.39724272  1.02519708  0.00101307  1
  H+  H71  1  0.49657471  0.36936452  0.65886779  1
  H+  H72  1  0.63680279  0.25073803  0.68483940  1
  H+  H73  1  0.75716130  0.37327027  0.48724329  1
  H+  H74  1  0.72164270  0.36935442  0.85530985  1
  H+  H75  1  -0.02170254  0.63628529  0.32943325  1
  H+  H76  1  0.95732548  0.10239224  0.83221533  1
  H+  H77  1  0.38087009  0.87949022  0.33487951  1
  H+  H78  1  0.22215617  0.42173071  0.50772898  1
  H+  H79  1  0.22256442  0.60413273  0.84953953  1
  H+  H80  1  0.36593741  0.23360670  0.14880354  1
  H+  H81  1  0.07325406  0.36486124  0.33624284  1
  H+  H82  1  0.66533286  0.09868715  0.90705588  1
  H+  H83  1  0.74806046  0.61470048  0.50331016  1
  H+  H84  1  0.64598623  0.49135916  0.33255004  1
  H+  H85  1  0.27475460  0.14447129  0.15282642  1
  H+  H86  1  0.55301980  0.40758210  0.32333936  1
  H+  H87  1  0.37930005  0.51012467  0.84740525  1
  H+  H88  1  0.33083774  0.17378344  0.72188720  1
  H+  H89  1  0.11217045  -0.02659756  1.00390580  1
  H+  H90  1  0.08664592  0.19812300  0.48228417  1
  H+  H91  1  0.27266995  0.37968572  0.00104857  1
  H+  H92  1  0.71976888  0.59891248  1.00073180  1
  H+  H93  1  0.63965214  0.11899780  0.50369087  1
  H+  H94  1  0.61236692  0.47534570  0.83228039  1
  H+  H95  1  0.59719367  0.90429842  0.18910569  1
  H+  H96  1  0.15845861  0.64983734  0.31901849  1
  H+  H97  1  0.47345158  0.86179339  0.17094621  1
  H+  H98  1  -0.09053020  0.87769521  0.65451404  1
  H+  H99  1  0.76756375  0.63469584  0.82956935  1
  H+  H100  1  0.02257141  0.13527658  0.15086017  1
  H+  H101  1  0.94829655  0.34654634  0.32150703  1
  H+  H102  1  0.10840352  0.71560031  0.83252250  1
  H+  H103  1  0.88775805  0.02324855  0.15851877  1
  H+  H104  1  0.85182665  0.37257480  0.49349402  1
  H+  H105  1  0.49987243  0.15453241  0.65325924  1
  H+  H106  1  0.39792688  0.10594316  0.32237858  1
  H+  H107  1  0.84262756  0.72246247  0.49493636  1
  H+  H108  1  0.27870373  0.88419053  0.16063036  1
  H+  H109  1  0.42453663  0.38465719  0.50737666  1
  H+  H110  1  0.64033860  0.76408058  0.16416458  1
  H+  H111  1  0.89306323  0.33543287  0.56987343  1
  H+  H112  1  0.87407964  0.12735067  0.66809949  1
  H+  H113  1  0.38868538  0.40044713  0.68565065  1
  H+  H114  1  0.41662307  0.29689522  0.30207480  1
  H+  H115  1  0.76919658  0.14799616  0.83558208  1
  H+  H116  1  0.34037992  0.91264278  0.77624433  1
  H+  H117  1  0.52897507  0.88838422  0.49979089  1
  H+  H118  1  0.86959985  0.27291865  0.50877255  1
  H+  H119  1  0.51971165  0.38087578  0.11079339  1
  H+  H120  1  0.16661884  0.86867201  0.51385938  1
  H+  H121  1  0.66852195  0.57253372  0.90901297  1
  H+  H122  1  0.48675819  0.87671154  0.99946266  1
  H+  H123  1  0.40858462  0.86955442  0.46713688  1
  H+  H124  1  0.13323934  0.60454756  0.84824332  1
  H+  H125  1  -0.02672407  0.85419842  -0.00561916  1
  H+  H126  1  0.87068789  0.28058390  0.66250034  1
  H+  H127  1  0.07256560  0.17101394  0.76764297  1
  H+  H128  1  0.12856193  0.25566251  0.98283757  1
  H+  H129  1  0.01831613  0.62890454  0.82489921  1
  H+  H130  1  1.07999562  0.61971145  0.99953421  1
  H+  H131  1  0.63604323  0.59964427  0.84908207  1
  H+  H132  1  0.14867658  0.31893067  0.90871696  1
  H+  H133  1  0.64774183  0.37787660  0.14619807  1
  H+  H134  1  0.21143030  0.33334106  0.49010464  1
  H+  H135  1  0.62377476  0.07152592  0.32589684  1
  H+  H136  1  0.39962194  0.03363916  0.49479290  1
  H+  H137  1  0.09811219  0.37506813  0.15354820  1
  H+  H138  1  0.09686546  0.46266217  0.14757329  1
  H+  H139  1  0.65572423  0.61767395  0.17802908  1
  H+  H140  1  0.06941222  0.36711273  0.48923202  1
  H+  H141  1  -0.02715803  0.86112908  0.17201997  1
  H+  H142  1  0.63011896  0.87126416  0.52602438  1
  H+  H143  1  0.01371107  0.15417518  0.67615949  1
  H+  H144  1  0.21677477  0.11719409  0.83634565  1
  H+  H145  1  0.39451398  0.74124227  0.34515104  1
  H+  H146  1  0.32910837  0.17505600  0.06478888  1
  H+  H147  1  0.64465599  0.85313046  0.14944817  1
  H+  H148  1  0.77803011  0.88364110  0.15226190  1
  H+  H149  1  0.22292731  0.85428837  0.85181756  1
  H+  H150  1  0.38960958  1.02479398  0.16198988  1
  H+  H151  1  0.29547365  0.89323132  0.49014057  1
  H+  H152  1  0.10640153  0.98120995  0.15571185  1
  H+  H153  1  0.13743155  0.85900828  0.84774160  1
  H+  H154  1  0.35963870  0.62214646  0.83815471  1
  H+  H155  1  0.10060245  0.47980885  0.67799971  1
  H+  H156  1  0.93846423  0.85716100  0.49859931  1
  H+  H157  1  0.36941900  0.15911050  0.66110550  1
  H+  H158  1  0.39847225  0.61623795  0.66500204  1
  H+  H159  1  -0.02363555  0.36269743  0.85445236  1
  H+  H160  1  0.60851954  0.88154047  1.01104228  1
  H+  H161  1  0.11135832  0.89709526  0.16145503  1
  H+  H162  1  0.39019430  0.61107208  0.17449622  1
  H+  H163  1  0.36641557  0.70467736  0.69232935  1
  H+  H164  1  0.61146778  0.24197553  0.83098119  1
  H+  H165  1  0.02679312  0.64119139  0.16680821  1
  H+  H166  1  0.09572598  0.87199807  0.32891135  1
  H+  H167  1  0.84220568  0.35648024  0.33279612  1
  H+  H168  1  0.73837528  0.37899559  0.72951970  1
  H+  H169  1  0.71645945  0.10763118  0.16004948  1
  H+  H170  1  0.37106742  0.19558181  0.37192041  1
  H+  H171  1  0.53336710  0.14164942  0.01722344  1
  H+  H172  1  -0.03769301  0.35640133  0.16850746  1
  H+  H173  1  0.86961309  0.72211480  0.15387827  1
  H+  H174  1  0.21946263  0.36136529  0.17025050  1
  H+  H175  1  0.22897301  0.68743145  0.26898530  1
  H+  H176  1  0.33445192  0.42706542  0.34765558  1
  H+  H177  1  0.18331844  0.07660400  0.50375001  1
  H+  H178  1  0.13259666  0.96803390  0.67865897  1
  H+  H179  1  0.76944592  0.14571257  0.49548112  1
  H+  H180  1  0.75650044  0.91806337  0.33863887  1
  H+  H181  1  0.83546010  0.65811288  0.06127815  1
  H+  H182  1  0.62795166  0.11358408  0.16690375  1
  H+  H183  1  0.38952285  0.36766160  0.15692593  1
  H+  H184  1  0.63294162  0.26229439  0.49032924  1
  H+  H185  1  0.28329761  0.85239510  0.32977158  1
  H+  H186  1  0.85163809  0.39324720  0.79904674  1
  H+  H187  1  0.13722178  0.11678505  0.16699772  1
  H+  H188  1  0.59465029  0.42664591  0.42295830  1
  H+  H189  1  0.85163288  0.62572734  0.99634584  1
  H+  H190  1  0.62585475  0.74939850  0.47917774  1
  H+  H191  1  0.85343914  0.37538961  0.91760729  1
  H+  H192  1  0.12644989  0.72635233  0.49164240  1
  H+  H193  1  0.23357379  0.95319238  0.20956545  1
  H+  H194  1  0.85999771  0.25447550  0.32058430  1
  H+  H195  1  0.10174326  0.13836883  0.82720129  1
  H+  H196  1  0.60563913  0.81052167  0.82191514  1
  H+  H197  1  0.42529577  0.09771219  0.95094566  1
  H+  H198  1  0.70680031  0.84929936  0.83284963  1
  H+  H199  1  0.63365589  0.27477534  0.99821103  1
  H+  H200  1  0.86558314  0.12798415  1.00515932  1
  H+  H201  1  0.50072062  0.63279931  0.66026765  1
  H+  H202  1  0.63155782  1.04435151  0.84579669  1
  H+  H203  1  0.38474792  0.01177921  0.33304636  1
  H+  H204  1  0.76875258  0.87795762  0.00137507  1
  H+  H205  1  0.12126274  0.35811406  0.84097812  1
  H+  H206  1  0.87432770  0.48886494  0.16505819  1
  H+  H207  1  0.86297276  0.64233041  0.49768991  1
  H+  H208  1  -0.04272553  0.10762314  0.50851703  1
  H+  H209  1  0.32351033  0.17029403  0.46299969  1
  H+  H210  1  0.42292741  0.63518551  0.32577326  1
  H+  H211  1  0.58609238  0.18394746  0.73691208  1
  H+  H212  1  0.84840956  -0.01770274  0.49712870  1
  H+  H213  1  0.15624162  0.03010432  0.32598124  1
  H+  H214  1  0.91466706  0.26402760  0.00766786  1
  H+  H215  1  0.61289559  0.99406203  0.15953853  1
  H+  H216  1  0.26758438  0.37667595  0.83232954  1
  H+  H217  1  0.61788530  0.63137887  1.00934833  1
  H+  H218  1  0.90378716  0.09206441  0.57064284  1
  H+  H219  1  0.70167309  0.32675077  0.31219396  1
  H+  H220  1  0.10330555  0.24527982  0.31910135  1
  H+  H221  1  0.11299320  0.47393582  0.83814148  1
  H+  H222  1  0.83020687  0.17922105  0.74187941  1
  H+  H223  1  0.34825592  0.42994152  0.48730912  1
  H+  H224  1  0.85726686  0.87526621  0.00083973  1
  H+  H225  1  0.42811406  0.55384605  0.51041663  1
  H+  H226  1  0.03314889  0.89253527  0.83430744  1
  H+  H227  1  0.19018791  0.88744067  0.34687295  1
  H+  H228  1  -0.05445876  0.37707145  0.66109704  1
  H+  H229  1  0.10626458  0.74337715  0.34183940  1
  H+  H230  1  0.59565514  0.16397933  0.41935523  1
  H+  H231  1  0.85448023  0.22099054  0.15492971  1
  H+  H232  1  0.29698581  0.15696007  0.32238836  1
  H+  H233  1  0.84746275  0.72461006  0.66678576  1
  H+  H234  1  0.62862715  0.34903214  0.31284293  1
  H+  H235  1  0.63820977  0.12537162  0.66683646  1
  H+  H236  1  0.05039762  0.86335768  0.46688718  1
  H+  H237  1  0.86375875  0.22890045  0.84095442  1
  H+  H238  1  0.64748058  0.78886979  0.31585159  1
  H+  H239  1  0.86026772  0.13446940  0.15699088  1
  H+  H240  1  0.03633022  0.91114384  0.41074995  1
  H+  H241  1  0.11092231  0.23041453  0.67402194  1
  H+  H242  1  0.62868267  0.36191910  0.99842027  1
  H+  H243  1  0.22392368  0.60167387  0.66519933  1
  H+  H244  1  0.77018521  0.14946816  0.68170963  1
  H+  H245  1  0.93777583  0.82431760  0.32446704  1
  H+  H246  1  0.12914183  0.60314551  0.16608975  1
  H+  H247  1  0.39689157  0.05330704  0.85346102  1
  H+  H248  1  0.42737667  0.82571631  0.64631453  1
  H+  H249  1  0.58224969  0.41984008  0.73961618  1
  H+  H250  1  0.20989248  0.66458844  0.99034419  1
  H+  H251  1  0.85743477  0.48414550  0.80517429  1
  H+  H252  1  0.88111116  0.48555224  0.69927040  1
  H+  H253  1  0.38627418  0.35772286  0.85421350  1
  H+  H254  1  0.18167208  0.33820104  0.32586659  1
  H+  H255  1  0.09201507  -0.00586398  0.49857805  1
  H+  H256  1  0.63644353  0.72802339  0.68716889  1
  H+  H257  1  0.62433299  0.92313486  0.84414485  1
  H+  H258  1  0.60713334  0.19860104  0.32334680  1
  H+  H259  1  0.63543487  0.51938380  0.66226922  1
  H+  H260  1  0.83971831  0.88006254  0.81742430  1
  H+  H261  1  0.35958702  0.47518591  0.16028359  1
  H+  H262  1  0.60718361  0.70028036  0.83205367  1
  H+  H263  1  0.35540492  0.13574528  0.82342599  1
  H+  H264  1  0.04609383  0.01945745  0.67409339  1
  H+  H265  1  0.88855594  0.61443144  0.17224101  1
  H+  H266  1  0.11504331  0.33621855  0.98559986  1
  H+  H267  1  0.95325247  0.93537279  0.87151631  1
  H+  H268  1  0.11603355  0.63355553  0.48992755  1
  H+  H269  1  0.61936884  0.63309597  0.67254650  1
  H+  H270  1  0.30443872  0.65816650  0.33535896  1
  H+  H271  1  0.77213720  0.40305277  0.15944470  1
  H+  H272  1  0.27249051  0.62931552  0.16298250  1
  H+  H273  1  0.64381943  0.03830291  0.66553887  1
  H+  H274  1  0.01957414  0.12915089  -0.00069243  1
  H+  H275  1  -0.00592341  0.38559915  0.49636848  1
  H+  H276  1  0.48124291  0.36108554  1.00665167  1
  H+  H277  1  0.88408635  0.01281917  0.98796977  1
  H+  H278  1  0.28057402  0.61572555  0.02051575  1
  H+  H279  1  0.26885894  0.14783938  0.00144253  1
  H+  H280  1  1.01839265  0.10189913  0.32323387  1
  H+  H281  1  0.03626414  0.94211102  0.31821574  1
  H+  H282  1  0.33266628  -0.02887766  0.67721997  1
  H+  H283  1  0.76639030  0.11750744  0.34049402  1
  H+  H284  1  0.53310075  0.13923423  0.47781737  1
  H+  H285  1  0.42758102  0.39032787  0.30758241  1
  H+  H286  1  0.77283777  0.37025829  0.95267796  1
  H+  H287  1  0.85219001  0.85854759  0.49993350  1
  H+  H288  1  0.59003096  0.66100604  0.10153218  1
  H+  H289  1  0.04296595  0.88790824  0.68886729  1
  H+  H290  1  0.42278979  0.33421920  0.94142646  1
  H+  H291  1  0.18311682  0.38389287  0.65193398  1
  H+  H292  1  0.13266039  0.02817484  0.84191319  1
  H+  H293  1  0.08668349  0.71061357  0.99766159  1
  H+  H294  1  0.04846120  0.40249073  0.39299479  1
  H+  H295  1  0.16455166  0.82687229  0.94297477  1
  H+  H296  1  0.66986770  0.09964912  0.56819108  1
  H+  H297  1  0.42895758  0.33761470  0.57905645  1
  H+  H298  1  0.07490699  0.41869687  0.77650351  1
  H+  H299  1  0.07980011  0.65617768  0.73747911  1
  H+  H300  1  0.92107339  0.84849064  0.90504136  1
  H+  H301  1  0.66881476  0.56947791  0.56572726  1
  H+  H302  1  0.86041488  0.03387794  0.66066272  1
  H+  H303  1  0.88974429  0.80205141  0.25902023  1
  H+  H304  1  0.58158850  0.91449327  0.07066861  1
  H+  H305  1  0.61164269  0.68799801  0.38590882  1
  H+  H306  1  0.69714924  0.59918362  0.23702872  1
  H+  H307  1  0.92454019  0.59835954  0.56340481  1
  H+  H308  1  0.33565647  0.40916878  0.77748343  1
  H+  H309  1  0.42518012  0.84399992  0.93538193  1
  H+  H310  1  0.33786719  0.65860207  0.10723682  1
  H+  H311  1  0.82388510  0.16754823  0.39752820  1
  H+  H312  1  0.08019078  0.91626473  0.06405637  1
  H+  H313  1  0.34124433  0.92177304  0.42523222  1
  H+  H314  1  0.08045403  0.16446514  0.05901451  1
  H+  H315  1  0.75443572  0.40274045  0.66230818  1
  H+  H316  1  0.41275526  0.06717741  0.64780986  1
  H+  H317  1  0.38691746  0.76784802  0.17555885  1
  H+  H318  1  0.62513397  0.14818063  0.01588577  1
  H+  H319  1  0.24840171  0.77272288  0.74951266  1
  H+  H320  1  0.43654102  0.84076591  0.26638534  1
  H+  H321  1  0.81819011  0.39618802  0.42533228  1
  H+  H322  1  0.32802116  0.63455781  0.74278115  1
  H+  H323  1  0.20725441  0.34392267  0.59805880  1
  H+  H324  1  0.91484819  0.58584152  0.23483988  1
  H+  H325  1  0.33335180  0.90409758  0.06713069  1
  H+  H326  1  0.42196955  0.57562149  0.93952357  1
  H+  H327  1  0.95186164  0.59955891  0.97023996  1
  H+  H328  1  0.44092765  0.34926226  0.20730437  1
  H+  H329  1  0.43020144  0.58703991  0.23057018  1
  H+  H330  1  0.47052059  0.59592078  0.84329187  1
  H+  H331  1  0.83641327  0.15951877  0.06530423  1
  H+  H332  1  0.86311427  0.38905433  0.16202328  1
  H+  H333  1  0.40642895  0.81989687  0.57248476  1
  H+  H334  1  0.17328272  0.87167110  0.24782191  1
  H+  H335  1  0.36344964  0.87597184  0.16002576  1
  H+  H336  1  0.16657023  0.08631081  0.93325082  1
  H+  H337  1  0.15353387  0.56477505  0.22158240  1
  H+  H338  1  0.38614568  0.11113389  0.16112971  1
  H+  H339  1  0.18435746  0.82688364  0.57059959  1
  H+  H340  1  0.17069837  0.08800612  0.22574731  1
  H+  H341  1  0.90816515  0.07172548  0.92853521  1
  H+  H342  1  0.82609930  0.66855708  0.72754561  1
  H+  H343  1  0.86635430  0.51008902  0.95247958  1
  H+  H344  1  0.32528235  0.41632224  0.10032608  1
  H+  H345  1  0.17040862  0.58799056  0.94472172  1
  H+  H346  1  0.60790218  0.38550121  0.83041745  1
  H+  H347  1  0.04339540  0.36808663  0.06261537  1
  H+  H348  1  0.43847554  0.60800456  0.59315829  1
  H+  H349  1  0.43397255  0.98633449  0.78967415  1
  H+  H350  1  0.87024614  0.10515726  0.83653530  1
  H+  H351  1  0.13816711  0.60953466  0.66422010  1
  H+  H352  1  0.29554419  0.38529425  0.68254400  1
  H+  H353  1  0.65205434  0.82293239  0.93740511  1
  H+  H354  1  0.06200368  0.37788638  0.67787594  1
  H+  H355  1  0.66884001  0.82347763  0.56707614  1
  H+  H356  1  0.65521337  0.31815512  0.55207506  1
  H+  H357  1  0.88127862  0.61015474  0.66226924  1
  H+  H358  1  0.83640720  0.91243477  0.09285665  1
  H+  H359  1  0.60034089  0.93317251  0.77599223  1
  H+  H360  1  0.85897108  0.14822538  0.49595182  1
  H+  H361  1  0.67056912  0.84411116  0.25550043  1
  H+  H362  1  0.41190144  0.46073836  0.43095781  1
  H+  H363  1  0.40453250  0.86038835  0.57904382  1
  H+  H364  1  0.28193481  0.06912385  0.78260721  1
  H+  H365  1  0.93798533  -0.01660867  0.27305900  1
  H+  H366  1  0.36057981  0.37814135  0.00850006  1
  H+  H367  1  0.58152563  0.64590556  0.77103032  1
  H+  H368  1  0.06391430  0.14050878  0.38786973  1
  H+  H369  1  0.58973495  0.17792357  0.11130581  1
  H+  H370  1  0.92016617  0.07282195  0.21993436  1
  H+  H371  1  0.09661270  0.91572734  0.77695090  1
  H+  H372  1  0.66332891  0.34515686  0.21212361  1
  H+  H373  1  0.15011810  0.06009772  0.60123143  1
  H+  H374  1  0.86853117  0.82545398  0.59334758  1
  H+  H375  1  0.65365403  0.90367008  0.68765887  1
  H+  H376  1  0.15041146  0.32299348  0.22508732  1
  H+  H377  1  0.14401049  0.11129242  0.32424555  1
  H+  H378  1  0.52194013  0.11362858  0.34167528  1
  H+  H379  1  0.33788893  0.65757937  0.43219388  1
  H+  H380  1  0.43463369  0.10172856  0.55141525  1
  H+  H381  1  0.77077495  0.83568099  0.66318700  1
  H+  H382  1  0.81230304  0.94611228  0.40070026  1
  H+  H383  1  0.36007070  0.71140106  0.83424096  1
  O2-  O384  1  0.08370135  0.16469471  0.13630367  1
  O2-  O385  1  0.05422905  0.13821267  0.46979114  1
  O2-  O386  1  0.06956155  0.16760603  0.81374583  1
  O2-  O387  1  0.06370347  0.40017208  0.13700467  1
  O2-  O388  1  0.05422967  0.41062739  0.47941440  1
  O2-  O389  1  0.08128312  0.41364550  0.82116707  1
  O2-  O390  1  0.08780708  0.66715115  0.15390472  1
  O2-  O391  1  0.09064844  0.66811572  0.47430774  1
  O2-  O392  1  0.08160236  0.65688322  0.81497650  1
  O2-  O393  1  0.07624921  0.91949463  0.14270715  1
  O2-  O394  1  0.03729257  0.90896122  0.45926951  1
  O2-  O395  1  0.09462165  0.91887547  0.82226802  1
  O2-  O396  1  0.33312315  0.17220757  0.13439397  1
  O2-  O397  1  0.38582255  0.20162509  0.45926741  1
  O2-  O398  1  0.30773113  0.12895896  0.79543816  1
  O2-  O399  1  0.32517971  0.41436557  0.14565807  1
  O2-  O400  1  0.40998387  0.45893461  0.47687401  1
  O2-  O401  1  0.32929796  0.40799954  0.82324446  1
  O2-  O402  1  0.33470568  0.66260392  0.15340520  1
  O2-  O403  1  0.33513551  0.65617537  0.47768318  1
  O2-  O404  1  0.32801281  0.65079630  0.82100526  1
  O2-  O405  1  0.33452983  0.90552503  0.14032328  1
  O2-  O406  1  0.35105913  0.93093298  0.46987007  1
  O2-  O407  1  0.37854054  0.95078083  0.80944039  1
  O2-  O408  1  0.58737702  0.17016519  0.15613362  1
  O2-  O409  1  0.59482299  0.17058437  0.46535784  1
  O2-  O410  1  0.57851848  0.18112783  0.81481429  1
  O2-  O411  1  0.57790530  0.39981647  0.09438794  1
  O2-  O412  1  0.58690931  0.42252753  0.46818032  1
  O2-  O413  1  0.57892857  0.41661608  0.81406222  1
  O2-  O414  1  0.59093475  0.66434227  0.14704207  1
  O2-  O415  1  0.59715275  0.69250069  0.45889163  1
  O2-  O416  1  0.57669866  0.64085523  0.81624955  1
  O2-  O417  1  0.57952579  0.92164680  0.15224242  1
  O2-  O418  1  0.57922159  0.91529170  0.52860632  1
  O2-  O419  1  0.58435422  0.93290019  0.81986437  1
  O2-  O420  1  0.82785119  0.16105170  0.13935144  1
  O2-  O421  1  0.83058818  0.18021359  0.48063005  1
  O2-  O422  1  0.82925160  0.17188169  0.82026553  1
  O2-  O423  1  0.83961987  0.42783473  0.14781572  1
  O2-  O424  1  0.81919618  0.40136068  0.47157503  1
  O2-  O425  1  0.82788122  0.42743442  0.78286764  1
  O2-  O426  1  0.84199974  0.66121002  0.14036695  1
  O2-  O427  1  0.82085389  0.66093128  0.48346938  1
  O2-  O428  1  0.82375936  0.66836105  0.80680502  1
  O2-  O429  1  0.83919734  0.91568962  0.13831083  1
  O2-  O430  1  0.81972866  0.92480804  0.47723535  1
  O2-  O431  1  0.80455584  0.90445419  0.80275973  1
  O2-  O432  1  0.16797519  0.08598819  0.18067908  1
  O2-  O433  1  0.12541949  0.05196714  0.52013180  1
  O2-  O434  1  0.15789331  0.08961047  0.85401621  1
  O2-  O435  1  0.15662078  0.32752819  0.18020585  1
  O2-  O436  1  0.24078214  0.38087880  0.51869512  1
  O2-  O437  1  0.14782712  0.32215886  0.85636562  1
  O2-  O438  1  0.15418886  0.56571764  0.17687974  1
  O2-  O439  1  0.16475713  0.57643177  0.51997820  1
  O2-  O440  1  0.16240986  0.57425820  0.86531433  1
  O2-  O441  1  0.19335641  0.89177722  0.20492233  1
  O2-  O442  1  0.18997954  0.83202729  0.52493438  1
  O2-  O443  1  0.16220237  0.82291054  0.86234332  1
  O2-  O444  1  0.41254492  0.08121919  0.18170172  1
  O2-  O445  1  0.43223130  0.09624032  0.50644402  1
  O2-  O446  1  0.42040946  0.11362115  0.86542984  1
  O2-  O447  1  0.42503338  0.33983215  0.16339145  1
  O2-  O448  1  0.41278851  0.33103670  0.53053111  1
  O2-  O449  1  0.41929144  0.33148750  0.87030871  1
  O2-  O450  1  0.42180549  0.58028455  0.18565352  1
  O2-  O451  1  0.43708517  0.60842283  0.52897744  1
  O2-  O452  1  0.41176091  0.57204908  0.86055578  1
  O2-  O453  1  0.41464899  0.82924281  0.18955289  1
  O2-  O454  1  0.44008103  0.83891104  0.45834932  1
  O2-  O455  1  0.41805113  0.83061787  0.86053155  1
  O2-  O456  1  0.65578921  0.07614557  0.17341305  1
  O2-  O457  1  0.67124874  0.09289185  0.52347385  1
  O2-  O458  1  0.66351255  0.10374068  0.86143081  1
  O2-  O459  1  0.69066069  0.38085810  0.17560735  1
  O2-  O460  1  0.66137022  0.32383833  0.50803855  1
  O2-  O461  1  0.65901647  0.33744474  0.86094437  1
  O2-  O462  1  0.69276883  0.59486824  0.19148377  1
  O2-  O463  1  0.67551248  0.57243191  0.52048280  1
  O2-  O464  1  0.67254995  0.57578717  0.86315317  1
  O2-  O465  1  0.67259477  0.82839239  0.17374250  1
  O2-  O466  1  0.66554898  0.83953181  0.52538238  1
  O2-  O467  1  0.64780019  0.81461130  0.85166273  1
  O2-  O468  1  0.91754204  0.08296015  0.17557427  1
  O2-  O469  1  0.89917069  0.08687109  0.52552787  1
  O2-  O470  1  0.89642088  0.06842789  0.84574743  1
  O2-  O471  1  0.90080651  0.32959035  0.18165055  1
  O2-  O472  1  0.89552029  0.33541052  0.52316955  1
  O2-  O473  1  0.92176241  0.32776361  0.87699196  1
  O2-  O474  1  0.91876010  0.58394566  0.19003244  1
  O2-  O475  1  0.92236035  0.60388211  0.51894783  1
  O2-  O476  1  0.91213712  0.58355799  0.83426450  1
  O2-  O477  1  0.91162365  0.82695827  0.18509939  1
  O2-  O478  1  0.87993217  0.82567781  0.51635018  1
  O2-  O479  1  0.93158589  0.87472911  0.86256099  1
  O2-  O480  1  0.18062493  0.08768261  0.30842768  1
  O2-  O481  1  0.15843707  0.06176937  0.64580791  1
  O2-  O482  1  0.16887292  0.08464133  0.97855450  1
  O2-  O483  1  0.12635731  0.30648857  0.30557767  1
  O2-  O484  1  0.19289364  0.33669821  0.64182524  1
  O2-  O485  1  0.15409514  0.31713045  0.96657498  1
  O2-  O486  1  0.20187391  0.64003525  0.29780547  1
  O2-  O487  1  0.16495823  0.57607494  0.64825713  1
  O2-  O488  1  0.17592111  0.60212909  0.98901758  1
  O2-  O489  1  0.14202371  0.85069268  0.32041210  1
  O2-  O490  1  0.16881820  0.81544337  0.64624359  1
  O2-  O491  1  0.16790293  0.82832335  0.98805278  1
  O2-  O492  1  0.42010951  0.07292834  0.34352092  1
  O2-  O493  1  0.44172748  0.12669912  0.63302713  1
  O2-  O494  1  0.43252401  0.08727056  0.99390041  1
  O2-  O495  1  0.45168855  0.35757105  0.28788483  1
  O2-  O496  1  0.43684202  0.34387222  0.64050092  1
  O2-  O497  1  0.41782511  0.33129359  0.98814388  1
  O2-  O498  1  0.45202548  0.60523415  0.30816179  1
  O2-  O499  1  0.44037041  0.60375107  0.64187932  1
  O2-  O500  1  0.42623535  0.57624063  0.98480141  1
  O2-  O501  1  0.44173703  0.84491434  0.31176937  1
  O2-  O502  1  0.42795691  0.81592470  0.69036858  1
  O2-  O503  1  0.42583933  0.84953938  0.98127561  1
  O2-  O504  1  0.65500742  0.04072147  0.31345422  1
  O2-  O505  1  0.67053718  0.09789092  0.65046199  1
  O2-  O506  1  0.67395776  0.08952633  0.98248380  1
  O2-  O507  1  0.64544071  0.30918688  0.29358303  1
  O2-  O508  1  0.70735338  0.36514626  0.69007439  1
  O2-  O509  1  0.65779423  0.33262462  0.97845719  1
  O2-  O510  1  0.70100582  0.59808737  0.31370852  1
  O2-  O511  1  0.66305980  0.57807907  0.64340015  1
  O2-  O512  1  0.65911002  0.56882878  0.98584693  1
  O2-  O513  1  0.66517258  0.84766234  0.30007656  1
  O2-  O514  1  0.72542369  0.84005519  0.68679330  1
  O2-  O515  1  0.65794246  0.82703906  0.98200221  1
  O2-  O516  1  0.93334548  0.03160866  0.28866460  1
  O2-  O517  1  0.90090653  0.09357836  0.65062893  1
  O2-  O518  1  0.91515390  0.07387958  0.97346788  1
  O2-  O519  1  0.88799259  0.31592945  0.30404125  1
  O2-  O520  1  0.89061127  0.33666959  0.64178386  1
  O2-  O521  1  0.95695015  0.32591151  0.99612870  1
  O2-  O522  1  0.91562237  0.59764889  0.31955436  1
  O2-  O523  1  0.91922440  0.58688619  0.64804831  1
  O2-  O524  1  0.89187315  0.57373768  0.95288918  1
  O2-  O525  1  0.87973731  0.79109365  0.30401540  1
  O2-  O526  1  0.85991018  0.82416149  0.63862008  1
  O2-  O527  1  0.91380179  0.82507054  0.97722984  1
  O2-  O528  1  0.08089052  0.16254416  0.01317966  1
  O2-  O529  1  0.07453461  0.14538311  0.34340407  1
  O2-  O530  1  0.07147195  0.17513918  0.69355455  1
  O2-  O531  1  0.03798379  0.33949145  0.02211617  1
  O2-  O532  1  0.04486413  0.39743448  0.34835806  1
  O2-  O533  1  0.05830461  0.42392359  0.69840555  1
  O2-  O534  1  0.04563243  0.64840212  -0.00044120  1
  O2-  O535  1  0.08410520  0.68145420  0.35083604  1
  O2-  O536  1  0.08153501  0.65628091  0.69171808  1
  O2-  O537  1  0.08131876  0.91293684  0.01864504  1
  O2-  O538  1  0.03768860  0.89983157  0.34503575  1
  O2-  O539  1  0.10353705  0.90927597  0.69811306  1
  O2-  O540  1  0.32931455  0.18081527  0.01811517  1
  O2-  O541  1  0.36001726  0.19105261  0.32781708  1
  O2-  O542  1  0.33365800  0.18297527  0.67700498  1
  O2-  O543  1  0.32925847  0.40911191  0.02086932  1
  O2-  O544  1  0.39603445  0.45538578  0.35494011  1
  O2-  O545  1  0.35089777  0.41963683  0.70347088  1
  O2-  O546  1  0.33991303  0.64907965  0.03558228  1
  O2-  O547  1  0.36077335  0.67866802  0.35527085  1
  O2-  O548  1  0.33296000  0.64085154  0.69735894  1
  O2-  O549  1  0.33465793  0.90591887  0.02092788  1
  O2-  O550  1  0.33699758  0.89717891  0.34683062  1
  O2-  O551  1  0.28442728  0.82708425  0.72873509  1
  O2-  O552  1  0.59486389  0.17799269  0.03055516  1
  O2-  O553  1  0.58676762  0.14441993  0.34642448  1
  O2-  O554  1  0.59422387  0.18900964  0.69144525  1
  O2-  O555  1  0.57103513  0.40537524  0.02721738  1
  O2-  O556  1  0.60903385  0.42897680  0.34466303  1
  O2-  O557  1  0.58839488  0.41916855  0.69367199  1
  O2-  O558  1  0.59040473  0.66528215  0.02333770  1
  O2-  O559  1  0.61552233  0.68563546  0.34017021  1
  O2-  O560  1  0.59285314  0.66597288  0.69136608  1
  O2-  O561  1  0.58020053  0.91437940  0.02538825  1
  O2-  O562  1  0.60686432  0.95737135  0.34469017  1
  O2-  O563  1  0.61715595  0.92774594  0.69983087  1
  O2-  O564  1  0.84025551  0.16317673  0.01936137  1
  O2-  O565  1  0.82361771  0.16456222  0.35260960  1
  O2-  O566  1  0.83122589  0.17946313  0.69623749  1
  O2-  O567  1  0.82145700  0.40550712  -0.07466609  1
  O2-  O568  1  0.80767225  0.38300388  0.35289190  1
  O2-  O569  1  0.86835070  0.49335088  0.65669536  1
  O2-  O570  1  0.82891427  0.66046685  0.01617306  1
  O2-  O571  1  0.78938641  0.64515048  0.34018533  1
  O2-  O572  1  0.82857058  0.66562759  0.68234488  1
  O2-  O573  1  0.83011474  0.90924435  0.01446186  1
  O2-  O574  1  0.80790038  0.96527559  0.35906913  1
  O2-  O575  1  0.98841220  0.97631634  0.68841221  1
