# generated using pymatgen
data_H2O
_symmetry_space_group_name_H-M   'P 1'
_cell_length_a   17.98788602
_cell_length_b   17.98354876
_cell_length_c   21.99311860
_cell_angle_alpha   89.99812545
_cell_angle_beta   89.99145390
_cell_angle_gamma   119.99297541
_symmetry_Int_Tables_number   1
_chemical_formula_structural   H2O
_chemical_formula_sum   'H384 O192'
_cell_volume   6161.74470319
_cell_formula_units_Z   192
loop_
 _symmetry_equiv_pos_site_id
 _symmetry_equiv_pos_as_xyz
  1  'x, y, z'
loop_
 _atom_type_symbol
 _atom_type_oxidation_number
  H+  1.0
  O2-  -2.0
loop_
 _atom_site_type_symbol
 _atom_site_label
 _atom_site_symmetry_multiplicity
 _atom_site_fract_x
 _atom_site_fract_y
 _atom_site_fract_z
 _atom_site_occupancy
  H+  H0  1  0.62159918  0.99006253  0.01095093  1
  H+  H1  1  0.38615453  0.36528044  0.50323082  1
  H+  H2  1  0.71751485  0.60144086  0.84352006  1
  H+  H3  1  0.08089768  0.16234457  0.58347502  1
  H+  H4  1  0.27273712  0.39108277  0.49163950  1
  H+  H5  1  0.13562670  0.34628642  0.85530932  1
  H+  H6  1  0.35877953  0.98894449  0.82687115  1
  H+  H7  1  0.87655594  0.83462675  0.16291765  1
  H+  H8  1  0.82893422  0.44555730  1.01292082  1
  H+  H9  1  0.35134805  0.43906324  0.83624133  1
  H+  H10  1  0.92728015  0.09046065  0.23157402  1
  H+  H11  1  0.01622073  0.40736897  -0.00612124  1
  H+  H12  1  0.62662334  0.02614576  0.65703520  1
  H+  H13  1  0.91949969  0.85122808  0.49234386  1
  H+  H14  1  0.90748773  0.11877443  0.32945667  1
  H+  H15  1  0.83351944  0.95765443  0.83353287  1
  H+  H16  1  0.37121850  0.02653904  0.65741504  1
  H+  H17  1  0.13127921  0.88894252  0.49141770  1
  H+  H18  1  0.59110867  0.33677585  0.47610662  1
  H+  H19  1  0.00035281  0.65370567  0.14915077  1
  H+  H20  1  0.86244417  0.88902378  0.00335855  1
  H+  H21  1  0.39444117  0.51916140  1.00205851  1
  H+  H22  1  0.48855415  0.87473900  0.99951104  1
  H+  H23  1  0.27211837  0.87193012  0.49744906  1
  H+  H24  1  0.98637717  0.12021545  0.85281500  1
  H+  H25  1  0.36216665  0.88979095  0.67783486  1
  H+  H26  1  0.95118474  0.36965928  0.16652288  1
  H+  H27  1  0.25610292  0.33757153  0.18680591  1
  H+  H28  1  -0.02636873  0.86067046  0.34137666  1
  H+  H29  1  0.32362964  0.27278715  0.28872593  1
  H+  H30  1  0.21858012  0.33450183  0.84853055  1
  H+  H31  1  0.76861604  0.63224454  0.67340964  1
  H+  H32  1  0.27620873  0.39932335  0.33982213  1
  H+  H33  1  0.88347169  0.60415154  0.66105820  1
  H+  H34  1  1.12385404  1.02890064  0.68099879  1
  H+  H35  1  0.02070051  0.65299440  0.32111684  1
  H+  H36  1  0.62758456  0.29741033  0.59275073  1
  H+  H37  1  0.02724016  0.14181924  0.16778516  1
  H+  H38  1  0.66064147  0.15401481  0.35416437  1
  H+  H39  1  0.13665057  0.02496082  0.50226377  1
  H+  H40  1  0.60535059  0.72948081  0.49659220  1
  H+  H41  1  0.81476356  0.95926153  0.33927682  1
  H+  H42  1  0.60242375  0.87155283  0.33532015  1
  H+  H43  1  0.39556884  0.62561823  0.65999311  1
  H+  H44  1  0.13995945  0.78851637  0.33041635  1
  H+  H45  1  0.37435088  0.38136752  0.15453137  1
  H+  H46  1  0.15977021  0.24260090  0.19022750  1
  H+  H47  1  0.75163394  0.13540305  0.51787425  1
  H+  H48  1  0.76233189  0.14998370  0.66121440  1
  H+  H49  1  0.89295871  0.11776712  0.17291250  1
  H+  H50  1  0.47346662  0.12558481  0.83964916  1
  H+  H51  1  0.40168716  0.91065489  0.85272557  1
  H+  H52  1  0.02466915  0.13346275  0.49010352  1
  H+  H53  1  0.84845364  0.24008010  0.66399149  1
  H+  H54  1  0.62336255  0.75526142  0.31705847  1
  H+  H55  1  0.85795322  0.72396899  0.34163834  1
  H+  H56  1  0.38657434  0.50950281  0.49508703  1
  H+  H57  1  0.71998808  0.35986447  0.85043716  1
  H+  H58  1  0.92603606  0.34627926  0.76230136  1
  H+  H59  1  0.91681321  0.42229506  0.63290768  1
  H+  H60  1  0.86812505  -0.02721861  0.15958131  1
  H+  H61  1  0.99384942  0.39114909  0.65420219  1
  H+  H62  1  0.63651367  0.36724314  0.32844540  1
  H+  H63  1  0.74684585  0.63963227  0.50991981  1
  H+  H64  1  0.93563854  0.04550056  0.32807034  1
  H+  H65  1  0.33585627  0.92314515  0.77065730  1
  H+  H66  1  0.36134921  0.87131122  0.49803110  1
  H+  H67  1  0.25975519  0.13260381  0.99936641  1
  H+  H68  1  0.75478822  0.39176760  0.15410310  1
  H+  H69  1  0.42154971  0.58245220  0.08873762  1
  H+  H70  1  0.37182047  0.25801706  0.98519645  1
  H+  H71  1  0.52313591  0.62952482  0.34664087  1
  H+  H72  1  0.83680935  0.45475361  0.49615821  1
  H+  H73  1  0.62251542  0.46385314  0.33127409  1
  H+  H74  1  0.10558537  1.00222182  0.84227613  1
  H+  H75  1  0.63526794  0.61400693  0.67188325  1
  H+  H76  1  0.61720578  0.72618086  1.00849514  1
  H+  H77  1  0.11876364  0.98381471  0.34557854  1
  H+  H78  1  0.39033300  0.78032293  0.66507147  1
  H+  H79  1  0.46749347  0.36496926  0.66092650  1
  H+  H80  1  0.59184696  0.36147784  0.03870999  1
  H+  H81  1  0.08635614  0.62032939  0.48075760  1
  H+  H82  1  0.62832103  -0.01198685  0.16345157  1
  H+  H83  1  0.60962560  0.47076625  0.67333969  1
  H+  H84  1  0.22415208  0.11587304  0.50321818  1
  H+  H85  1  0.38330126  0.35577938  -0.01514774  1
  H+  H86  1  0.60657863  0.43081304  0.47718791  1
  H+  H87  1  0.39002199  0.18789644  0.84316044  1
  H+  H88  1  0.40758500  1.01151435  0.51156555  1
  H+  H89  1  0.11578649  0.12856141  0.49900136  1
  H+  H90  1  0.52479875  0.89442960  0.67927841  1
  H+  H91  1  0.47872665  0.86025953  0.50933342  1
  H+  H92  1  0.60971172  0.34306465  0.65065495  1
  H+  H93  1  0.60751992  0.62897574  0.83638151  1
  H+  H94  1  0.39282765  0.27673541  0.15994061  1
  H+  H95  1  0.38273224  0.53180801  0.33862930  1
  H+  H96  1  0.13943720  0.11084007  0.33541232  1
  H+  H97  1  0.03476041  0.87472041  0.49112897  1
  H+  H98  1  0.36104603  0.73734414  0.35840274  1
  H+  H99  1  0.51807045  0.87934219  0.34293607  1
  H+  H100  1  0.87463382  0.70874621  0.15872349  1
  H+  H101  1  0.09050544  1.08861472  0.86019143  1
  H+  H102  1  0.88587972  0.86148297  0.33627511  1
  H+  H103  1  0.12712863  0.76344064  0.50734987  1
  H+  H104  1  0.85890245  0.22824657  0.15804792  1
  H+  H105  1  0.34927961  0.13347383  0.00360386  1
  H+  H106  1  0.28174472  0.38390152  0.00546792  1
  H+  H107  1  0.38539317  0.60684700  0.14495864  1
  H+  H108  1  0.39990655  0.14565779  0.35749501  1
  H+  H109  1  0.09995182  0.97015483  0.15658848  1
  H+  H110  1  0.36228050  0.39659344  0.33312539  1
  H+  H111  1  0.51494146  0.61978502  0.83566095  1
  H+  H112  1  0.71825131  0.11950249  0.84507025  1
  H+  H113  1  0.12434076  0.36630082  0.64693029  1
  H+  H114  1  0.25188651  0.63987640  0.67864583  1
  H+  H115  1  0.10556340  0.38383417  0.49268453  1
  H+  H116  1  0.48599735  0.60868155  0.49868377  1
  H+  H117  1  0.85454724  0.47699073  0.81928392  1
  H+  H118  1  0.42934449  0.79737376  0.27159741  1
  H+  H119  1  0.36673731  0.63931885  0.01083830  1
  H+  H120  1  0.49735730  0.90980519  0.85133420  1
  H+  H121  1  0.22644112  0.62788524  0.34442660  1
  H+  H122  1  0.49068592  0.64960798  0.65760838  1
  H+  H123  1  0.86792816  -0.01925309  1.00474078  1
  H+  H124  1  0.64462500  1.01933354  0.32832448  1
  H+  H125  1  0.39159414  0.60764516  0.50671235  1
  H+  H126  1  0.13313729  0.76982729  0.65908233  1
  H+  H127  1  0.48262974  0.61285020  1.00147108  1
  H+  H128  1  0.73218885  0.33870211  0.68266361  1
  H+  H129  1  0.88220808  0.11367534  0.43186852  1
  H+  H130  1  0.13918320  0.36595319  0.30968413  1
  H+  H131  1  0.12501804  1.01423404  -0.00486745  1
  H+  H132  1  1.01642806  0.63228593  0.66877030  1
  H+  H133  1  0.04916769  0.15868554  0.35107437  1
  H+  H134  1  0.09960541  0.46768975  0.49374215  1
  H+  H135  1  0.59082929  0.97743627  0.49077048  1
  H+  H136  1  0.86747030  0.59741274  0.50528414  1
  H+  H137  1  0.63765402  0.89160307  0.16280751  1
  H+  H138  1  0.74590912  0.60490009  0.17680556  1
  H+  H139  1  0.10596452  0.88796087  0.82834496  1
  H+  H140  1  0.84775233  0.91300334  0.49994378  1
  H+  H141  1  0.35136161  0.22125853  0.50071884  1
  H+  H142  1  0.91077982  0.60989153  0.22902933  1
  H+  H143  1  0.08314188  0.54549279  0.22772618  1
  H+  H144  1  0.89362762  0.54203710  0.27887267  1
  H+  H145  1  0.41581328  0.02764183  0.35253903  1
  H+  H146  1  0.87312030  0.46757895  0.36023052  1
  H+  H147  1  0.60685507  0.13002180  0.67543718  1
  H+  H148  1  1.01662450  0.87498590  0.66443707  1
  H+  H149  1  0.81794762  0.66315644  0.07135646  1
  H+  H150  1  0.65834584  0.56681095  0.90377517  1
  H+  H151  1  0.47343424  0.34857269  0.83996892  1
  H+  H152  1  0.41001421  0.82324593  0.32967761  1
  H+  H153  1  0.87372594  0.77099909  -0.00286174  1
  H+  H154  1  0.12243578  0.22882332  0.01796991  1
  H+  H155  1  0.72402947  0.87008248  0.66716046  1
  H+  H156  1  0.61452112  0.89643793  0.67993271  1
  H+  H157  1  0.89918206  0.12557404  0.99279178  1
  H+  H158  1  0.14731823  0.28360645  0.33750074  1
  H+  H159  1  0.36816078  0.11259331  0.64956170  1
  H+  H160  1  0.38132630  0.02823234  0.16611739  1
  H+  H161  1  0.62086896  0.86195585  0.51296464  1
  H+  H162  1  0.62065084  0.85295278  0.84513262  1
  H+  H163  1  0.36696427  0.81533824  0.11892942  1
  H+  H164  1  0.23861039  0.90053360  0.14555388  1
  H+  H165  1  0.85522420  0.22730459  0.81469001  1
  H+  H166  1  0.85191601  0.72088473  0.82419878  1
  H+  H167  1  0.82441518  0.34715225  0.68394557  1
  H+  H168  1  0.16221954  0.80711303  0.16521034  1
  H+  H169  1  0.70516477  0.59781278  1.00464549  1
  H+  H170  1  0.11614917  0.64546052  0.82540832  1
  H+  H171  1  0.70906668  0.86447405  0.51082105  1
  H+  H172  1  0.15222934  0.76584251  0.01001925  1
  H+  H173  1  0.48552711  0.36345931  0.15056824  1
  H+  H174  1  0.64593955  0.11375859  0.17409298  1
  H+  H175  1  0.21576998  0.10226115  0.17536674  1
  H+  H176  1  0.88487318  0.34887190  0.33172255  1
  H+  H177  1  0.31490210  0.38624995  0.77388270  1
  H+  H178  1  0.41460468  0.60319387  0.28734932  1
  H+  H179  1  0.61695739  0.76043823  0.84735998  1
  H+  H180  1  0.73393758  0.87419210  0.16743837  1
  H+  H181  1  0.64519999  0.32912254  0.20843703  1
  H+  H182  1  0.44609065  0.16089602  0.22259146  1
  H+  H183  1  0.12835979  0.10270937  0.17848894  1
  H+  H184  1  0.46670134  0.35031100  0.50012755  1
  H+  H185  1  0.12436025  0.11550227  0.66828483  1
  H+  H186  1  0.15356297  0.07119291  0.27307135  1
  H+  H187  1  0.35852733  0.75374710  0.83010344  1
  H+  H188  1  0.61592963  0.23824291  0.47304305  1
  H+  H189  1  0.26241764  0.13978561  0.68687245  1
  H+  H190  1  0.78780014  0.12213104  0.34290121  1
  H+  H191  1  0.34917462  0.22515395  0.67027535  1
  H+  H192  1  0.03490786  0.39202870  0.82481304  1
  H+  H193  1  0.28445984  0.63240496  0.50957317  1
  H+  H194  1  0.73513467  0.11368836  0.17403999  1
  H+  H195  1  0.23593225  0.62213895  -0.00010770  1
  H+  H196  1  0.58230925  0.92578700  0.77366001  1
  H+  H197  1  0.13385353  0.85940471  0.65859686  1
  H+  H198  1  0.54074226  0.61663172  0.15363263  1
  H+  H199  1  0.11839269  0.34871447  0.17963176  1
  H+  H200  1  0.39582897  0.76717234  0.51809548  1
  H+  H201  1  0.87293016  0.21332645  0.34408669  1
  H+  H202  1  0.12360043  0.60789939  0.65766589  1
  H+  H203  1  0.63479996  0.59856665  0.32643983  1
  H+  H204  1  0.13295699  0.53022489  0.85536650  1
  H+  H205  1  0.61107466  0.22872527  0.83026515  1
  H+  H206  1  0.60483093  0.37672937  0.83071668  1
  H+  H207  1  0.30931489  0.60537785  0.76421881  1
  H+  H208  1  0.50467105  0.11419426  0.37176858  1
  H+  H209  1  0.88022756  0.04004662  0.67667024  1
  H+  H210  1  0.65045249  0.60983242  0.16971949  1
  H+  H211  1  0.01105001  0.87826774  0.82904364  1
  H+  H212  1  0.65364214  0.31957847  0.90681285  1
  H+  H213  1  0.25922429  0.58996298  0.82527553  1
  H+  H214  1  0.14663917  0.36681634  0.99760838  1
  H+  H215  1  0.26096541  0.38131418  0.68310883  1
  H+  H216  1  0.88174042  0.61957127  0.82101368  1
  H+  H217  1  0.87826096  0.36275235  0.99839386  1
  H+  H218  1  0.11073193  0.89151890  1.00248552  1
  H+  H219  1  0.83222284  0.63145431  1.00996631  1
  H+  H220  1  0.87042091  0.91347033  0.69223179  1
  H+  H221  1  0.84600041  0.36999894  0.49740573  1
  H+  H222  1  0.16393746  0.82298151  0.56771827  1
  H+  H223  1  1.02755189  0.64581541  0.81760151  1
  H+  H224  1  0.85102476  0.10212101  0.82779203  1
  H+  H225  1  0.10512163  0.64770661  0.33658232  1
  H+  H226  1  0.69851854  0.32561332  0.49515301  1
  H+  H227  1  0.23313349  0.87403457  0.33620183  1
  H+  H228  1  0.02585323  0.38474043  0.30940259  1
  H+  H229  1  0.37845686  0.77710711  0.80093914  1
  H+  H230  1  0.53991216  0.13362834  0.16419902  1
  H+  H231  1  0.34883578  0.38077805  0.68166145  1
  H+  H232  1  0.59618349  0.21891096  0.67325286  1
  H+  H233  1  0.62015934  0.89815882  0.01142600  1
  H+  H234  1  0.01477607  0.14221284  0.63772199  1
  H+  H235  1  0.72760371  0.60563609  0.32740866  1
  H+  H236  1  0.12964889  0.89229863  0.34435756  1
  H+  H237  1  0.65898566  0.55416482  0.51986975  1
  H+  H238  1  0.36403918  0.88100134  0.34677706  1
  H+  H239  1  0.09559277  0.61425297  0.17663359  1
  H+  H240  1  0.77251635  0.13875087  0.00560532  1
  H+  H241  1  0.86074748  0.71713334  0.66428467  1
  H+  H242  1  0.36991653  0.71095893  0.18483796  1
  H+  H243  1  0.86296643  0.22738377  0.00565794  1
  H+  H244  1  0.81589299  0.91260193  0.74803350  1
  H+  H245  1  0.34854335  0.13186424  0.14498108  1
  H+  H246  1  0.19895714  0.67273184  0.52761139  1
  H+  H247  1  0.54026489  1.06288339  0.52520804  1
  H+  H248  1  0.39822918  0.07169564  0.94118836  1
  H+  H249  1  0.80515534  0.39455328  0.77380452  1
  H+  H250  1  0.06392475  0.68408470  0.00319784  1
  H+  H251  1  0.62004723  0.35767510  0.14342691  1
  H+  H252  1  0.61956075  0.22069738  0.14552024  1
  H+  H253  1  0.88272497  0.72986982  0.49089811  1
  H+  H254  1  0.65883813  0.27563640  0.33633720  1
  H+  H255  1  0.70397684  0.32995282  1.00074890  1
  H+  H256  1  0.40067093  0.78514577  -0.01162470  1
  H+  H257  1  0.62018791  0.73193703  0.68504159  1
  H+  H258  1  0.61085203  0.63203060  1.00484606  1
  H+  H259  1  0.37086267  0.56695412  0.84070777  1
  H+  H260  1  0.96258707  0.35441952  0.50609951  1
  H+  H261  1  0.62121210  0.64963757  0.49818283  1
  H+  H262  1  0.11305890  0.47445697  0.31845972  1
  H+  H263  1  0.61959218  0.50687122  1.01038931  1
  H+  H264  1  0.22731340  0.87402272  0.83718356  1
  H+  H265  1  0.39484435  0.23060222  0.34898229  1
  H+  H266  1  0.87236745  0.85201933  0.84237722  1
  H+  H267  1  0.08594022  0.40653036  0.14386708  1
  H+  H268  1  0.35955108  0.64692540  0.35725438  1
  H+  H269  1  0.37592398  0.33356810  0.83775604  1
  H+  H270  1  0.61823715  0.98511047  0.83368231  1
  H+  H271  1  0.08322305  0.49363601  0.14797087  1
  H+  H272  1  0.14378921  0.28046929  0.50651100  1
  H+  H273  1  0.26988964  0.88306270  0.67805579  1
  H+  H274  1  0.73796129  0.36885917  0.32737894  1
  H+  H275  1  0.24258445  0.90708627  0.98493862  1
  H+  H276  1  0.43288318  0.07304683  0.56939370  1
  H+  H277  1  0.33880574  0.66657653  0.44875685  1
  H+  H278  1  0.84109227  0.99329852  0.47698470  1
  H+  H279  1  0.17504323  0.60321943  0.90458015  1
  H+  H280  1  0.84209726  0.21952793  0.52661924  1
  H+  H281  1  0.15417818  0.63747063  0.00090009  1
  H+  H282  1  0.08088733  0.20225338  0.86729492  1
  H+  H283  1  0.14017723  0.78310520  0.83676067  1
  H+  H284  1  0.11612952  0.50659806  0.99889642  1
  H+  H285  1  0.89228936  0.57497124  1.06087191  1
  H+  H286  1  0.14217214  0.35584157  0.14975860  1
  H+  H287  1  0.72548015  0.86624227  0.99615598  1
  H+  H288  1  0.67928304  0.08154309  0.27063097  1
  H+  H289  1  0.62815097  0.23770872  0.98919947  1
  H+  H290  1  0.96920452  0.84515357  0.16037095  1
  H+  H291  1  0.08122331  0.66616668  0.72691264  1
  H+  H292  1  0.27254033  0.64233079  0.16632726  1
  H+  H293  1  0.61251724  0.10857198  0.47808338  1
  H+  H294  1  0.36798683  0.84076064  0.18602279  1
  H+  H295  1  0.83523642  0.91766659  0.09872179  1
  H+  H296  1  0.35805981  0.46282201  0.14851184  1
  H+  H297  1  0.05947213  0.66026191  0.42619996  1
  H+  H298  1  0.81285260  0.16862755  0.75767402  1
  H+  H299  1  0.45553048  0.09723731  0.26554042  1
  H+  H300  1  0.33516555  0.16494897  0.44159559  1
  H+  H301  1  0.83629000  0.16748305  0.09956644  1
  H+  H302  1  0.09764526  0.91984410  0.41212615  1
  H+  H303  1  0.48809018  0.82705817  0.21134568  1
  H+  H304  1  0.83973057  0.48737198  0.15065320  1
  H+  H305  1  0.03175659  0.14233427  0.02120623  1
  H+  H306  1  0.90724178  0.33914546  0.93578628  1
  H+  H307  1  0.88118964  0.12753472  0.66439006  1
  H+  H308  1  0.41043336  0.33959250  0.60126886  1
  H+  H309  1  0.90572364  0.82299479  0.89979587  1
  H+  H310  1  0.17851175  0.85321349  0.93032492  1
  H+  H311  1  0.41047625  0.56425989  0.90548038  1
  H+  H312  1  0.65905140  0.83154081  0.94041101  1
  H+  H313  1  0.96407343  0.11614511  0.94503896  1
  H+  H314  1  0.10491830  0.18216674  0.41238981  1
  H+  H315  1  0.95200175  0.59219141  0.50184904  1
  H+  H316  1  0.89201656  0.37551542  0.81684989  1
  H+  H317  1  0.86007812  0.63859108  0.32761115  1
  H+  H318  1  0.59114365  0.66461900  0.39970147  1
  H+  H319  1  0.86195058  0.11646732  0.50013447  1
  H+  H320  1  0.07067477  0.43910651  0.05905161  1
  H+  H321  1  0.92541248  0.58082396  0.99307476  1
  H+  H322  1  0.86236097  0.36484288  0.17398444  1
  H+  H323  1  0.47064882  0.50700720  0.24039382  1
  H+  H324  1  0.82307914  0.66466643  0.76242797  1
  H+  H325  1  0.90048348  0.32069603  0.26696119  1
  H+  H326  1  0.90872094  0.57339330  0.60115380  1
  H+  H327  1  0.33866820  0.67634396  0.06672326  1
  H+  H328  1  0.47743907  0.55128751  0.23547651  1
  H+  H329  1  0.93058338  0.81676502  0.57625555  1
  H+  H330  1  0.74845348  0.86562614  0.83578733  1
  H+  H331  1  0.70943016  0.84340281  0.31991187  1
  H+  H332  1  0.59575546  0.92772486  0.10075789  1
  H+  H333  1  0.65963245  0.83503523  0.60989536  1
  H+  H334  1  0.35287510  0.99684166  0.05279672  1
  H+  H335  1  0.13114019  0.43759926  0.79904099  1
  H+  H336  1  0.58052812  0.39234893  0.38658480  1
  H+  H337  1  0.33447502  0.90783349  0.40739060  1
  H+  H338  1  0.14367554  0.06413864  0.90860924  1
  H+  H339  1  0.33965346  0.40175524  0.06380861  1
  H+  H340  1  0.57808601  0.40705857  0.73011662  1
  H+  H341  1  0.83327710  0.66368411  0.43395365  1
  H+  H342  1  0.11087827  0.88925332  0.14106597  1
  H+  H343  1  0.42363793  0.83874165  0.60603387  1
  H+  H344  1  0.12245400  0.51668132  0.65298305  1
  H+  H345  1  0.60685208  0.13715434  0.83284571  1
  H+  H346  1  0.60263656  0.46416394  0.82922842  1
  H+  H347  1  0.17051643  0.32658533  0.94111117  1
  H+  H348  1  0.16862062  0.59472713  0.57196032  1
  H+  H349  1  0.06816351  0.90438981  0.72750623  1
  H+  H350  1  0.60457523  0.65652852  0.09927903  1
  H+  H351  1  0.96735491  0.85622794  0.99283426  1
  H+  H352  1  0.66407677  0.08921195  0.90840730  1
  H+  H353  1  0.09300891  0.17195860  0.11036869  1
  H+  H354  1  0.40904065  0.31755032  0.91672467  1
  H+  H355  1  0.58021146  0.91585032  0.43390345  1
  H+  H356  1  0.29053051  0.70933087  0.73056695  1
  H+  H357  1  0.90991661  0.34195893  0.56812818  1
  H+  H358  1  0.91709693  0.59433640  0.87770761  1
  H+  H359  1  0.12823890  0.27901970  0.63894000  1
  H+  H360  1  0.33267814  0.41866468  0.43055115  1
  H+  H361  1  0.63711465  0.08202370  0.59651969  1
  H+  H362  1  0.43763712  0.87908245  0.91996789  1
  H+  H363  1  0.07325485  0.91568181  0.06164052  1
  H+  H364  1  0.67863961  0.58064036  0.23821345  1
  H+  H365  1  0.82266690  0.39782291  0.41036190  1
  H+  H366  1  0.88056251  0.84008115  0.62619829  1
  H+  H367  1  0.13050462  0.10733654  0.99712181  1
  H+  H368  1  0.19447901  0.31117811  0.25352744  1
  H+  H369  1  0.85186756  0.06174067  0.89096303  1
  H+  H370  1  0.17337116  0.34713094  0.56177924  1
  H+  H371  1  0.18495963  0.61376475  0.27960767  1
  H+  H372  1  0.58425219  0.66758046  0.74234422  1
  H+  H373  1  0.61857786  0.12438912  0.04924036  1
  H+  H374  1  0.37084752  0.94444645  0.13593476  1
  H+  H375  1  0.08247795  0.68731582  0.10549515  1
  H+  H376  1  0.66840436  0.59441512  0.61007449  1
  H+  H377  1  0.40734745  0.33388256  0.25371012  1
  H+  H378  1  0.81442001  0.39406625  0.07202743  1
  H+  H379  1  0.31697950  0.16628788  0.09182819  1
  H+  H380  1  0.06382046  0.41007843  0.71086933  1
  H+  H381  1  0.58307088  0.16646762  0.74237635  1
  H+  H382  1  0.66481537  0.83548786  0.22428277  1
  H+  H383  1  0.80966274  0.90959068  0.39963425  1
  O2-  O384  1  0.08997803  0.16915347  0.15609021  1
  O2-  O385  1  0.08759189  0.16776185  0.48905439  1
  O2-  O386  1  0.04069638  0.13996616  0.87566146  1
  O2-  O387  1  0.05701919  0.43595189  0.12611312  1
  O2-  O388  1  0.06858837  0.40801936  0.48047821  1
  O2-  O389  1  0.09717327  0.41979558  0.83644178  1
  O2-  O390  1  0.06360498  0.67333109  0.14817112  1
  O2-  O391  1  0.05773842  0.65342332  0.47142343  1
  O2-  O392  1  0.08968576  0.67738246  0.80682711  1
  O2-  O393  1  0.07114672  0.91345034  0.13556476  1
  O2-  O394  1  0.09768495  0.91526088  0.47541753  1
  O2-  O395  1  0.07184623  0.91534527  0.81479934  1
  O2-  O396  1  0.32044598  0.16543038  0.13755998  1
  O2-  O397  1  0.32040189  0.16167686  0.48548499  1
  O2-  O398  1  0.36376763  0.12753708  0.82960932  1
  O2-  O399  1  0.33011057  0.39928946  0.14337742  1
  O2-  O400  1  0.33447050  0.42088127  0.47611416  1
  O2-  O401  1  0.31721206  0.37934510  0.82063416  1
  O2-  O402  1  0.33146131  0.67290080  0.15094253  1
  O2-  O403  1  0.34437821  0.65927084  0.49357409  1
  O2-  O404  1  0.29310863  0.57047691  0.80172586  1
  O2-  O405  1  0.34879539  0.98551179  0.13392294  1
  O2-  O406  1  0.33151026  0.90068955  0.48056854  1
  O2-  O407  1  0.33549087  0.92720508  0.81674718  1
  O2-  O408  1  0.59413636  0.15727194  0.14112921  1
  O2-  O409  1  0.58973628  0.16470924  0.41862117  1
  O2-  O410  1  0.57950241  0.16831358  0.81340850  1
  O2-  O411  1  0.57510783  0.39906731  0.11919903  1
  O2-  O412  1  0.56674163  0.37485602  0.46019120  1
  O2-  O413  1  0.57272910  0.40399593  0.81340552  1
  O2-  O414  1  0.60236656  0.64556249  0.14408710  1
  O2-  O415  1  0.58328543  0.66980636  0.47993534  1
  O2-  O416  1  0.57585071  0.65831480  0.82248011  1
  O2-  O417  1  0.59945988  0.92611290  0.14737952  1
  O2-  O418  1  0.57738301  0.91761014  0.47901455  1
  O2-  O419  1  0.58236266  0.92402303  0.81930818  1
  O2-  O420  1  0.83737890  0.16772306  0.14505855  1
  O2-  O421  1  0.80926256  0.15596014  0.53381325  1
  O2-  O422  1  0.81681821  0.16658201  0.80329650  1
  O2-  O423  1  0.81850090  0.42456476  0.14419359  1
  O2-  O424  1  0.81018128  0.39441828  0.48041557  1
  O2-  O425  1  0.82466524  0.41324985  0.81719944  1
  O2-  O426  1  0.83818705  0.64492267  0.14507339  1
  O2-  O427  1  0.83578928  0.66692921  0.47906952  1
  O2-  O428  1  0.82246629  0.66067989  0.80823123  1
  O2-  O429  1  0.83314782  0.91324241  0.14413940  1
  O2-  O430  1  0.81132719  0.92723470  0.47562980  1
  O2-  O431  1  0.80983656  0.89684558  0.82071490  1
  O2-  O432  1  0.15700684  0.07061602  0.19274503  1
  O2-  O433  1  0.16063566  0.08499330  0.51587403  1
  O2-  O434  1  0.13016289  0.06318973  0.86267168  1
  O2-  O435  1  0.21234190  0.28906034  0.21464984  1
  O2-  O436  1  0.17410546  0.34304981  0.51561515  1
  O2-  O437  1  0.16014331  0.31056148  0.86904405  1
  O2-  O438  1  0.11884941  0.57590760  0.19257386  1
  O2-  O439  1  0.18015626  0.61159131  0.52692692  1
  O2-  O440  1  0.16674519  0.59353651  0.86008611  1
  O2-  O441  1  0.17839947  0.85557384  0.13785880  1
  O2-  O442  1  0.16669864  0.82241811  0.52189517  1
  O2-  O443  1  0.16666538  0.84320149  0.85247563  1
  O2-  O444  1  0.45012333  0.10886390  0.22113765  1
  O2-  O445  1  0.45546712  0.06309035  0.52995588  1
  O2-  O446  1  0.41483091  0.09439712  0.85915582  1
  O2-  O447  1  0.42709789  0.33739000  0.17342918  1
  O2-  O448  1  0.41281977  0.33416002  0.52214154  1
  O2-  O449  1  0.41294070  0.31146007  0.85613190  1
  O2-  O450  1  0.41479017  0.57494469  0.13308182  1
  O2-  O451  1  0.42273386  0.57325075  0.51121919  1
  O2-  O452  1  0.41199233  0.55280361  0.86179006  1
  O2-  O453  1  0.39331474  0.86442175  0.14643284  1
  O2-  O454  1  0.42053079  0.82876915  0.52899731  1
  O2-  O455  1  0.45079601  0.91154936  0.87707623  1
  O2-  O456  1  0.67518457  0.08236965  0.19070836  1
  O2-  O457  1  0.60033947  0.07071082  0.51460414  1
  O2-  O458  1  0.65930787  0.08677569  0.86207031  1
  O2-  O459  1  0.65346913  0.32871689  0.16451969  1
  O2-  O460  1  0.63547749  0.28939864  0.50185611  1
  O2-  O461  1  0.65791942  0.32668158  0.86134463  1
  O2-  O462  1  0.68432226  0.58248904  0.19185430  1
  O2-  O463  1  0.68666996  0.61514844  0.52898851  1
  O2-  O464  1  0.65722908  0.56962864  0.85864282  1
  O2-  O465  1  0.67159901  0.84957205  0.17985898  1
  O2-  O466  1  0.65012355  0.83024955  0.52757672  1
  O2-  O467  1  0.64912823  0.82192577  0.86163777  1
  O2-  O468  1  0.92450892  0.08789403  0.18644672  1
  O2-  O469  1  0.89114824  0.09411494  0.47166864  1
  O2-  O470  1  0.87157060  0.06569507  0.84903548  1
  O2-  O471  1  0.89414035  0.33433669  0.18522299  1
  O2-  O472  1  0.90300827  0.32835718  0.52300893  1
  O2-  O473  1  0.92723239  0.34696458  0.80686975  1
  O2-  O474  1  0.89132871  0.60189462  0.15436487  1
  O2-  O475  1  0.89291566  0.56166377  0.51899429  1
  O2-  O476  1  0.91637729  0.59087984  0.83349799  1
  O2-  O477  1  0.90834223  0.80444818  0.17192522  1
  O2-  O478  1  0.94414292  0.81940326  0.51093651  1
  O2-  O479  1  0.90641222  0.82418544  0.85418678  1
  O2-  O480  1  0.15254038  0.06778294  0.31827135  1
  O2-  O481  1  0.14835477  0.08853878  0.69507506  1
  O2-  O482  1  0.15628873  0.07507393  0.97773420  1
  O2-  O483  1  0.17599378  0.33747980  0.31167344  1
  O2-  O484  1  0.16276651  0.34330784  0.63572934  1
  O2-  O485  1  0.17410492  0.33325569  0.98724887  1
  O2-  O486  1  0.16975136  0.60088664  0.32258382  1
  O2-  O487  1  0.15750284  0.58038640  0.64298283  1
  O2-  O488  1  0.17390442  0.59700426  0.98619046  1
  O2-  O489  1  0.17291239  0.85092972  0.32112690  1
  O2-  O490  1  0.16617354  0.83052321  0.64427601  1
  O2-  O491  1  0.18342437  0.85986156  0.97576258  1
  O2-  O492  1  0.45495195  0.08885955  0.34176968  1
  O2-  O493  1  0.39805219  0.08120029  0.63528255  1
  O2-  O494  1  0.39608791  0.07751492  0.98608570  1
  O2-  O495  1  0.38053871  0.32262800  0.29491538  1
  O2-  O496  1  0.40751327  0.33980171  0.64643745  1
  O2-  O497  1  0.40576657  0.31869447  0.96708959  1
  O2-  O498  1  0.41350390  0.59619693  0.33142957  1
  O2-  O499  1  0.44603562  0.65341756  0.63403901  1
  O2-  O500  1  0.41843329  0.58196955  0.99472727  1
  O2-  O501  1  0.44519010  0.77597062  0.23317336  1
  O2-  O502  1  0.42241959  0.84096051  0.65163564  1
  O2-  O503  1  0.43060885  0.84731483  0.97967774  1
  O2-  O504  1  0.68359869  0.07981368  0.31588665  1
  O2-  O505  1  0.64974377  0.08615983  0.64078926  1
  O2-  O506  1  0.67173618  0.08904548  0.98440731  1
  O2-  O507  1  0.67654933  0.33252476  0.31370855  1
  O2-  O508  1  0.63122526  0.30356213  0.63751444  1
  O2-  O509  1  0.64467481  0.29887278  0.98432082  1
  O2-  O510  1  0.66705385  0.57060364  0.31053014  1
  O2-  O511  1  0.66348263  0.58227121  0.65423796  1
  O2-  O512  1  0.64636264  0.56183788  0.98735251  1
  O2-  O513  1  0.65079688  0.81588949  0.30207203  1
  O2-  O514  1  0.66251363  0.83801521  0.65512500  1
  O2-  O515  1  0.66304684  0.83425626  0.98580186  1
  O2-  O516  1  0.94968093  0.10150870  0.31179042  1
  O2-  O517  1  0.91240271  0.09631828  0.65667802  1
  O2-  O518  1  0.93280271  0.09588754  0.98396741  1
  O2-  O519  1  0.91229323  0.31963726  0.31110511  1
  O2-  O520  1  0.91413050  0.36752536  0.64107321  1
  O2-  O521  1  0.91987471  0.34552157  0.97928487  1
  O2-  O522  1  0.91920554  0.60396579  0.27463363  1
  O2-  O523  1  0.91717895  0.57792921  0.64590164  1
  O2-  O524  1  0.87395903  0.55886250  1.01794860  1
  O2-  O525  1  0.91340867  0.82717796  0.32822568  1
  O2-  O526  1  0.91790695  0.81546249  0.62404573  1
  O2-  O527  1  0.90670354  0.82892894  0.97796227  1
  O2-  O528  1  0.09312975  0.16886311  0.03407072  1
  O2-  O529  1  0.10900725  0.18753825  0.36674358  1
  O2-  O530  1  0.07763677  0.17165479  0.62706552  1
  O2-  O531  1  0.07779295  0.44078539  0.01183703  1
  O2-  O532  1  0.08813177  0.41766930  0.29899545  1
  O2-  O533  1  0.06419883  0.41468328  0.66688445  1
  O2-  O534  1  0.11860089  0.70371154  0.02380098  1
  O2-  O535  1  0.07206141  0.67671250  0.34770436  1
  O2-  O536  1  0.07925646  0.66363199  0.68164938  1
  O2-  O537  1  0.07387858  0.91570181  0.01542893  1
  O2-  O538  1  0.09414281  0.92069770  0.36289961  1
  O2-  O539  1  0.07495372  0.90519881  0.68291760  1
  O2-  O540  1  0.32009679  0.16719159  0.01501532  1
  O2-  O541  1  0.36403605  0.17241127  0.36539322  1
  O2-  O542  1  0.32586566  0.16563937  0.68465918  1
  O2-  O543  1  0.34297922  0.40936579  0.01854469  1
  O2-  O544  1  0.33753082  0.42907626  0.35384017  1
  O2-  O545  1  0.31606852  0.40267705  0.70487882  1
  O2-  O546  1  0.33674823  0.67174209  0.02183992  1
  O2-  O547  1  0.32816626  0.67539024  0.37392993  1
  O2-  O548  1  0.30607011  0.67777447  0.70211479  1
  O2-  O549  1  0.34669884  0.98819616  0.00776770  1
  O2-  O550  1  0.33766031  0.91509863  0.36147723  1
  O2-  O551  1  0.32865206  0.91454595  0.69607179  1
  O2-  O552  1  0.62506592  0.13392936  0.00507571  1
  O2-  O553  1  0.66212723  0.20396808  0.37514128  1
  O2-  O554  1  0.57891860  0.16192721  0.69558752  1
  O2-  O555  1  0.57141089  0.40066427  0.05192158  1
  O2-  O556  1  0.59473576  0.40108407  0.34164825  1
  O2-  O557  1  0.57840606  0.40879362  0.68488559  1
  O2-  O558  1  0.58538636  0.66533467  0.02325294  1
  O2-  O559  1  0.58581936  0.65638960  0.35464235  1
  O2-  O560  1  0.59142941  0.67038354  0.69728560  1
  O2-  O561  1  0.59116939  0.92878543  0.02837658  1
  O2-  O562  1  0.58041216  0.90812222  0.35295735  1
  O2-  O563  1  0.58580265  0.92897781  0.69387769  1
  O2-  O564  1  0.83583246  0.16706568  0.01892845  1
  O2-  O565  1  0.84925373  0.15222396  0.35648320  1
  O2-  O566  1  0.81934959  0.18181955  0.68137227  1
  O2-  O567  1  0.81292631  0.38678760  0.02631071  1
  O2-  O568  1  0.83294396  0.40615841  0.36400143  1
  O2-  O569  1  0.77592085  0.33993421  0.71022593  1
  O2-  O570  1  0.80940941  0.66709006  0.02659879  1
  O2-  O571  1  0.82760860  0.66020168  0.35091026  1
  O2-  O572  1  0.83027365  0.66165502  0.68685864  1
  O2-  O573  1  0.83389257  0.92079916  0.01935939  1
  O2-  O574  1  0.81154923  0.90655105  0.35399576  1
  O2-  O575  1  0.82480620  0.92530245  0.70284195  1
