# generated using pymatgen
data_H2O
_symmetry_space_group_name_H-M   'P 1'
_cell_length_a   17.97690932
_cell_length_b   17.98573962
_cell_length_c   21.99120319
_cell_angle_alpha   89.92505832
_cell_angle_beta   90.04119267
_cell_angle_gamma   119.98141312
_symmetry_Int_Tables_number   1
_chemical_formula_structural   H2O
_chemical_formula_sum   'H384 O192'
_cell_volume   6158.91045624
_cell_formula_units_Z   192
loop_
 _symmetry_equiv_pos_site_id
 _symmetry_equiv_pos_as_xyz
  1  'x, y, z'
loop_
 _atom_type_symbol
 _atom_type_oxidation_number
  H+  1.0
  O2-  -2.0
loop_
 _atom_site_type_symbol
 _atom_site_label
 _atom_site_symmetry_multiplicity
 _atom_site_fract_x
 _atom_site_fract_y
 _atom_site_fract_z
 _atom_site_occupancy
  H+  H0  1  0.27589146  0.63531509  1.00114578  1
  H+  H1  1  0.38051101  0.86043481  0.98494935  1
  H+  H2  1  0.89946474  0.61447644  0.00613967  1
  H+  H3  1  0.14282867  0.61352327  1.00066069  1
  H+  H4  1  0.41140515  0.57500115  0.61513623  1
  H+  H5  1  0.61987997  0.37844712  0.33540397  1
  H+  H6  1  0.85586200  0.89877892  0.17171251  1
  H+  H7  1  0.38652620  0.77440069  0.98742749  1
  H+  H8  1  0.89207774  0.36332198  1.00069086  1
  H+  H9  1  0.35869242  0.71828778  0.82911258  1
  H+  H10  1  0.43179353  0.88245467  0.67478862  1
  H+  H11  1  0.10811849  0.70797041  0.50261783  1
  H+  H12  1  0.11677092  0.38296892  0.47116728  1
  H+  H13  1  0.36253719  0.21141428  0.00637134  1
  H+  H14  1  0.83137668  0.66912888  0.43480994  1
  H+  H15  1  0.21333234  0.10671253  0.83645829  1
  H+  H16  1  0.36648535  -0.04193446  0.31764689  1
  H+  H17  1  0.40584057  0.07588638  0.89917171  1
  H+  H18  1  0.62698174  0.59090594  0.30765258  1
  H+  H19  1  0.22755441  0.35892526  0.49694875  1
  H+  H20  1  0.88918749  0.87976811  0.32595831  1
  H+  H21  1  0.47159422  0.35751587  -0.00520046  1
  H+  H22  1  0.13862957  0.52691154  0.16868731  1
  H+  H23  1  0.45851833  0.08684027  0.50416713  1
  H+  H24  1  0.05976514  0.36916645  0.85728064  1
  H+  H25  1  0.36906298  0.23087289  0.16949435  1
  H+  H26  1  0.52834485  0.62654940  0.53131734  1
  H+  H27  1  0.55161410  0.90315871  0.33197935  1
  H+  H28  1  0.73666350  0.87647968  0.66673748  1
  H+  H29  1  0.47883306  0.10774461  0.98532082  1
  H+  H30  1  0.07305971  0.91608737  0.09566919  1
  H+  H31  1  0.38607704  0.51563562  0.51345636  1
  H+  H32  1  0.12547185  0.84893529  0.98871676  1
  H+  H33  1  0.64708949  0.89710204  0.33512268  1
  H+  H34  1  0.22042994  0.11601150  0.50554206  1
  H+  H35  1  0.35744349  0.62746642  0.82405076  1
  H+  H36  1  0.51823185  0.15056352  0.67267247  1
  H+  H37  1  0.65750832  0.02138828  0.32731423  1
  H+  H38  1  0.78880714  0.63549494  1.00897609  1
  H+  H39  1  0.35730636  0.97092166  -0.00330567  1
  H+  H40  1  0.02239010  0.05333752  0.17443440  1
  H+  H41  1  0.35864778  0.13599856  0.49152320  1
  H+  H42  1  0.08236433  0.91864203  0.43056824  1
  H+  H43  1  0.60654880  0.10040913  0.48901444  1
  H+  H44  1  0.73271988  0.12384241  -0.01737512  1
  H+  H45  1  0.11490345  0.47595339  0.31893954  1
  H+  H46  1  0.13533692  0.50627678  0.48427429  1
  H+  H47  1  0.86538052  0.36627434  0.49405497  1
  H+  H48  1  0.79489127  0.39601926  0.49607283  1
  H+  H49  1  0.88180912  0.48885950  0.65937661  1
  H+  H50  1  0.58480260  0.68937223  0.31459975  1
  H+  H51  1  0.63187993  0.84930690  0.85884589  1
  H+  H52  1  0.60955556  0.96515006  0.74201775  1
  H+  H53  1  0.52838144  0.25578631  0.80098868  1
  H+  H54  1  0.64248124  0.53516657  -0.00447959  1
  H+  H55  1  0.37118034  0.64470040  -0.00053963  1
  H+  H56  1  0.79903146  0.11649280  0.33150163  1
  H+  H57  1  0.88674762  0.26316527  0.85065268  1
  H+  H58  1  0.34140453  0.12124132  0.83038542  1
  H+  H59  1  0.10935311  0.83151323  0.50518000  1
  H+  H60  1  0.38259691  0.86344893  0.15614046  1
  H+  H61  1  0.88131119  0.01914753  0.99459886  1
  H+  H62  1  0.77510869  0.38566245  0.01113435  1
  H+  H63  1  1.02855085  0.38221753  0.32003842  1
  H+  H64  1  0.89545391  0.69750133  0.67190336  1
  H+  H65  1  0.03156424  0.38689704  0.01047879  1
  H+  H66  1  0.02136048  0.91446366  0.67358798  1
  H+  H67  1  0.11527012  0.88336929  0.82028641  1
  H+  H68  1  0.35797734  0.23100895  0.68640910  1
  H+  H69  1  0.65452545  0.63002494  0.99445482  1
  H+  H70  1  0.67897458  0.12015344  0.32745586  1
  H+  H71  1  0.14456887  1.02147423  0.16776833  1
  H+  H72  1  0.86391202  0.38368256  0.15834012  1
  H+  H73  1  0.45383755  0.11712664  0.83622919  1
  H+  H74  1  0.10350542  0.97045750  -0.00538294  1
  H+  H75  1  0.70731172  0.59560600  0.83879781  1
  H+  H76  1  0.83109854  0.20299707  0.68422347  1
  H+  H77  1  0.35614619  0.96964725  0.83339228  1
  H+  H78  1  0.12787457  0.51386599  0.64333445  1
  H+  H79  1  0.38401627  0.35566258  0.17270672  1
  H+  H80  1  0.22118880  0.60805247  0.32246631  1
  H+  H81  1  0.37508509  0.13762088  0.15779006  1
  H+  H82  1  0.38678979  0.60319170  0.51684225  1
  H+  H83  1  0.87229995  0.56874793  0.64464225  1
  H+  H84  1  0.98893574  0.61349933  1.00679041  1
  H+  H85  1  0.77631167  0.63719666  0.15989948  1
  H+  H86  1  0.64195890  0.37654010  0.67800478  1
  H+  H87  1  0.37760293  0.73501722  0.68566250  1
  H+  H88  1  0.64163830  0.60203057  0.52650694  1
  H+  H89  1  0.13484382  0.61460690  0.16768098  1
  H+  H90  1  0.59058411  0.36432518  0.84580493  1
  H+  H91  1  0.14106505  0.36235728  0.99880102  1
  H+  H92  1  0.86702276  0.02158988  0.19337994  1
  H+  H93  1  1.09622565  0.41695120  0.40887659  1
  H+  H94  1  0.63942162  0.26722512  0.16437402  1
  H+  H95  1  0.48464854  0.11583253  0.14692050  1
  H+  H96  1  0.78565881  0.11628350  0.48146461  1
  H+  H97  1  0.88693574  0.80495699  0.66688078  1
  H+  H98  1  0.61229585  0.13151699  0.14851755  1
  H+  H99  1  0.86932250  0.47456680  0.01161420  1
  H+  H100  1  0.87178733  0.10045342  0.84537140  1
  H+  H101  1  0.88364841  0.26939988  0.16324585  1
  H+  H102  1  -0.02321874  0.85979186  0.50463372  1
  H+  H103  1  0.36622827  0.85195756  0.44902009  1
  H+  H104  1  0.60247613  0.63647778  0.83097467  1
  H+  H105  1  0.15798485  0.82367370  0.89739124  1
  H+  H106  1  0.86597452  0.99733612  0.35464068  1
  H+  H107  1  0.49949409  0.85566841  0.69213525  1
  H+  H108  1  0.83174018  0.93098624  0.73990145  1
  H+  H109  1  0.63985487  0.51091408  0.32096796  1
  H+  H110  1  0.39004198  0.61617117  0.67220048  1
  H+  H111  1  0.40768777  0.84672666  0.52918275  1
  H+  H112  1  0.10649392  0.21985729  0.82633182  1
  H+  H113  1  0.22023016  0.85281515  0.83941815  1
  H+  H114  1  0.26947618  0.62025805  0.50014818  1
  H+  H115  1  0.11117412  0.97416734  0.49233668  1
  H+  H116  1  0.59931938  0.18298525  0.50122812  1
  H+  H117  1  0.77111338  0.37625346  0.68612692  1
  H+  H118  1  0.65117263  0.85971754  0.50462385  1
  H+  H119  1  0.87630539  0.08531857  0.53217948  1
  H+  H120  1  0.58362808  0.66947618  0.76931541  1
  H+  H121  1  0.13724690  0.76535126  0.99478902  1
  H+  H122  1  0.60089934  -0.02674728  0.16477500  1
  H+  H123  1  0.33403944  0.66876591  0.74206615  1
  H+  H124  1  0.13458737  0.46608759  0.85645690  1
  H+  H125  1  0.49246406  0.63926493  0.98432599  1
  H+  H126  1  0.61727588  0.39245634  0.49616169  1
  H+  H127  1  0.60671454  0.62514756  0.16933986  1
  H+  H128  1  0.24274570  0.35793011  1.00465456  1
  H+  H129  1  0.52847347  0.20890925  0.37860346  1
  H+  H130  1  0.31599122  0.11808028  0.34427795  1
  H+  H131  1  0.38296014  0.85580980  0.83782866  1
  H+  H132  1  0.74190302  0.12129447  0.70097513  1
  H+  H133  1  0.85226850  0.73741178  0.34450891  1
  H+  H134  1  0.64427014  0.86605044  0.66495264  1
  H+  H135  1  0.26483492  0.88238461  -0.00343248  1
  H+  H136  1  0.88998313  0.34642781  0.32190314  1
  H+  H137  1  0.13284672  0.60123329  0.84396016  1
  H+  H138  1  0.61885337  0.22978550  0.00058919  1
  H+  H139  1  0.85789040  1.03010317  0.64742962  1
  H+  H140  1  0.08683351  0.92729945  0.72747377  1
  H+  H141  1  0.77967744  0.90776442  0.34423381  1
  H+  H142  1  0.66850050  0.08024729  0.22816662  1
  H+  H143  1  0.48242017  0.10143309  0.31442595  1
  H+  H144  1  0.10278500  0.72212124  0.32006217  1
  H+  H145  1  0.36422941  0.59210499  0.31866450  1
  H+  H146  1  0.61829195  0.90596583  -0.03083151  1
  H+  H147  1  0.78528893  0.38117603  0.33319024  1
  H+  H148  1  0.24204514  0.87761419  0.48369037  1
  H+  H149  1  0.44839320  0.34061203  0.84634470  1
  H+  H150  1  0.34973582  0.36190544  0.00726761  1
  H+  H151  1  0.65179400  0.62395855  0.66551304  1
  H+  H152  1  0.86738100  0.87291208  0.49151630  1
  H+  H153  1  0.62151270  0.73052209  0.67105367  1
  H+  H154  1  0.53572942  0.87120299  0.48907204  1
  H+  H155  1  0.37622203  0.37333376  0.69725639  1
  H+  H156  1  0.11610683  0.13855289  0.49347294  1
  H+  H157  1  0.64369569  1.00078788  0.49330642  1
  H+  H158  1  0.88638345  0.51865181  0.16728051  1
  H+  H159  1  0.35069591  0.48013382  0.69281400  1
  H+  H160  1  0.86642747  0.64051289  0.16454263  1
  H+  H161  1  0.03967748  0.42733620  0.62890674  1
  H+  H162  1  0.88926551  0.76871719  0.50766617  1
  H+  H163  1  0.61222580  0.37772700  0.15532235  1
  H+  H164  1  0.27393617  0.64137166  0.15058287  1
  H+  H165  1  0.16212270  0.08914387  0.56557816  1
  H+  H166  1  0.47612324  0.99894795  0.72571892  1
  H+  H167  1  0.12146004  0.10179007  0.83636501  1
  H+  H168  1  0.36286514  0.22778261  0.48683994  1
  H+  H169  1  0.90166058  0.50518508  0.49386666  1
  H+  H170  1  1.01755630  0.89138891  0.15691515  1
  H+  H171  1  0.78127564  0.88647737  0.84306555  1
  H+  H172  1  0.40585827  0.08372385  0.60131712  1
  H+  H173  1  0.23681237  0.83813960  0.68238708  1
  H+  H174  1  0.36275238  0.38195143  0.33590968  1
  H+  H175  1  0.36128880  0.97321702  0.14291058  1
  H+  H176  1  0.53275873  0.40928434  0.69623054  1
  H+  H177  1  0.35870829  0.01623803  0.49960427  1
  H+  H178  1  0.14018337  1.03657411  0.65644852  1
  H+  H179  1  0.86580121  0.91261051  0.67783425  1
  H+  H180  1  0.72813977  0.35732455  0.16814131  1
  H+  H181  1  0.63831715  0.51538403  0.16284016  1
  H+  H182  1  0.22468015  0.60702975  0.84344455  1
  H+  H183  1  0.02728000  0.38625564  0.15749552  1
  H+  H184  1  0.56869497  0.27056739  0.53270670  1
  H+  H185  1  0.27161299  0.37785609  0.15930021  1
  H+  H186  1  0.01637981  0.13269128  -0.00256198  1
  H+  H187  1  0.13012645  0.86497942  0.16305098  1
  H+  H188  1  0.14157276  0.12726494  0.65588237  1
  H+  H189  1  0.71659464  0.36915566  0.86277469  1
  H+  H190  1  0.44334145  0.82689635  0.37687436  1
  H+  H191  1  0.56856872  0.64753113  0.24826483  1
  H+  H192  1  0.20367527  0.12032013  0.32671832  1
  H+  H193  1  0.60943520  0.10796378  0.69444393  1
  H+  H194  1  0.61513959  0.39247278  0.00064004  1
  H+  H195  1  0.85462913  0.48766294  0.83709898  1
  H+  H196  1  0.24593559  0.64658727  0.67248258  1
  H+  H197  1  0.39088059  0.56788729  0.21619309  1
  H+  H198  1  0.86839671  0.63285649  0.48679955  1
  H+  H199  1  0.24131063  0.83351652  0.64885850  1
  H+  H200  1  0.53308093  0.64078391  0.67428646  1
  H+  H201  1  0.10962396  0.89152296  0.33276066  1
  H+  H202  1  0.05658594  0.74238040  0.66039915  1
  H+  H203  1  0.86122481  0.14753905  0.43417766  1
  H+  H204  1  0.11364060  0.23482497  0.66748177  1
  H+  H205  1  0.84959745  0.60849195  0.83082680  1
  H+  H206  1  0.35954551  0.25409070  0.84681822  1
  H+  H207  1  0.88215594  1.01677416  0.84378658  1
  H+  H208  1  0.11031058  0.65053264  0.68249743  1
  H+  H209  1  0.59852624  0.88098754  0.17073559  1
  H+  H210  1  0.14385498  0.38795709  0.63360928  1
  H+  H211  1  0.90019592  0.87705335  0.01195204  1
  H+  H212  1  0.97724470  0.60888347  0.16652595  1
  H+  H213  1  0.27521165  0.12317845  1.00091674  1
  H+  H214  1  0.10701897  0.23113589  0.34038998  1
  H+  H215  1  0.95401274  0.96284276  -0.01817776  1
  H+  H216  1  0.38438147  0.27012337  0.32819478  1
  H+  H217  1  0.71909696  0.10653413  0.16571408  1
  H+  H218  1  1.00906972  0.61204960  0.67893316  1
  H+  H219  1  0.44901599  0.82563664  0.58454552  1
  H+  H220  1  0.53104098  0.90489105  0.98143253  1
  H+  H221  1  0.83409120  0.41357760  0.09901535  1
  H+  H222  1  0.68496593  0.84532430  0.56944504  1
  H+  H223  1  0.12355344  0.23919691  0.49410198  1
  H+  H224  1  0.49167495  0.87364347  0.16290839  1
  H+  H225  1  -0.01897845  0.61043292  0.85315546  1
  H+  H226  1  0.11239548  0.11191411  0.32164124  1
  H+  H227  1  0.45070050  0.59014746  0.30122530  1
  H+  H228  1  0.59096974  0.23749129  0.83473335  1
  H+  H229  1  0.91762452  0.36164323  0.84251911  1
  H+  H230  1  0.61911157  0.71433523  0.52698733  1
  H+  H231  1  0.01868777  0.60986888  0.49588326  1
  H+  H232  1  0.98739789  0.87276619  0.84023293  1
  H+  H233  1  0.63244954  0.75314011  -0.02248419  1
  H+  H234  1  0.97284215  0.87089849  0.32547720  1
  H+  H235  1  0.65995489  0.33356243  1.04498257  1
  H+  H236  1  0.14163083  0.23813004  0.14268745  1
  H+  H237  1  0.10448254  0.72130115  0.15839504  1
  H+  H238  1  0.38909095  0.84570998  0.33092469  1
  H+  H239  1  0.27024519  0.14318675  0.67145366  1
  H+  H240  1  0.13221967  0.26674161  -0.00936089  1
  H+  H241  1  0.11483936  0.97298194  0.82295743  1
  H+  H242  1  0.99393168  0.61178208  0.31493633  1
  H+  H243  1  0.64584484  0.27111864  0.32165685  1
  H+  H244  1  0.66107766  0.81057309  0.34409638  1
  H+  H245  1  0.38772897  0.10605544  -0.01013590  1
  H+  H246  1  0.52386599  0.37886712  0.15696068  1
  H+  H247  1  0.76943013  0.64358893  0.34218845  1
  H+  H248  1  0.88427007  0.78077805  0.17159146  1
  H+  H249  1  0.37771753  0.60707040  0.15498270  1
  H+  H250  1  0.95618187  0.32300775  0.69249431  1
  H+  H251  1  0.47895327  0.35439444  0.32728218  1
  H+  H252  1  0.01094588  0.15114594  0.34824232  1
  H+  H253  1  0.35949931  0.46675881  0.15134198  1
  H+  H254  1  0.32367300  0.81126154  0.44570477  1
  H+  H255  1  0.62869662  0.77586792  0.18700779  1
  H+  H256  1  0.01359617  0.13540753  0.82734986  1
  H+  H257  1  0.39662616  0.09271428  0.29198450  1
  H+  H258  1  0.84950557  0.13302754  0.16132646  1
  H+  H259  1  0.62587431  0.49367870  0.69103160  1
  H+  H260  1  0.89024089  0.35665375  0.67935903  1
  H+  H261  1  0.10655697  -0.02008310  0.33541553  1
  H+  H262  1  0.12071434  0.47659166  0.00816359  1
  H+  H263  1  0.86588056  0.22615597  1.00961858  1
  H+  H264  1  0.38028983  0.11819206  0.66116217  1
  H+  H265  1  0.61198957  0.27848009  0.52207027  1
  H+  H266  1  0.51476585  0.62492918  0.16662459  1
  H+  H267  1  0.22515260  0.35240633  0.32156782  1
  H+  H268  1  0.79225859  0.66077494  0.67538766  1
  H+  H269  1  0.41734760  0.32956082  0.23341469  1
  H+  H270  1  0.74037799  0.47832403  0.55309390  1
  H+  H271  1  0.11760462  0.61537858  0.49848177  1
  H+  H272  1  0.66938150  0.56967580  0.22420035  1
  H+  H273  1  0.18376997  0.71586416  0.04646054  1
  H+  H274  1  0.22277661  0.37611188  0.65389597  1
  H+  H275  1  0.21634898  0.85576365  0.31294935  1
  H+  H276  1  0.36009957  0.38721255  0.48047718  1
  H+  H277  1  0.13943286  0.36379105  0.16887617  1
  H+  H278  1  1.00917193  0.02590425  0.20248893  1
  H+  H279  1  0.88496027  0.25191149  0.51477495  1
  H+  H280  1  0.19254399  0.38193597  0.83082716  1
  H+  H281  1  0.77291057  0.87597844  0.49681640  1
  H+  H282  1  0.51133914  0.86548817  0.82083769  1
  H+  H283  1  0.11100024  0.71771348  0.83293214  1
  H+  H284  1  0.40396511  0.31857810  0.93982458  1
  H+  H285  1  0.47054818  0.60693633  0.82725834  1
  H+  H286  1  0.36130383  0.70746869  0.50535743  1
  H+  H287  1  0.48257289  0.36765338  0.49118476  1
  H+  H288  1  0.61723644  0.47856609  0.49244125  1
  H+  H289  1  0.08398729  0.17298952  0.72508870  1
  H+  H290  1  0.64817021  0.73125219  0.40576808  1
  H+  H291  1  0.28848401  0.40830970  0.74310451  1
  H+  H292  1  0.16810870  0.33383123  0.55768890  1
  H+  H293  1  0.84458754  0.40745609  0.39275490  1
  H+  H294  1  0.06388345  0.83458820  0.65173165  1
  H+  H295  1  0.15894877  0.07307919  0.92791683  1
  H+  H296  1  0.27496880  0.12943438  0.16797059  1
  H+  H297  1  0.08992761  0.66740207  0.09618864  1
  H+  H298  1  0.92566876  0.58432995  0.91533047  1
  H+  H299  1  0.95420353  0.85638067  0.90757691  1
  H+  H300  1  0.05035548  0.32070716  0.74221663  1
  H+  H301  1  0.66317407  0.33282485  0.92495496  1
  H+  H302  1  0.84583786  0.66729405  0.06873835  1
  H+  H303  1  0.58132006  0.41764569  0.05850413  1
  H+  H304  1  0.90339352  0.30709118  0.57494969  1
  H+  H305  1  0.35727488  0.70649321  0.34511118  1
  H+  H306  1  0.66229617  0.84227379  0.24321647  1
  H+  H307  1  0.56577066  0.18872831  0.73623520  1
  H+  H308  1  0.32154230  0.90992755  0.37889456  1
  H+  H309  1  0.66656583  0.59279206  0.90269500  1
  H+  H310  1  0.10008573  0.79028065  0.56967463  1
  H+  H311  1  0.85688201  0.13230456  0.00648792  1
  H+  H312  1  0.41517441  0.33628228  0.54468867  1
  H+  H313  1  0.92362419  0.55688264  0.55660983  1
  H+  H314  1  0.89625229  0.09864661  0.27872290  1
  H+  H315  1  0.43161705  0.07692973  0.20756468  1
  H+  H316  1  0.81678347  0.16062712  0.78102611  1
  H+  H317  1  0.71858392  0.11957136  0.88465384  1
  H+  H318  1  0.95428820  0.11280708  0.19357950  1
  H+  H319  1  0.14002280  0.36048489  0.31557874  1
  H+  H320  1  0.82501634  0.16005456  0.09659371  1
  H+  H321  1  0.90343188  0.07530113  0.93449301  1
  H+  H322  1  0.89830470  0.26089324  0.31988892  1
  H+  H323  1  0.56432294  0.15319100  0.40588477  1
  H+  H324  1  0.87267530  0.89195844  0.83851734  1
  H+  H325  1  0.91411589  0.84157347  0.22983348  1
  H+  H326  1  0.83566601  0.91405010  0.43070569  1
  H+  H327  1  0.64534533  0.03807132  0.96605922  1
  H+  H328  1  0.89785283  0.51021856  0.31758960  1
  H+  H329  1  0.07161327  0.65545791  0.77603770  1
  H+  H330  1  0.07789443  0.36883032  0.74255027  1
  H+  H331  1  0.42731501  0.59816872  0.92980105  1
  H+  H332  1  0.34673760  0.91956670  0.77337702  1
  H+  H333  1  0.59277059  0.90917491  0.42529038  1
  H+  H334  1  0.32474670  0.90901653  0.08690166  1
  H+  H335  1  0.38448357  0.77278758  0.15785848  1
  H+  H336  1  0.67299675  0.32607497  0.26000121  1
  H+  H337  1  0.17038692  0.58802032  0.25806300  1
  H+  H338  1  0.35195384  0.46528772  0.32872189  1
  H+  H339  1  0.23120042  0.94185799  0.44434417  1
  H+  H340  1  0.59058248  0.16359207  0.08491190  1
  H+  H341  1  0.59073884  0.40959711  0.39535538  1
  H+  H342  1  0.68196493  0.58500051  0.61163457  1
  H+  H343  1  0.32769013  0.41970115  0.42541517  1
  H+  H344  1  0.14862285  0.15261156  0.14115062  1
  H+  H345  1  0.78358994  0.48511606  0.79896474  1
  H+  H346  1  0.15567175  0.83514762  0.25570007  1
  H+  H347  1  0.63501364  0.28467249  0.66744479  1
  H+  H348  1  0.16659295  0.08164228  0.22757569  1
  H+  H349  1  0.41783512  0.36211478  0.63979734  1
  H+  H350  1  0.16595544  0.32613212  0.22648078  1
  H+  H351  1  0.16515705  0.57878541  0.93852731  1
  H+  H352  1  0.91740414  0.32432045  0.22391626  1
  H+  H353  1  0.13085616  0.10520258  0.98591438  1
  H+  H354  1  0.61044284  0.68723182  0.41212870  1
  H+  H355  1  0.08239225  0.17202489  0.43169130  1
  H+  H356  1  0.70611566  0.39038994  0.58724993  1
  H+  H357  1  0.13905018  0.52807174  0.55319575  1
  H+  H358  1  0.08994793  0.16651130  0.04989002  1
  H+  H359  1  0.61223462  0.03684236  0.65375655  1
  H+  H360  1  0.31379616  0.16459866  0.40391435  1
  H+  H361  1  0.33300643  0.66986163  0.08970571  1
  H+  H362  1  0.61612864  0.71895177  0.04538496  1
  H+  H363  1  0.11107291  0.63568090  0.32256147  1
  H+  H364  1  0.31911454  0.15632966  0.76940812  1
  H+  H365  1  0.82525219  0.63971409  0.76992409  1
  H+  H366  1  0.92467999  0.33213670  0.94332820  1
  H+  H367  1  0.19969158  0.65388804  0.61336141  1
  H+  H368  1  0.57153835  0.39881976  0.78332993  1
  H+  H369  1  0.73137272  0.60490086  0.51020112  1
  H+  H370  1  0.32987425  0.36281246  0.85409668  1
  H+  H371  1  0.92049713  0.56998929  0.25302932  1
  H+  H372  1  0.09085482  0.41862860  0.10045634  1
  H+  H373  1  0.21894847  0.86355109  0.16275203  1
  H+  H374  1  0.32325998  0.64367575  0.40204940  1
  H+  H375  1  0.41563646  0.82751740  0.89598362  1
  H+  H376  1  0.32075965  0.39309341  0.06844835  1
  H+  H377  1  0.37839525  0.51736223  0.83820673  1
  H+  H378  1  0.76507964  0.89599203  0.17616684  1
  H+  H379  1  0.40985311  1.00494346  0.68274992  1
  H+  H380  1  0.62077752  0.14204534  -0.01053191  1
  H+  H381  1  0.91347851  0.85314218  0.60321551  1
  H+  H382  1  0.82963282  0.41846787  0.74422601  1
  H+  H383  1  0.68633792  0.06650958  0.54822163  1
  O2-  O384  1  0.12712398  0.18560273  0.11905848  1
  O2-  O385  1  0.08907629  0.17382711  0.47814928  1
  O2-  O386  1  0.07335975  0.16143738  0.81045313  1
  O2-  O387  1  0.08945684  0.41876985  0.14630155  1
  O2-  O388  1  0.09643865  0.42039762  0.45420527  1
  O2-  O389  1  0.12241294  0.40566777  0.85682573  1
  O2-  O390  1  0.07729134  0.66115138  0.14368324  1
  O2-  O391  1  0.08528758  0.64700250  0.48526979  1
  O2-  O392  1  0.08000373  0.65542322  0.82078432  1
  O2-  O393  1  0.07811541  0.91936099  0.14087912  1
  O2-  O394  1  0.08582708  0.91480362  0.47595687  1
  O2-  O395  1  0.08786075  0.91525168  0.80296922  1
  O2-  O396  1  0.33908836  0.16740029  0.15490506  1
  O2-  O397  1  0.32746455  0.16549067  0.47633956  1
  O2-  O398  1  0.31469398  0.15508243  0.81470458  1
  O2-  O399  1  0.33220698  0.40357413  0.14331493  1
  O2-  O400  1  0.32805598  0.41748688  0.47121808  1
  O2-  O401  1  0.30381698  0.40108871  0.85543198  1
  O2-  O402  1  0.33476995  0.67107044  0.13596201  1
  O2-  O403  1  0.33040106  0.65042574  0.48574734  1
  O2-  O404  1  0.32551732  0.65887226  0.81205605  1
  O2-  O405  1  0.32810246  0.91112267  0.13303015  1
  O2-  O406  1  0.27478127  0.92737124  0.45660557  1
  O2-  O407  1  0.33008439  0.90969001  0.81675460  1
  O2-  O408  1  0.58598525  0.16431354  0.13103056  1
  O2-  O409  1  0.57073826  0.12791169  0.47950298  1
  O2-  O410  1  0.54280496  0.20888882  0.80497100  1
  O2-  O411  1  0.58306570  0.40911854  0.14030132  1
  O2-  O412  1  0.58618852  0.41759723  0.47557377  1
  O2-  O413  1  0.54427065  0.35895818  0.81799773  1
  O2-  O414  1  0.57720230  0.65911774  0.17737080  1
  O2-  O415  1  0.59150201  0.65224029  0.53485550  1
  O2-  O416  1  0.56866980  0.66154503  0.81283427  1
  O2-  O417  1  0.56776363  0.91038342  0.15340966  1
  O2-  O418  1  0.59432604  0.90346213  0.47165085  1
  O2-  O419  1  0.57516926  0.89104475  0.81235841  1
  O2-  O420  1  0.82087145  0.16257966  0.14245947  1
  O2-  O421  1  0.84895800  0.14448447  0.47818588  1
  O2-  O422  1  0.81832511  0.16119351  0.82788195  1
  O2-  O423  1  0.83213912  0.41355608  0.14525856  1
  O2-  O424  1  0.84618905  0.40452898  0.47343215  1
  O2-  O425  1  0.80471397  0.44562682  0.81123616  1
  O2-  O426  1  0.83860630  0.67316035  0.15018542  1
  O2-  O427  1  0.83666748  0.66383060  0.48091112  1
  O2-  O428  1  0.80129966  0.59712641  0.80302402  1
  O2-  O429  1  0.82725321  0.93377914  0.16814767  1
  O2-  O430  1  0.83394597  0.90265513  0.47714601  1
  O2-  O431  1  0.83746246  0.91705487  0.82198603  1
  O2-  O432  1  0.18187710  0.08135158  0.18405826  1
  O2-  O433  1  0.15951043  0.08650990  0.51917295  1
  O2-  O434  1  0.15266525  0.07284535  0.85184595  1
  O2-  O435  1  0.17039389  0.33258677  0.18132261  1
  O2-  O436  1  0.16638315  0.32581688  0.51190101  1
  O2-  O437  1  0.23106162  0.36083188  0.81280863  1
  O2-  O438  1  0.16981240  0.58827687  0.18213408  1
  O2-  O439  1  0.15811514  0.55909001  0.51365300  1
  O2-  O440  1  0.16548619  0.57449954  0.86101981  1
  O2-  O441  1  0.15995447  0.83508177  0.18013721  1
  O2-  O442  1  0.12944560  0.79771649  0.52851815  1
  O2-  O443  1  0.15868850  0.82297125  0.85155545  1
  O2-  O444  1  0.42366105  0.08546342  0.16403034  1
  O2-  O445  1  0.40023490  0.07272463  0.51763321  1
  O2-  O446  1  0.39731419  0.07357299  0.85338717  1
  O2-  O447  1  0.41445136  0.32477132  0.18794849  1
  O2-  O448  1  0.41862498  0.33539578  0.50056114  1
  O2-  O449  1  0.38883249  0.31412012  0.86322997  1
  O2-  O450  1  0.40305325  0.57245381  0.17162604  1
  O2-  O451  1  0.41403745  0.57177275  0.53493029  1
  O2-  O452  1  0.40879663  0.58011229  0.84332660  1
  O2-  O453  1  0.41424644  0.83446782  0.17272191  1
  O2-  O454  1  0.43965382  0.81772096  0.53953928  1
  O2-  O455  1  0.41396048  0.82482381  0.84984072  1
  O2-  O456  1  0.65910012  0.07634055  0.18344745  1
  O2-  O457  1  0.67413592  0.06428342  0.50481548  1
  O2-  O458  1  0.72604102  0.12681755  0.83888458  1
  O2-  O459  1  0.66701668  0.32554531  0.18338765  1
  O2-  O460  1  0.72487089  0.41865673  0.54652471  1
  O2-  O461  1  0.65870069  0.33093916  0.87967914  1
  O2-  O462  1  0.66650589  0.57535701  0.17909359  1
  O2-  O463  1  0.67364415  0.56853324  0.52907035  1
  O2-  O464  1  0.65383329  0.58582794  0.85845538  1
  O2-  O465  1  0.65428318  0.83735982  0.19773114  1
  O2-  O466  1  0.68524008  0.83622379  0.52432499  1
  O2-  O467  1  0.67405110  0.83657543  0.87861627  1
  O2-  O468  1  0.89484445  0.08604016  0.20749026  1
  O2-  O469  1  0.88329074  0.04722246  0.56183428  1
  O2-  O470  1  0.91040251  0.07876003  0.85792787  1
  O2-  O471  1  0.91785004  0.32974488  0.17879919  1
  O2-  O472  1  0.89868743  0.30877509  0.53057969  1
  O2-  O473  1  0.93146550  0.32251878  0.86367653  1
  O2-  O474  1  0.91727346  0.57829004  0.18476471  1
  O2-  O475  1  0.92946727  0.56541416  0.51163807  1
  O2-  O476  1  0.92124320  0.58231326  0.86977270  1
  O2-  O477  1  0.91398107  0.84235618  0.18448625  1
  O2-  O478  1  0.91628661  0.83085142  0.51953026  1
  O2-  O479  1  0.93502939  0.85426731  0.86522399  1
  O2-  O480  1  0.14666263  0.08553709  0.30719470  1
  O2-  O481  1  0.17225125  0.09655203  0.63963986  1
  O2-  O482  1  0.15937110  0.07194850  0.97361966  1
  O2-  O483  1  0.16473823  0.32246915  0.30566748  1
  O2-  O484  1  0.16730888  0.34836767  0.63107423  1
  O2-  O485  1  0.17071894  0.33061170  0.98424733  1
  O2-  O486  1  0.16304318  0.58310758  0.30368286  1
  O2-  O487  1  0.18666870  0.62793655  0.65371649  1
  O2-  O488  1  0.16807205  0.57770407  0.98398203  1
  O2-  O489  1  0.15531663  0.83254007  0.30164021  1
  O2-  O490  1  0.04330188  0.77735774  0.63206042  1
  O2-  O491  1  0.16015437  0.82390081  0.97374927  1
  O2-  O492  1  0.43135257  0.06525187  0.28806548  1
  O2-  O493  1  0.41435996  0.09150388  0.64586933  1
  O2-  O494  1  0.41732667  0.07509925  0.97229215  1
  O2-  O495  1  0.41866045  0.32914029  0.31174782  1
  O2-  O496  1  0.41331409  0.34896681  0.68298172  1
  O2-  O497  1  0.40883355  0.32136016  0.98527685  1
  O2-  O498  1  0.38698362  0.55961924  0.29568630  1
  O2-  O499  1  0.41594751  0.58043249  0.66032747  1
  O2-  O500  1  0.43053802  0.60648678  0.97432356  1
  O2-  O501  1  0.42377145  0.81653252  0.33474104  1
  O2-  O502  1  0.45086267  0.84066857  0.66364421  1
  O2-  O503  1  0.41406318  0.83372063  0.96978613  1
  O2-  O504  1  0.69659499  0.08250432  0.30839770  1
  O2-  O505  1  0.62382691  0.06012879  0.69483099  1
  O2-  O506  1  0.68049792  0.10202758  0.95651681  1
  O2-  O507  1  0.67728922  0.33023374  0.30587622  1
  O2-  O508  1  0.67182509  0.34755639  0.65943950  1
  O2-  O509  1  0.67269112  0.33788998  1.00166896  1
  O2-  O510  1  0.66834167  0.56981640  0.30334078  1
  O2-  O511  1  0.68607320  0.59463675  0.65628393  1
  O2-  O512  1  0.68185917  0.59564661  0.98331822  1
  O2-  O513  1  0.68417717  0.86162793  0.31848593  1
  O2-  O514  1  0.67752466  0.84234295  0.64680273  1
  O2-  O515  1  0.66453865  0.84344909  0.94210715  1
  O2-  O516  1  0.90195693  0.10143828  0.32568231  1
  O2-  O517  1  0.86352226  0.07567553  0.61877204  1
  O2-  O518  1  0.90497549  0.07885418  0.98022681  1
  O2-  O519  1  0.92112243  0.31934950  0.30299584  1
  O2-  O520  1  0.92396938  0.33204525  0.66022440  1
  O2-  O521  1  0.92419247  0.33312228  0.98850868  1
  O2-  O522  1  0.92555984  0.57015133  0.30025334  1
  O2-  O523  1  0.91012382  0.54565672  0.63628409  1
  O2-  O524  1  0.92991650  0.58208901  0.99157252  1
  O2-  O525  1  0.91292390  0.84438338  0.30986480  1
  O2-  O526  1  0.91525247  0.86297814  0.64759155  1
  O2-  O527  1  0.99892103  0.85509058  0.98528938  1
  O2-  O528  1  0.07973159  0.16280795  0.00463589  1
  O2-  O529  1  0.07196125  0.17208311  0.35976115  1
  O2-  O530  1  0.09180127  0.17507016  0.68053175  1
  O2-  O531  1  0.09287228  0.41575393  0.02416779  1
  O2-  O532  1  0.09029918  0.41472280  0.33228471  1
  O2-  O533  1  0.10166793  0.45935715  0.61981429  1
  O2-  O534  1  0.12409541  0.68373452  0.03285723  1
  O2-  O535  1  0.07408229  0.66098160  0.33381861  1
  O2-  O536  1  0.06242859  0.65858578  0.69732623  1
  O2-  O537  1  0.07767291  0.91172098  0.01509729  1
  O2-  O538  1  0.08102480  0.92074002  0.35260577  1
  O2-  O539  1  0.08254731  0.93233198  0.68209749  1
  O2-  O540  1  0.33482424  0.14920277  0.01604237  1
  O2-  O541  1  0.30852718  0.16540953  0.35789854  1
  O2-  O542  1  0.32892897  0.16765904  0.69077944  1
  O2-  O543  1  0.31544470  0.38888839  0.02279067  1
  O2-  O544  1  0.32750912  0.40756597  0.34931869  1
  O2-  O545  1  0.31373540  0.41721304  0.70166329  1
  O2-  O546  1  0.33665739  0.67125429  0.01575095  1
  O2-  O547  1  0.32132928  0.64480131  0.35685091  1
  O2-  O548  1  0.33828771  0.67334774  0.69542369  1
  O2-  O549  1  0.32540566  0.91042323  0.01239152  1
  O2-  O550  1  0.33001840  0.90038746  0.33588984  1
  O2-  O551  1  0.41955089  0.96348764  0.70725448  1
  O2-  O552  1  0.58704605  0.16571628  0.01001215  1
  O2-  O553  1  0.55396277  0.17439245  0.36610928  1
  O2-  O554  1  0.57601217  0.17824453  0.69266189  1
  O2-  O555  1  0.58033172  0.42002994  0.01337588  1
  O2-  O556  1  0.58532105  0.40432552  0.35021943  1
  O2-  O557  1  0.59420117  0.43300718  0.70614669  1
  O2-  O558  1  0.60859973  0.69876137  0.00360635  1
  O2-  O559  1  0.55908040  0.63419557  0.29395441  1
  O2-  O560  1  0.59476153  0.67042190  0.68587511  1
  O2-  O561  1  0.59378256  0.93956605  -0.01253634  1
  O2-  O562  1  0.60666444  0.93262747  0.35367920  1
  O2-  O563  1  0.58612784  0.90249264  0.74570086  1
  O2-  O564  1  0.82907891  0.16483184  0.02241798  1
  O2-  O565  1  0.86039384  0.14921255  0.34753702  1
  O2-  O566  1  0.80389204  0.15229808  0.71043613  1
  O2-  O567  1  0.83835715  0.41311984  0.02485650  1
  O2-  O568  1  0.84618895  0.40964491  0.34729492  1
  O2-  O569  1  0.83228829  0.40316238  0.70041393  1
  O2-  O570  1  0.84843895  0.65952274  0.02440855  1
  O2-  O571  1  0.82356517  0.68031880  0.36439945  1
  O2-  O572  1  0.84999589  0.70076509  0.69395436  1
  O2-  O573  1  0.90016303  0.93074786  0.00395500  1
  O2-  O574  1  0.83967795  0.93487822  0.36333234  1
  O2-  O575  1  0.82983885  0.93581571  0.69482658  1
