# generated using pymatgen
data_H2O
_symmetry_space_group_name_H-M   'P 1'
_cell_length_a   17.98772733
_cell_length_b   17.99771924
_cell_length_c   21.98575244
_cell_angle_alpha   90.02932943
_cell_angle_beta   89.96332386
_cell_angle_gamma   120.00901136
_symmetry_Int_Tables_number   1
_chemical_formula_structural   H2O
_chemical_formula_sum   'H384 O192'
_cell_volume   6163.48283612
_cell_formula_units_Z   192
loop_
 _symmetry_equiv_pos_site_id
 _symmetry_equiv_pos_as_xyz
  1  'x, y, z'
loop_
 _atom_type_symbol
 _atom_type_oxidation_number
  H+  1.0
  O2-  -2.0
loop_
 _atom_site_type_symbol
 _atom_site_label
 _atom_site_symmetry_multiplicity
 _atom_site_fract_x
 _atom_site_fract_y
 _atom_site_fract_z
 _atom_site_occupancy
  H+  H0  1  0.11579633  0.46771899  0.00660058  1
  H+  H1  1  0.02572435  0.88139110  0.49716007  1
  H+  H2  1  0.82372481  0.11035839  0.33480377  1
  H+  H3  1  0.39329371  0.34901760  0.83263314  1
  H+  H4  1  0.14217984  0.56566408  0.85710458  1
  H+  H5  1  0.76838818  0.13849363  0.00690268  1
  H+  H6  1  0.63755899  0.49427445  0.64363377  1
  H+  H7  1  0.36315375  0.86382176  0.47505106  1
  H+  H8  1  0.61322909  0.25782462  0.18835035  1
  H+  H9  1  0.14950183  0.62290726  0.32836168  1
  H+  H10  1  0.40038600  0.12158715  0.66533266  1
  H+  H11  1  0.38874271  0.25537623  0.83465889  1
  H+  H12  1  0.45764251  0.86051757  -0.01168318  1
  H+  H13  1  0.37274563  0.87149640  0.29560647  1
  H+  H14  1  0.69809077  0.96692997  0.06195642  1
  H+  H15  1  0.76837080  0.12329602  0.49372227  1
  H+  H16  1  0.64806037  0.76827255  0.66545118  1
  H+  H17  1  0.61242618  0.72336826  0.50052009  1
  H+  H18  1  0.60958602  0.72063456  1.00760195  1
  H+  H19  1  0.60540200  0.45647438  0.80626194  1
  H+  H20  1  0.47980417  0.61313737  0.50687977  1
  H+  H21  1  0.84296755  0.87193775  0.82779865  1
  H+  H22  1  0.92429733  0.54802998  0.15723443  1
  H+  H23  1  0.15003035  0.86475383  0.32943125  1
  H+  H24  1  0.91938895  0.83254862  1.07898083  1
  H+  H25  1  0.12222460  0.98161716  0.66345294  1
  H+  H26  1  0.40939153  0.35896940  0.65187772  1
  H+  H27  1  0.52861511  0.40508465  0.16418814  1
  H+  H28  1  0.51760363  0.36665078  0.80985227  1
  H+  H29  1  0.84555109  -0.00420352  0.31835347  1
  H+  H30  1  0.52203887  0.12663434  0.16111967  1
  H+  H31  1  0.34150544  0.61051884  0.67684068  1
  H+  H32  1  0.89383501  0.23597962  0.68303976  1
  H+  H33  1  0.33563930  0.41070362  0.06312785  1
  H+  H34  1  0.38926939  0.03756883  0.52132183  1
  H+  H35  1  0.14454172  0.35615855  0.50596911  1
  H+  H36  1  0.37001257  0.63156656  0.49007846  1
  H+  H37  1  0.28424322  0.37815254  0.82795459  1
  H+  H38  1  0.65973924  0.09920331  0.27404472  1
  H+  H39  1  0.39629130  0.14910659  0.14687409  1
  H+  H40  1  0.86812774  -0.02555368  0.49593682  1
  H+  H41  1  0.65824617  0.13696577  0.66372065  1
  H+  H42  1  0.53042073  0.13822467  1.00842813  1
  H+  H43  1  0.17433662  0.07111589  0.26348170  1
  H+  H44  1  0.87438576  0.38158423  0.32902414  1
  H+  H45  1  0.84942601  0.96050946  0.83532866  1
  H+  H46  1  0.47694526  0.88524871  0.83703603  1
  H+  H47  1  0.54263466  0.14027024  0.67273560  1
  H+  H48  1  0.10922854  0.22043311  0.01559084  1
  H+  H49  1  0.13815023  0.10474329  0.51453129  1
  H+  H50  1  0.58143945  0.94143261  0.67018616  1
  H+  H51  1  0.71222615  0.60521110  0.48979344  1
  H+  H52  1  0.86762029  0.59812074  0.54715278  1
  H+  H53  1  0.85790728  0.18075661  0.17966043  1
  H+  H54  1  0.07209528  0.35857725  0.62140197  1
  H+  H55  1  0.12285710  0.20744778  0.67970398  1
  H+  H56  1  0.49123645  0.34667771  0.64355545  1
  H+  H57  1  0.75824079  0.63813874  0.33637325  1
  H+  H58  1  0.92576017  0.08533808  0.59513780  1
  H+  H59  1  0.36410817  0.47376466  0.15855723  1
  H+  H60  1  1.01442308  0.43219394  0.84500978  1
  H+  H61  1  0.64326063  0.60094862  0.82355424  1
  H+  H62  1  0.40145021  0.53092062  0.32622156  1
  H+  H63  1  0.41284863  0.35947163  0.32205279  1
  H+  H64  1  0.52602812  0.14486519  0.34405622  1
  H+  H65  1  0.16919823  0.13426903  0.35548198  1
  H+  H66  1  0.75460042  0.38613857  0.34524789  1
  H+  H67  1  0.89846824  0.11541829  0.65710331  1
  H+  H68  1  0.11064088  0.89263171  0.15598999  1
  H+  H69  1  0.36255263  0.88940364  0.66899178  1
  H+  H70  1  0.60320438  0.62967339  0.49122964  1
  H+  H71  1  0.37588533  1.00127542  0.82641685  1
  H+  H72  1  0.39779981  0.27913500  0.16197479  1
  H+  H73  1  0.89089358  0.86588223  0.51140101  1
  H+  H74  1  0.28495503  0.64392618  0.16727136  1
  H+  H75  1  0.16939405  0.61373674  1.01941411  1
  H+  H76  1  0.75168293  0.39097967  0.67615891  1
  H+  H77  1  0.77011264  0.62720386  0.15824344  1
  H+  H78  1  0.13689481  0.63537686  0.65534305  1
  H+  H79  1  0.76558978  0.87186624  0.34906446  1
  H+  H80  1  0.10211800  0.43545016  0.83138980  1
  H+  H81  1  0.38613814  0.79806589  0.84794584  1
  H+  H82  1  0.40194687  0.01831658  0.31488870  1
  H+  H83  1  0.60976506  0.63145338  1.00679549  1
  H+  H84  1  0.29461940  0.63237858  0.01757236  1
  H+  H85  1  0.23505322  0.60612874  0.50418487  1
  H+  H86  1  0.46148118  0.83970132  0.66037752  1
  H+  H87  1  0.63777264  0.27443459  0.51890726  1
  H+  H88  1  0.72432417  0.09768384  0.84277963  1
  H+  H89  1  0.00181578  0.11095709  0.84184697  1
  H+  H90  1  0.60366838  0.45889796  0.99528123  1
  H+  H91  1  0.13880748  0.77975865  0.65735355  1
  H+  H92  1  0.25871277  0.11923994  0.84229417  1
  H+  H93  1  0.62476176  0.34876419  0.82974834  1
  H+  H94  1  0.23411291  0.46698312  0.27930432  1
  H+  H95  1  0.36396532  0.25970589  0.98150805  1
  H+  H96  1  0.12106121  0.73175153  0.33827308  1
  H+  H97  1  0.39924392  0.03232286  0.66065257  1
  H+  H98  1  0.96612727  0.11777126  0.37965099  1
  H+  H99  1  0.41917128  0.32685386  0.22692250  1
  H+  H100  1  0.53736231  0.65818710  0.33951647  1
  H+  H101  1  0.63440891  0.11210097  0.99591330  1
  H+  H102  1  0.91006312  0.48687652  0.52130133  1
  H+  H103  1  0.51374927  0.60714618  0.67060082  1
  H+  H104  1  0.88101924  0.77368642  0.50701661  1
  H+  H105  1  0.08300286  0.66213152  0.39237309  1
  H+  H106  1  0.09775027  0.65917373  -0.04027055  1
  H+  H107  1  0.63958124  0.53454377  0.17954746  1
  H+  H108  1  0.88828355  0.10811561  0.50533695  1
  H+  H109  1  0.88291766  0.76766687  0.32802115  1
  H+  H110  1  0.39402479  0.10347978  0.32536175  1
  H+  H111  1  0.96499240  0.61015764  0.32183777  1
  H+  H112  1  0.11365662  0.20630282  0.83459625  1
  H+  H113  1  0.14530437  0.52293858  0.17536836  1
  H+  H114  1  1.02566098  0.87692987  0.34130645  1
  H+  H115  1  0.37014231  0.22323551  0.66552370  1
  H+  H116  1  1.01731007  0.12602555  0.16930549  1
  H+  H117  1  0.85695562  0.89112304  0.02249123  1
  H+  H118  1  0.63868840  0.02104577  0.19128523  1
  H+  H119  1  0.77973445  0.89039746  0.66885719  1
  H+  H120  1  0.85413874  0.72024038  1.01400416  1
  H+  H121  1  0.13992469  0.35611442  0.99079557  1
  H+  H122  1  0.60255500  0.90899403  0.37665475  1
  H+  H123  1  0.86619840  0.19179554  0.82817431  1
  H+  H124  1  0.37948898  0.89614204  0.82956994  1
  H+  H125  1  0.14646654  0.79045729  0.17855504  1
  H+  H126  1  0.02582081  0.88484467  0.66377374  1
  H+  H127  1  0.23699089  0.64844926  0.85828151  1
  H+  H128  1  0.62103307  0.22433927  0.00637722  1
  H+  H129  1  0.37046540  0.72201648  0.48778499  1
  H+  H130  1  0.47012063  0.61469460  0.84532395  1
  H+  H131  1  0.97996936  0.87049598  0.84314558  1
  H+  H132  1  0.36963658  0.65654378  0.84573475  1
  H+  H133  1  0.81284182  0.43945485  0.15818227  1
  H+  H134  1  0.11784791  0.46754421  0.49619557  1
  H+  H135  1  0.84810040  0.63100715  -0.00622442  1
  H+  H136  1  0.09023346  0.22881530  0.29285986  1
  H+  H137  1  0.13594461  0.27195023  0.17562927  1
  H+  H138  1  0.14074492  1.01671649  0.51033138  1
  H+  H139  1  0.87980746  0.11135857  0.99190740  1
  H+  H140  1  0.98009893  0.35099520  0.50389012  1
  H+  H141  1  0.59343902  0.38880149  0.71442857  1
  H+  H142  1  0.71057967  0.86244226  0.84531259  1
  H+  H143  1  -0.02690023  0.38603304  0.33061547  1
  H+  H144  1  0.14541717  0.61121413  0.18716646  1
  H+  H145  1  0.71928615  0.95059427  0.30744502  1
  H+  H146  1  0.37144549  0.62711547  0.33778599  1
  H+  H147  1  0.13966158  0.79974024  0.98292634  1
  H+  H148  1  1.02525408  0.65555664  0.82343951  1
  H+  H149  1  0.85546439  0.36709812  0.48701670  1
  H+  H150  1  0.52907860  0.14179398  0.49990378  1
  H+  H151  1  0.11806489  0.21689065  0.49937885  1
  H+  H152  1  1.02429983  0.38046096  1.00525206  1
  H+  H153  1  0.72080128  0.85652338  -0.00660314  1
  H+  H154  1  0.36679623  0.76335894  0.65133922  1
  H+  H155  1  0.17947136  0.58595648  0.27219749  1
  H+  H156  1  0.84593458  0.62316242  0.72320100  1
  H+  H157  1  0.92084203  0.47318072  1.05293104  1
  H+  H158  1  0.59977355  0.74088918  0.16056808  1
  H+  H159  1  0.02837882  0.12551435  0.67603693  1
  H+  H160  1  0.18475671  1.05678174  0.00089286  1
  H+  H161  1  0.61350944  0.13301691  0.82950342  1
  H+  H162  1  0.36267533  0.38415661  0.15862483  1
  H+  H163  1  0.14584827  0.88246175  0.84798726  1
  H+  H164  1  0.39195064  0.27403571  0.49326532  1
  H+  H165  1  0.48039540  0.61557374  0.17617540  1
  H+  H166  1  0.23022739  0.86884195  0.65751011  1
  H+  H167  1  0.11115665  0.71050179  0.49118469  1
  H+  H168  1  0.38983693  0.12308956  0.98560764  1
  H+  H169  1  0.86530029  0.52602069  0.67743004  1
  H+  H170  1  0.88934926  0.31607607  0.84656868  1
  H+  H171  1  0.85421444  0.49268766  0.81779176  1
  H+  H172  1  -0.04967687  0.46623653  0.59763233  1
  H+  H173  1  0.37992471  0.62774260  1.01827185  1
  H+  H174  1  0.03798983  0.32029787  0.63845305  1
  H+  H175  1  0.87600205  0.89427585  0.66234514  1
  H+  H176  1  0.37297094  0.38821283  0.48336628  1
  H+  H177  1  0.61082079  0.39774752  0.17387652  1
  H+  H178  1  0.82774493  0.41253557  0.43674709  1
  H+  H179  1  0.85684916  0.40824115  0.83240468  1
  H+  H180  1  0.64481045  0.62670093  0.17636333  1
  H+  H181  1  0.62999599  0.89097972  1.02389923  1
  H+  H182  1  0.88157716  0.27118496  -0.00470828  1
  H+  H183  1  0.82339675  0.41258675  0.06568106  1
  H+  H184  1  0.12344369  0.91012419  1.00226178  1
  H+  H185  1  0.14612148  1.00749925  0.32214266  1
  H+  H186  1  0.28228009  0.13341265  0.67063018  1
  H+  H187  1  0.63864693  0.85156492  0.67013539  1
  H+  H188  1  0.60934102  0.97336471  0.47871197  1
  H+  H189  1  0.72790975  0.12844386  0.33709942  1
  H+  H190  1  0.79678398  0.16049008  0.67034875  1
  H+  H191  1  0.28227192  0.38466043  0.48438703  1
  H+  H192  1  0.13723359  0.09746277  0.66380798  1
  H+  H193  1  0.51929292  0.37738016  0.47263938  1
  H+  H194  1  0.89545507  0.09761964  0.84062896  1
  H+  H195  1  -0.02232210  0.87034100  0.02154426  1
  H+  H196  1  0.49089236  0.85228406  0.19562456  1
  H+  H197  1  -0.04688984  0.60908080  -0.02967393  1
  H+  H198  1  0.64340060  0.02728072  1.00122484  1
  H+  H199  1  0.70057136  0.88428987  0.16710454  1
  H+  H200  1  0.42438975  0.76365663  -0.00539465  1
  H+  H201  1  0.84284270  0.64338803  0.48442850  1
  H+  H202  1  0.40872137  0.31821907  0.92376583  1
  H+  H203  1  0.89181979  0.78813169  0.67017156  1
  H+  H204  1  0.10731334  0.40103232  0.33417218  1
  H+  H205  1  0.87431357  0.76441375  0.77419037  1
  H+  H206  1  0.47610201  0.11325328  0.83553465  1
  H+  H207  1  0.36311137  0.94608721  0.44989100  1
  H+  H208  1  0.58664760  0.17347325  0.43987387  1
  H+  H209  1  0.59866822  0.60207035  0.66242162  1
  H+  H210  1  -0.01811446  0.09060714  0.36487951  1
  H+  H211  1  0.88719691  0.59748861  0.62863893  1
  H+  H212  1  0.10822003  0.48624612  0.34557071  1
  H+  H213  1  0.85562977  0.87179937  0.34294075  1
  H+  H214  1  0.12439751  0.62955377  0.48641176  1
  H+  H215  1  0.55287277  0.35761162  0.32515196  1
  H+  H216  1  0.36036067  0.37831083  0.00145612  1
  H+  H217  1  0.72479083  0.36212672  0.51934268  1
  H+  H218  1  0.39290026  0.76566773  0.18318289  1
  H+  H219  1  0.28552764  0.12561984  0.33388649  1
  H+  H220  1  0.84610531  0.47599484  0.34229656  1
  H+  H221  1  0.27596778  0.13852887  0.49300783  1
  H+  H222  1  0.60842646  -0.02329819  0.82615226  1
  H+  H223  1  0.48210176  0.60602521  0.99601494  1
  H+  H224  1  0.87710666  1.02037281  -0.00468870  1
  H+  H225  1  0.11454876  0.38579378  0.16010835  1
  H+  H226  1  0.17362481  0.85349653  0.23236369  1
  H+  H227  1  0.15878255  0.33905797  0.65893070  1
  H+  H228  1  1.01794347  0.13609263  1.01613057  1
  H+  H229  1  0.98362919  0.37888433  0.17934162  1
  H+  H230  1  1.00469426  0.56860049  0.53016884  1
  H+  H231  1  0.71242632  0.59063471  0.64253735  1
  H+  H232  1  0.48040985  0.85788243  0.49382771  1
  H+  H233  1  0.88581689  0.62544280  0.81734317  1
  H+  H234  1  0.72186803  0.58832493  0.81374761  1
  H+  H235  1  0.11022111  0.98085791  0.15670784  1
  H+  H236  1  0.01617292  0.64681806  0.67767733  1
  H+  H237  1  0.87430723  -0.01020184  0.66009932  1
  H+  H238  1  0.28253054  0.90625889  0.16039376  1
  H+  H239  1  0.10289986  0.51172157  0.68179492  1
  H+  H240  1  0.16590510  0.11797575  0.85258054  1
  H+  H241  1  0.81510936  0.14856066  0.39956096  1
  H+  H242  1  0.98030226  0.11036758  0.50558661  1
  H+  H243  1  0.82593157  0.55603232  0.54321436  1
  H+  H244  1  0.36582906  0.47244296  0.82855367  1
  H+  H245  1  0.27556225  0.57819784  0.72899841  1
  H+  H246  1  0.08085418  0.25084624  0.31845329  1
  H+  H247  1  0.39149849  0.52118452  0.49764386  1
  H+  H248  1  0.22122737  0.62579812  0.66246553  1
  H+  H249  1  0.51827676  0.36950278  0.99570613  1
  H+  H250  1  0.88225547  0.31137036  0.17694943  1
  H+  H251  1  0.21538890  0.10532631  0.16078867  1
  H+  H252  1  0.09224996  0.67892492  0.24703580  1
  H+  H253  1  0.62713922  0.10458129  0.17890274  1
  H+  H254  1  0.36466905  0.45896842  0.66851777  1
  H+  H255  1  0.39184200  0.51523119  0.99409207  1
  H+  H256  1  0.64226948  0.62987846  0.32985153  1
  H+  H257  1  0.11797701  0.66343910  0.83183932  1
  H+  H258  1  0.82007091  0.63982316  0.09521269  1
  H+  H259  1  0.28622347  0.13645541  0.06264621  1
  H+  H260  1  0.14533847  0.33329795  0.84311175  1
  H+  H261  1  0.28473977  0.90715793  1.00944482  1
  H+  H262  1  0.71813302  0.36237077  0.83475161  1
  H+  H263  1  0.85874649  0.21130541  0.49177426  1
  H+  H264  1  0.61237407  0.47284832  0.47026712  1
  H+  H265  1  0.98304738  0.88279459  0.17565754  1
  H+  H266  1  0.29624742  0.50631597  0.61524464  1
  H+  H267  1  0.88395801  0.09082646  0.15288075  1
  H+  H268  1  0.63478152  0.34750270  0.98941951  1
  H+  H269  1  0.62348796  0.77539605  0.84144233  1
  H+  H270  1  0.72648136  0.35557060  0.15050317  1
  H+  H271  1  0.07709165  0.92183987  0.91152371  1
  H+  H272  1  0.39179859  0.61463761  0.17784511  1
  H+  H273  1  0.28253536  0.90544935  0.82293587  1
  H+  H274  1  0.12780994  -0.00795327  0.86217408  1
  H+  H275  1  0.22610139  0.84926890  0.49342423  1
  H+  H276  1  0.73144828  0.85433638  0.50941225  1
  H+  H277  1  0.38965894  1.02639756  0.16955980  1
  H+  H278  1  0.63329219  0.14040696  0.33564098  1
  H+  H279  1  0.68145033  0.06103635  0.66587413  1
  H+  H280  1  0.64589252  0.86760220  0.27894371  1
  H+  H281  1  0.24750256  0.34004624  0.66226762  1
  H+  H282  1  0.86236836  0.59053171  0.16566448  1
  H+  H283  1  0.40080950  0.26530835  0.32153017  1
  H+  H284  1  0.87998454  0.40975988  0.65435443  1
  H+  H285  1  0.63669933  0.11183630  0.50469299  1
  H+  H286  1  0.58327576  0.67703211  0.10446152  1
  H+  H287  1  0.13138498  0.11115102  0.17592929  1
  H+  H288  1  0.35097948  0.88865175  0.36316886  1
  H+  H289  1  0.92892443  0.92215579  0.19984964  1
  H+  H290  1  0.18331570  0.60041098  0.94856160  1
  H+  H291  1  0.33811031  0.15983554  0.77301463  1
  H+  H292  1  0.33947022  0.65759623  0.40500210  1
  H+  H293  1  0.33863710  0.92489738  0.72847694  1
  H+  H294  1  0.89950960  0.57171159  0.26583591  1
  H+  H295  1  0.56938547  0.90189363  0.73679841  1
  H+  H296  1  0.58778492  0.67879261  0.40094905  1
  H+  H297  1  0.38338727  0.11820305  0.83421045  1
  H+  H298  1  0.42146020  0.09345637  0.92821624  1
  H+  H299  1  0.91746960  0.32885992  0.56007307  1
  H+  H300  1  0.37356517  0.99208587  0.00874191  1
  H+  H301  1  0.59845164  0.88320285  0.82947286  1
  H+  H302  1  0.18659371  0.37352064  0.25389408  1
  H+  H303  1  0.91611061  0.82905988  0.60032877  1
  H+  H304  1  0.59345268  0.39682733  0.41237903  1
  H+  H305  1  0.90106785  0.59202448  0.88218492  1
  H+  H306  1  0.65233520  0.82858233  0.93879348  1
  H+  H307  1  0.16837716  0.07251673  0.60048252  1
  H+  H308  1  0.08358121  0.41511393  0.10194758  1
  H+  H309  1  -0.01672060  0.43096233  0.66255538  1
  H+  H310  1  0.68584614  0.72492397  0.78471399  1
  H+  H311  1  0.65795777  0.57452483  0.92622226  1
  H+  H312  1  0.12000605  0.88317663  0.66183843  1
  H+  H313  1  0.61414100  0.22252397  0.82539038  1
  H+  H314  1  0.92369350  0.07921650  0.90912335  1
  H+  H315  1  0.18426798  0.86085802  0.92754830  1
  H+  H316  1  0.60831223  0.24456080  0.34922228  1
  H+  H317  1  0.07453856  0.66946626  0.02721095  1
  H+  H318  1  0.29944370  0.40423105  0.32737265  1
  H+  H319  1  0.42531088  0.09064818  0.22856555  1
  H+  H320  1  0.07525581  0.16271972  0.10978354  1
  H+  H321  1  0.59799196  0.66361397  0.75490488  1
  H+  H322  1  0.88994628  0.36519404  1.00268501  1
  H+  H323  1  0.84130868  0.14711244  0.76456624  1
  H+  H324  1  0.27717832  0.63226691  0.34173760  1
  H+  H325  1  0.02908079  0.64859681  0.19305243  1
  H+  H326  1  0.91872389  0.36148185  0.26279339  1
  H+  H327  1  0.23125464  0.11143021  0.94440812  1
  H+  H328  1  0.58836799  0.16098271  0.10495723  1
  H+  H329  1  0.84827540  -0.00905717  0.16312633  1
  H+  H330  1  0.85694806  0.04395463  0.25429368  1
  H+  H331  1  0.18228919  0.32549656  0.56119439  1
  H+  H332  1  0.84808138  0.63373534  0.33952198  1
  H+  H333  1  0.09316814  0.93691936  0.06201332  1
  H+  H334  1  0.23898209  0.86199795  0.31616411  1
  H+  H335  1  0.36668121  0.14378195  0.49639356  1
  H+  H336  1  0.64928474  0.34489375  0.60762483  1
  H+  H337  1  0.17325237  0.22333317  0.36057963  1
  H+  H338  1  0.67440690  0.82857520  0.56890470  1
  H+  H339  1  0.41594432  0.58168010  0.90602367  1
  H+  H340  1  0.80703682  0.91799834  0.06973964  1
  H+  H341  1  0.05741880  0.46421236  0.74503548  1
  H+  H342  1  0.08543389  0.91004577  0.40039922  1
  H+  H343  1  0.81894560  0.67372902  0.42287818  1
  H+  H344  1  0.91832829  0.83453663  0.27154936  1
  H+  H345  1  0.34337854  0.93368420  0.10213492  1
  H+  H346  1  0.10789790  0.15645068  0.44495427  1
  H+  H347  1  0.17350071  0.58461879  0.56271201  1
  H+  H348  1  0.43242182  0.33583117  0.55058719  1
  H+  H349  1  0.22732417  0.35981460  0.16521683  1
  H+  H350  1  0.08423866  0.41041190  0.43650147  1
  H+  H351  1  0.71518121  0.60646937  0.98572361  1
  H+  H352  1  0.42743108  0.10045556  0.57671525  1
  H+  H353  1  0.67052081  0.59763143  0.27035293  1
  H+  H354  1  0.34903681  0.67323505  0.10904607  1
  H+  H355  1  0.59591812  0.16334263  0.73453176  1
  H+  H356  1  0.38673912  0.56187619  0.58556535  1
  H+  H357  1  0.59873994  0.90493991  0.12521836  1
  H+  H358  1  0.07765318  0.14608557  0.77291734  1
  H+  H359  1  0.08319859  0.68012260  0.73213820  1
  H+  H360  1  0.14520278  0.79457006  0.83363713  1
  H+  H361  1  0.34004341  0.16101134  0.39505890  1
  H+  H362  1  0.67006861  0.08431358  0.56250474  1
  H+  H363  1  0.83694969  0.91086199  0.43809133  1
  H+  H364  1  0.17342978  0.31295952  0.90676184  1
  H+  H365  1  0.91204230  0.35226800  0.91456458  1
  H+  H366  1  0.81474013  0.41530222  0.73539033  1
  H+  H367  1  0.79508586  0.86706856  0.15490842  1
  H+  H368  1  0.11395735  0.87935527  0.49328396  1
  H+  H369  1  0.66166926  0.31536738  0.93181814  1
  H+  H370  1  0.35035848  0.40928485  0.73198007  1
  H+  H371  1  0.89823002  0.79448434  0.87362027  1
  H+  H372  1  0.66557687  0.07596051  0.90259331  1
  H+  H373  1  0.87096544  0.51792627  0.98002096  1
  H+  H374  1  0.82699966  0.17184582  0.06679541  1
  H+  H375  1  0.23017248  0.35728647  0.99406696  1
  H+  H376  1  0.34271976  0.68503237  0.78607422  1
  H+  H377  1  0.42097514  0.82930114  0.55463263  1
  H+  H378  1  0.65160041  0.55752974  0.54719266  1
  H+  H379  1  0.17603638  0.83072361  0.55716706  1
  H+  H380  1  0.42240926  0.59035175  0.26641283  1
  H+  H381  1  0.76112636  0.14994961  0.16832147  1
  H+  H382  1  0.64427687  0.32218898  0.24625223  1
  H+  H383  1  0.34937056  0.41953552  0.38998695  1
  O2-  O384  1  0.07751025  0.16270850  0.15595692  1
  O2-  O385  1  0.08695468  0.15499433  0.48780392  1
  O2-  O386  1  0.07560563  0.14552372  0.81908027  1
  O2-  O387  1  0.08577159  0.41892212  0.14722486  1
  O2-  O388  1  0.08666693  0.40665388  0.48156743  1
  O2-  O389  1  0.07297286  0.46836012  0.82585231  1
  O2-  O390  1  0.08990673  0.67125347  0.20283986  1
  O2-  O391  1  0.08446161  0.65071593  0.47534951  1
  O2-  O392  1  0.08676095  0.68784779  0.81006421  1
  O2-  O393  1  0.07893467  0.92081669  0.13949126  1
  O2-  O394  1  0.08577230  0.91306802  0.48154394  1
  O2-  O395  1  0.08347459  0.92765520  0.86723413  1
  O2-  O396  1  0.38106629  0.18747590  0.12144188  1
  O2-  O397  1  0.33551855  0.17011076  0.47648742  1
  O2-  O398  1  0.34102465  0.16043482  0.81769115  1
  O2-  O399  1  0.33234447  0.41429360  0.14208586  1
  O2-  O400  1  0.34247545  0.41866812  0.46907609  1
  O2-  O401  1  0.34194549  0.41451841  0.81010819  1
  O2-  O402  1  0.34658101  0.67664526  0.15499118  1
  O2-  O403  1  0.33797255  0.66022708  0.47398448  1
  O2-  O404  1  0.34178419  0.68936804  0.83071205  1
  O2-  O405  1  0.34330860  0.93540121  0.14776382  1
  O2-  O406  1  0.32671993  0.88416675  0.45412412  1
  O2-  O407  1  0.34393295  0.93448475  0.80845592  1
  O2-  O408  1  0.58536672  0.15630374  0.15028142  1
  O2-  O409  1  0.58929385  0.16947607  0.48529595  1
  O2-  O410  1  0.58314388  0.16082282  0.81132194  1
  O2-  O411  1  0.59158322  0.43709128  0.15886502  1
  O2-  O412  1  0.58153905  0.40966474  0.45697502  1
  O2-  O413  1  0.57640981  0.39656784  0.79051819  1
  O2-  O414  1  0.58144203  0.68066055  0.14969767  1
  O2-  O415  1  0.57438700  0.66347394  0.48339761  1
  O2-  O416  1  0.62588652  0.68546156  0.79544268  1
  O2-  O417  1  0.59250074  0.90152636  0.17092897  1
  O2-  O418  1  0.57734048  0.91337322  0.46278884  1
  O2-  O419  1  0.57276352  0.91623257  0.81034230  1
  O2-  O420  1  0.82053226  0.18845314  0.15137974  1
  O2-  O421  1  0.82893197  0.15051363  0.47796857  1
  O2-  O422  1  0.83684085  0.13499375  0.80964328  1
  O2-  O423  1  0.78536156  0.38746647  0.13289440  1
  O2-  O424  1  0.83293215  0.40689858  0.48151101  1
  O2-  O425  1  0.82422838  0.42964925  0.80905977  1
  O2-  O426  1  0.82704471  0.64137045  0.13998852  1
  O2-  O427  1  0.81520817  0.67502444  0.47000558  1
  O2-  O428  1  0.84085306  0.72763245  0.73873115  1
  O2-  O429  1  0.78102102  0.90994566  0.14064836  1
  O2-  O430  1  0.84017877  0.91295639  0.48374928  1
  O2-  O431  1  0.81098779  0.90243154  0.82004029  1
  O2-  O432  1  0.16212761  0.07902126  0.18603220  1
  O2-  O433  1  0.17121070  0.07605536  0.52811811  1
  O2-  O434  1  0.19671431  0.08913292  0.86610854  1
  O2-  O435  1  0.16814384  0.33533792  0.18314321  1
  O2-  O436  1  0.17852452  0.32767779  0.51643008  1
  O2-  O437  1  0.17441898  0.30467398  0.86013657  1
  O2-  O438  1  0.17866725  0.58164904  0.19401926  1
  O2-  O439  1  0.17388417  0.57504214  0.51816156  1
  O2-  O440  1  0.17758589  0.62397962  0.87549801  1
  O2-  O441  1  0.17044694  0.85197939  0.18688984  1
  O2-  O442  1  0.16818302  0.82402203  0.51243134  1
  O2-  O443  1  0.18173682  0.85427744  0.84923989  1
  O2-  O444  1  0.42462798  0.09036422  0.18321503  1
  O2-  O445  1  0.42242758  0.09870207  0.53028195  1
  O2-  O446  1  0.41522347  0.08213315  0.84992216  1
  O2-  O447  1  0.41413384  0.33456447  0.18246649  1
  O2-  O448  1  0.42875480  0.33642920  0.50514533  1
  O2-  O449  1  0.42339215  0.31969164  0.84798749  1
  O2-  O450  1  0.41972673  0.58175848  0.19186219  1
  O2-  O451  1  0.41571370  0.57872475  0.51788962  1
  O2-  O452  1  0.41096562  0.58561533  0.86002295  1
  O2-  O453  1  0.42633489  0.82776407  0.20170325  1
  O2-  O454  1  0.41934505  0.82412757  0.50981080  1
  O2-  O455  1  0.41540973  0.86192594  0.85082700  1
  O2-  O456  1  0.66338834  0.08285814  0.20021658  1
  O2-  O457  1  0.66457485  0.07781911  0.51782636  1
  O2-  O458  1  0.66474019  0.07418621  0.85674894  1
  O2-  O459  1  0.63981240  0.31879417  0.20082626  1
  O2-  O460  1  0.66635847  0.33301115  0.53679441  1
  O2-  O461  1  0.65813421  0.32350930  0.84796398  1
  O2-  O462  1  0.67523931  0.59765309  0.19169035  1
  O2-  O463  1  0.65123084  0.56364028  0.50228162  1
  O2-  O464  1  0.66660012  0.56339105  0.83541571  1
  O2-  O465  1  0.63649766  0.85408624  0.18971291  1
  O2-  O466  1  0.67162337  0.82065354  0.52469173  1
  O2-  O467  1  0.64839721  0.83382535  0.85828224  1
  O2-  O468  1  0.89542244  0.05396869  0.17897322  1
  O2-  O469  1  0.92077573  0.08111729  0.52319053  1
  O2-  O470  1  0.93097758  0.07621622  0.86182276  1
  O2-  O471  1  0.92671107  0.36305115  0.19786949  1
  O2-  O472  1  0.91801396  0.31927986  0.51630485  1
  O2-  O473  1  0.91623849  0.36970941  0.86923401  1
  O2-  O474  1  0.88939944  0.55655667  0.18706533  1
  O2-  O475  1  0.95481463  0.52291229  0.55252494  1
  O2-  O476  1  0.91576017  0.59874998  0.83784875  1
  O2-  O477  1  0.92553601  0.86688525  0.19356240  1
  O2-  O478  1  0.91681669  0.83073275  0.52700508  1
  O2-  O479  1  0.91680339  0.82969008  0.83691781  1
  O2-  O480  1  0.18217079  0.06812857  0.30822068  1
  O2-  O481  1  0.16732079  0.06783252  0.64703265  1
  O2-  O482  1  0.23848260  0.10896257  0.98910546  1
  O2-  O483  1  0.20302821  0.40753718  0.29310605  1
  O2-  O484  1  0.18697602  0.30726538  0.64588422  1
  O2-  O485  1  0.17008200  0.32534166  0.97673971  1
  O2-  O486  1  0.17889252  0.58948066  0.31781956  1
  O2-  O487  1  0.16535884  0.60241378  0.64146547  1
  O2-  O488  1  0.18315245  0.58027794  0.99144698  1
  O2-  O489  1  0.17493067  0.83207248  0.30947619  1
  O2-  O490  1  0.17023289  0.83954625  0.64050117  1
  O2-  O491  1  0.17593748  0.86068061  0.97257227  1
  O2-  O492  1  0.43083192  0.08150109  0.30798969  1
  O2-  O493  1  0.43260902  0.09366041  0.64828751  1
  O2-  O494  1  0.42472899  0.09792229  0.97375019  1
  O2-  O495  1  0.43698810  0.32489781  0.30548017  1
  O2-  O496  1  0.43089392  0.32487892  0.63024764  1
  O2-  O497  1  0.40095154  0.31928870  0.96922432  1
  O2-  O498  1  0.41992970  0.59100496  0.31253681  1
  O2-  O499  1  0.35621551  0.54321848  0.62717085  1
  O2-  O500  1  0.42131841  0.57633577  0.97970549  1
  O2-  O501  1  0.41024712  0.81626613  0.26794094  1
  O2-  O502  1  0.40570723  0.82297733  0.63989264  1
  O2-  O503  1  0.46427642  0.81445845  0.97068785  1
  O2-  O504  1  0.66263874  0.10675540  0.31975699  1
  O2-  O505  1  0.69975638  0.11566095  0.64570734  1
  O2-  O506  1  0.66713594  0.08305550  0.97981431  1
  O2-  O507  1  0.65203775  0.33613034  0.32742493  1
  O2-  O508  1  0.64865636  0.34954424  0.65433387  1
  O2-  O509  1  0.66546155  0.31628506  0.97665587  1
  O2-  O510  1  0.67107217  0.59735240  0.31576973  1
  O2-  O511  1  0.65289850  0.55377273  0.63004179  1
  O2-  O512  1  0.65462768  0.57676479  0.97087108  1
  O2-  O513  1  0.66997684  0.89414549  0.31890680  1
  O2-  O514  1  0.67778628  0.83041582  0.65692938  1
  O2-  O515  1  0.65814436  0.82516669  0.98356980  1
  O2-  O516  1  0.83009589  0.03377650  0.29539476  1
  O2-  O517  1  0.92525229  0.08196041  0.64190054  1
  O2-  O518  1  0.90843770  0.07963425  0.97646127  1
  O2-  O519  1  0.91413579  0.36005296  0.31121835  1
  O2-  O520  1  0.93285338  0.41541923  0.63089292  1
  O2-  O521  1  0.91518578  0.33293363  0.98184715  1
  O2-  O522  1  0.90350505  0.57813023  0.31094756  1
  O2-  O523  1  0.89647303  0.59017298  0.67166443  1
  O2-  O524  1  0.89184745  0.57401775  0.95894059  1
  O2-  O525  1  0.91822647  0.83032396  0.31676109  1
  O2-  O526  1  0.92347539  0.84197010  0.64614265  1
  O2-  O527  1  0.91625582  0.83466284  1.03457359  1
  O2-  O528  1  0.07479982  0.16401228  0.03558931  1
  O2-  O529  1  0.17192035  0.17781646  0.38522605  1
  O2-  O530  1  0.08536859  0.14823811  0.69643378  1
  O2-  O531  1  0.08456778  0.40710308  0.02040183  1
  O2-  O532  1  0.07368017  0.42353871  0.35525026  1
  O2-  O533  1  0.05721584  0.45704346  0.70033156  1
  O2-  O534  1  0.06601129  0.67905963  -0.01532247  1
  O2-  O535  1  0.08754674  0.66811452  0.34706471  1
  O2-  O536  1  0.07873440  0.67727191  0.68657913  1
  O2-  O537  1  0.09094248  0.93860931  0.01636242  1
  O2-  O538  1  0.08694848  0.90660593  0.35518756  1
  O2-  O539  1  0.08835576  0.91470003  0.67692585  1
  O2-  O540  1  0.29126278  0.12713265  0.10664628  1
  O2-  O541  1  0.34543668  0.15956898  0.35009159  1
  O2-  O542  1  0.34209731  0.16569399  0.68539094  1
  O2-  O543  1  0.33260053  0.41075016  0.01757105  1
  O2-  O544  1  0.35707497  0.42388132  0.34483607  1
  O2-  O545  1  0.34954829  0.40268836  0.68660248  1
  O2-  O546  1  0.35268315  0.66038000  0.03539727  1
  O2-  O547  1  0.33795939  0.65596368  0.35779739  1
  O2-  O548  1  0.31211444  0.63054203  0.70588150  1
  O2-  O549  1  0.34372177  0.93299701  0.02526802  1
  O2-  O550  1  0.34711703  0.90276396  0.32056560  1
  O2-  O551  1  0.33444625  0.92182680  0.68310752  1
  O2-  O552  1  0.59005080  0.16293748  0.02373907  1
  O2-  O553  1  0.58476292  0.18036948  0.36224626  1
  O2-  O554  1  0.60160966  0.16430342  0.68914501  1
  O2-  O555  1  0.57973265  0.39790775  0.00563433  1
  O2-  O556  1  0.60847793  0.38413107  0.34752746  1
  O2-  O557  1  0.59946835  0.39311881  0.66834250  1
  O2-  O558  1  0.58016003  0.66098881  0.02461636  1
  O2-  O559  1  0.59572819  0.68402788  0.35630831  1
  O2-  O560  1  0.57523336  0.63804149  0.67909174  1
  O2-  O561  1  0.63725066  0.93888743  0.05143997  1
  O2-  O562  1  0.56455056  0.92610473  0.39836703  1
  O2-  O563  1  0.56543162  0.88797131  0.69148495  1
  O2-  O564  1  0.82981583  0.16849792  0.02184807  1
  O2-  O565  1  0.80839493  0.15117432  0.35459847  1
  O2-  O566  1  0.85427819  0.17484673  0.68972592  1
  O2-  O567  1  0.86732361  0.43791846  0.03090595  1
  O2-  O568  1  0.81880593  0.41518097  0.35672661  1
  O2-  O569  1  0.81356860  0.41940785  0.68953493  1
  O2-  O570  1  0.81763552  0.65689250  0.01502792  1
  O2-  O571  1  0.82237140  0.66816231  0.35370796  1
  O2-  O572  1  0.82403416  0.64219601  0.75882255  1
  O2-  O573  1  0.82306219  0.92092823  0.02461547  1
  O2-  O574  1  0.82666589  0.90212032  0.36099303  1
  O2-  O575  1  0.84465171  0.92610974  0.67573931  1
