# generated using pymatgen
data_H2O
_symmetry_space_group_name_H-M   'P 1'
_cell_length_a   17.99529795
_cell_length_b   17.99700240
_cell_length_c   22.01258804
_cell_angle_alpha   90.01491414
_cell_angle_beta   89.97523692
_cell_angle_gamma   120.00469608
_symmetry_Int_Tables_number   1
_chemical_formula_structural   H2O
_chemical_formula_sum   'H384 O192'
_cell_volume   6173.62661793
_cell_formula_units_Z   192
loop_
 _symmetry_equiv_pos_site_id
 _symmetry_equiv_pos_as_xyz
  1  'x, y, z'
loop_
 _atom_type_symbol
 _atom_type_oxidation_number
  H+  1.0
  O2-  -2.0
loop_
 _atom_site_type_symbol
 _atom_site_label
 _atom_site_symmetry_multiplicity
 _atom_site_fract_x
 _atom_site_fract_y
 _atom_site_fract_z
 _atom_site_occupancy
  H+  H0  1  0.26555780  0.37682381  0.82378057  1
  H+  H1  1  0.11287107  0.40280083  1.00323124  1
  H+  H2  1  0.08486648  0.23330773  0.47930678  1
  H+  H3  1  0.35702987  0.88412168  1.00295919  1
  H+  H4  1  0.18032901  0.93490598  0.36283871  1
  H+  H5  1  0.22242839  0.53949053  0.86923929  1
  H+  H6  1  0.27782334  0.63588979  0.16653908  1
  H+  H7  1  0.12537240  0.39073618  0.16138273  1
  H+  H8  1  0.21997207  0.10307201  0.17148642  1
  H+  H9  1  0.40155959  0.75620888  0.52364258  1
  H+  H10  1  0.75051724  0.15004600  0.00095455  1
  H+  H11  1  0.61275386  0.22319153  0.33886600  1
  H+  H12  1  0.70832772  0.85568347  0.00380684  1
  H+  H13  1  0.18987953  0.58137254  0.35406812  1
  H+  H14  1  0.63655900  0.61561319  0.63841863  1
  H+  H15  1  0.35732436  0.23034679  0.66487504  1
  H+  H16  1  0.52555383  0.12751506  0.33841877  1
  H+  H17  1  0.39037049  0.86345484  0.16384192  1
  H+  H18  1  0.87200163  0.48828651  0.34698765  1
  H+  H19  1  0.61115479  0.11251363  0.82877882  1
  H+  H20  1  0.89296983  0.87140103  0.64776114  1
  H+  H21  1  0.94486597  0.79766220  0.03408554  1
  H+  H22  1  0.63582579  0.12025837  0.32246384  1
  H+  H23  1  0.37341831  0.35325855  0.83421560  1
  H+  H24  1  0.61814748  0.74336524  0.75767321  1
  H+  H25  1  1.03299412  0.92628204  1.01274669  1
  H+  H26  1  0.46471047  0.12137907  0.65115117  1
  H+  H27  1  0.10509714  0.88239604  0.47938275  1
  H+  H28  1  0.22797092  0.60146060  0.67035572  1
  H+  H29  1  0.59384186  0.22231909  0.83313620  1
  H+  H30  1  0.36486931  0.44511688  1.02655238  1
  H+  H31  1  0.35184634  0.14007761  0.66591584  1
  H+  H32  1  0.48304549  0.13431442  0.49646738  1
  H+  H33  1  0.26086175  0.89083667  0.82749446  1
  H+  H34  1  0.13666252  1.03881998  0.64031759  1
  H+  H35  1  0.84178744  0.90480744  0.42572575  1
  H+  H36  1  0.02077343  0.16104826  0.32419666  1
  H+  H37  1  0.35696551  0.89147775  0.66963180  1
  H+  H38  1  -0.01121435  0.85957112  0.16160939  1
  H+  H39  1  0.34958069  0.39921337  0.11326442  1
  H+  H40  1  0.37380192  0.46389973  0.50162968  1
  H+  H41  1  0.13331841  0.58949134  0.67692815  1
  H+  H42  1  0.16421194  0.82741565  0.91824999  1
  H+  H43  1  0.75402273  0.13257710  0.32113712  1
  H+  H44  1  0.61160488  0.47430433  0.16926032  1
  H+  H45  1  0.35305133  0.63572525  0.82704841  1
  H+  H46  1  0.76826069  0.37737127  0.83916491  1
  H+  H47  1  0.85572518  0.25703394  0.17594739  1
  H+  H48  1  0.74635408  0.61542648  0.32444416  1
  H+  H49  1  0.11919190  0.98336597  0.86307593  1
  H+  H50  1  0.58013706  0.92835169  0.38700177  1
  H+  H51  1  0.59402172  0.21368803  0.15182338  1
  H+  H52  1  0.37908499  0.23043219  0.01454804  1
  H+  H53  1  0.37447924  0.46843922  0.16682859  1
  H+  H54  1  0.67746939  0.08374692  0.22207005  1
  H+  H55  1  0.62221205  0.51784509  1.01273830  1
  H+  H56  1  0.84548376  0.61236877  0.01705416  1
  H+  H57  1  0.27523357  0.65179287  0.82366597  1
  H+  H58  1  0.59231162  0.08964055  0.98424803  1
  H+  H59  1  0.12514297  0.23284923  0.16695274  1
  H+  H60  1  0.88224249  0.85004554  0.49573953  1
  H+  H61  1  0.39297274  0.86500973  0.31705315  1
  H+  H62  1  0.86591182  0.72536696  0.16210610  1
  H+  H63  1  0.00642268  0.11707938  0.84536646  1
  H+  H64  1  0.90764666  0.06796078  0.54945446  1
  H+  H65  1  0.33271312  0.65041473  0.45592369  1
  H+  H66  1  0.72875637  0.61105875  0.17794974  1
  H+  H67  1  0.39870269  0.00412990  0.32411512  1
  H+  H68  1  0.03602528  0.14416870  -0.01052352  1
  H+  H69  1  0.73911832  0.37124810  0.66428988  1
  H+  H70  1  0.18974175  0.11261681  0.94015925  1
  H+  H71  1  0.37365217  0.76681288  0.99761956  1
  H+  H72  1  0.87277551  0.90113489  0.80809661  1
  H+  H73  1  0.12820166  0.06390813  0.99445404  1
  H+  H74  1  0.12517384  0.34555210  0.82932502  1
  H+  H75  1  0.87595999  0.51910116  0.51762149  1
  H+  H76  1  0.97281722  0.12079504  0.63481407  1
  H+  H77  1  0.63758843  0.51704956  0.49966765  1
  H+  H78  1  0.07729526  0.46257736  0.34081401  1
  H+  H79  1  0.28248102  0.65214108  0.29655157  1
  H+  H80  1  0.83067259  0.42434674  0.40592865  1
  H+  H81  1  0.14171813  0.76563359  0.16480195  1
  H+  H82  1  0.62290366  0.38025483  0.49740717  1
  H+  H83  1  0.76303800  0.61783934  0.68145577  1
  H+  H84  1  0.37519943  0.73240014  0.30792094  1
  H+  H85  1  0.63491031  0.35700990  0.86299034  1
  H+  H86  1  0.12863794  0.52354787  -0.00326946  1
  H+  H87  1  0.62427543  0.49045477  0.34262273  1
  H+  H88  1  0.88910378  0.75791438  0.31689718  1
  H+  H89  1  0.39316530  0.26392931  0.49023376  1
  H+  H90  1  0.58703989  0.67126000  0.43633417  1
  H+  H91  1  0.88935303  0.99552215  0.81075121  1
  H+  H92  1  0.89518823  0.27752844  0.66217018  1
  H+  H93  1  0.35304181  0.62648877  0.02032049  1
  H+  H94  1  0.23379499  0.87029455  1.00871827  1
  H+  H95  1  0.23408598  0.36334811  0.17407021  1
  H+  H96  1  0.75905990  0.61786254  0.02148368  1
  H+  H97  1  1.00571266  0.40958946  0.18971014  1
  H+  H98  1  0.75864374  0.63581516  0.85040209  1
  H+  H99  1  0.59087107  0.74917390  0.51342649  1
  H+  H100  1  0.52650483  0.89639497  0.48700659  1
  H+  H101  1  0.63398618  0.86845797  0.32577111  1
  H+  H102  1  0.87937667  0.62521370  0.33661648  1
  H+  H103  1  0.72586465  0.36324718  0.33565259  1
  H+  H104  1  0.86735587  0.35904707  0.33371266  1
  H+  H105  1  0.89739918  0.62423933  0.17971962  1
  H+  H106  1  0.70208984  0.34826271  0.59764327  1
  H+  H107  1  0.78014740  0.89930931  0.65884226  1
  H+  H108  1  0.73615935  0.86762544  0.17865359  1
  H+  H109  1  0.46245442  0.85452480  0.00354605  1
  H+  H110  1  0.39087491  0.77403253  0.16596668  1
  H+  H111  1  0.40327680  0.29388210  0.80314109  1
  H+  H112  1  -0.00116092  0.89396973  0.34323888  1
  H+  H113  1  0.60942801  0.88833284  0.67224260  1
  H+  H114  1  0.65759527  0.76206430  0.35116653  1
  H+  H115  1  0.97236054  0.77808750  1.02742122  1
  H+  H116  1  0.77404196  0.63022866  0.48150914  1
  H+  H117  1  0.63733977  0.36097992  0.33543801  1
  H+  H118  1  0.37926495  0.10942796  -0.00412399  1
  H+  H119  1  0.77421928  0.15666833  0.49910411  1
  H+  H120  1  0.36654063  0.63788164  0.67740374  1
  H+  H121  1  0.87762311  -0.02124816  0.16917256  1
  H+  H122  1  0.53169731  0.88524252  0.83174628  1
  H+  H123  1  0.53059907  0.88605925  0.16162240  1
  H+  H124  1  0.87176924  0.77394811  0.84447963  1
  H+  H125  1  0.61297488  0.75876627  0.84482451  1
  H+  H126  1  0.90729343  0.16038735  0.01130715  1
  H+  H127  1  0.37897433  1.03047768  0.65022960  1
  H+  H128  1  0.38526534  0.60319568  0.31249620  1
  H+  H129  1  0.28387590  0.14538890  1.01577563  1
  H+  H130  1  0.91156082  0.28004358  0.00546131  1
  H+  H131  1  0.63156062  0.26538026  1.00382181  1
  H+  H132  1  0.10329221  0.72224488  0.01615618  1
  H+  H133  1  0.61764436  -0.02437399  0.82257560  1
  H+  H134  1  0.60218825  0.62378502  0.48982741  1
  H+  H135  1  0.47770361  0.35329713  0.18863865  1
  H+  H136  1  0.02329142  0.90223837  0.64532258  1
  H+  H137  1  0.90246261  0.58451316  0.77604753  1
  H+  H138  1  0.82731027  0.26026032  0.15237413  1
  H+  H139  1  0.01136877  0.37226401  0.82624040  1
  H+  H140  1  0.81096143  0.04242186  0.95300742  1
  H+  H141  1  0.41210286  0.09567952  0.54795242  1
  H+  H142  1  0.85047026  0.23241241  0.32642576  1
  H+  H143  1  0.28652077  0.39521040  0.66837680  1
  H+  H144  1  0.87252540  0.90089321  0.32656169  1
  H+  H145  1  0.16458379  0.31816537  0.99257468  1
  H+  H146  1  0.36215933  0.38039704  0.34628844  1
  H+  H147  1  0.35344711  0.51129042  0.84401727  1
  H+  H148  1  0.35956683  0.61653802  0.51417279  1
  H+  H149  1  0.85574952  0.94686554  0.48889033  1
  H+  H150  1  1.02254982  0.39811808  1.01153228  1
  H+  H151  1  0.90236039  0.86635792  0.16882582  1
  H+  H152  1  0.52468785  0.36716752  0.50440636  1
  H+  H153  1  0.97462919  0.60534356  0.99873369  1
  H+  H154  1  0.14054692  0.26408295  0.83696322  1
  H+  H155  1  0.28470296  0.14480391  0.47093018  1
  H+  H156  1  0.40380766  0.56499182  0.08215921  1
  H+  H157  1  0.92271134  0.12816375  0.84131735  1
  H+  H158  1  0.43364741  0.59380077  0.86777522  1
  H+  H159  1  0.85982543  0.88890318  0.01537012  1
  H+  H160  1  0.85704074  0.46655492  0.83046547  1
  H+  H161  1  0.35942728  0.21949466  0.17068618  1
  H+  H162  1  0.36661703  0.02091560  0.83560941  1
  H+  H163  1  0.02501775  0.65491916  0.50854945  1
  H+  H164  1  0.66995838  0.63503875  0.33332181  1
  H+  H165  1  0.86175177  0.46368640  0.01196923  1
  H+  H166  1  0.11497966  0.91064171  0.63232947  1
  H+  H167  1  0.37314497  0.10299087  0.17790522  1
  H+  H168  1  0.01460110  0.41083726  0.49942073  1
  H+  H169  1  0.15901754  0.71837228  0.68244004  1
  H+  H170  1  0.88195709  0.37799709  0.51525841  1
  H+  H171  1  0.48807099  0.62265183  0.68343204  1
  H+  H172  1  0.10744551  0.03654330  0.32558041  1
  H+  H173  1  0.34690886  0.41465013  0.43794894  1
  H+  H174  1  0.10421565  0.45728525  0.82727635  1
  H+  H175  1  0.18691452  0.20690221  0.01415421  1
  H+  H176  1  0.17725362  0.34333637  0.23433961  1
  H+  H177  1  0.14617597  0.27542411  0.65065086  1
  H+  H178  1  0.51098677  0.13686794  0.00166954  1
  H+  H179  1  0.09839852  0.37183375  0.51570493  1
  H+  H180  1  0.88333198  0.09585564  0.16085979  1
  H+  H181  1  0.89617656  0.04323298  0.32076385  1
  H+  H182  1  0.26552612  0.62895948  1.00643333  1
  H+  H183  1  0.40133867  0.07984564  -0.06813446  1
  H+  H184  1  0.11555482  0.66242993  0.51057954  1
  H+  H185  1  0.63149783  0.52096512  0.87223617  1
  H+  H186  1  0.54661576  0.62914728  0.80799907  1
  H+  H187  1  0.78955809  0.39685063  0.16031653  1
  H+  H188  1  0.40226299  0.78053966  0.84382367  1
  H+  H189  1  0.63982643  0.52827467  0.63428302  1
  H+  H190  1  0.62692360  0.39916185  0.64147524  1
  H+  H191  1  0.12666967  0.46634780  0.67858329  1
  H+  H192  1  0.92310859  0.82080570  0.25817327  1
  H+  H193  1  0.34798136  0.20535067  0.37926514  1
  H+  H194  1  0.87006505  0.47676315  0.68535554  1
  H+  H195  1  0.60950593  0.23643413  0.66845751  1
  H+  H196  1  0.80739309  0.13322119  0.85670387  1
  H+  H197  1  0.58294282  0.41792797  0.80507322  1
  H+  H198  1  0.11572066  0.78478264  0.64052634  1
  H+  H199  1  0.38967785  0.35407251  0.19002861  1
  H+  H200  1  0.66780136  0.83597666  0.27031787  1
  H+  H201  1  -0.03166345  0.09425914  0.49143117  1
  H+  H202  1  0.13203155  0.61457523  0.99008210  1
  H+  H203  1  0.22826411  0.12818784  0.65251616  1
  H+  H204  1  0.15875031  0.75439991  0.31784188  1
  H+  H205  1  0.11512817  0.73715256  0.84172402  1
  H+  H206  1  0.14291988  0.29037307  0.31826342  1
  H+  H207  1  0.33329718  0.91616119  0.09789912  1
  H+  H208  1  0.01127116  0.62718789  0.34938704  1
  H+  H209  1  0.42709240  0.58072111  0.58016949  1
  H+  H210  1  0.35303729  0.10087514  0.84420503  1
  H+  H211  1  0.61722406  0.15805172  0.49316722  1
  H+  H212  1  0.91574567  0.83086356  0.59194211  1
  H+  H213  1  0.61956755  0.85463361  0.00278768  1
  H+  H214  1  0.37065099  0.47396435  0.34138040  1
  H+  H215  1  0.64125922  0.36660642  0.15700046  1
  H+  H216  1  0.64534063  0.86606936  0.17437806  1
  H+  H217  1  0.47327438  0.86481201  0.66859736  1
  H+  H218  1  0.13776223  0.37333865  0.67179157  1
  H+  H219  1  0.10559396  0.15229680  0.32418222  1
  H+  H220  1  0.88541701  0.35566068  1.00162320  1
  H+  H221  1  0.15655718  0.34022544  0.59731218  1
  H+  H222  1  0.73828364  0.09254107  0.16437145  1
  H+  H223  1  0.35848779  0.97635384  0.00087639  1
  H+  H224  1  0.62609160  0.61149666  1.01274358  1
  H+  H225  1  0.37359964  0.14567009  0.46853714  1
  H+  H226  1  0.63118938  0.04037144  0.50109488  1
  H+  H227  1  0.52370254  0.89223828  0.32567188  1
  H+  H228  1  0.22171586  0.93498393  0.35787059  1
  H+  H229  1  0.63505694  0.02912500  0.31844777  1
  H+  H230  1  0.89695972  0.53615762  0.17692196  1
  H+  H231  1  0.87619430  0.23164465  0.84382379  1
  H+  H232  1  0.10817112  0.49717210  0.49780614  1
  H+  H233  1  0.37163886  0.38973062  0.66758048  1
  H+  H234  1  0.60862952  0.10555899  0.65738912  1
  H+  H235  1  1.01848051  0.11912097  1.01820343  1
  H+  H236  1  0.88788537  0.76370176  0.49948216  1
  H+  H237  1  0.84890841  0.64009638  0.83819723  1
  H+  H238  1  0.12303926  0.14321179  0.64960147  1
  H+  H239  1  0.61416302  0.90300577  0.48204196  1
  H+  H240  1  0.23660972  0.37191396  0.32309907  1
  H+  H241  1  0.34085562  0.89816588  0.37975526  1
  H+  H242  1  0.11289047  0.62819530  0.16067255  1
  H+  H243  1  0.86216443  0.24191366  0.49808626  1
  H+  H244  1  0.12454858  0.87759556  0.15896465  1
  H+  H245  1  0.73964771  0.11037386  1.01882017  1
  H+  H246  1  0.60352768  0.72604481  1.01522638  1
  H+  H247  1  0.72707849  0.35248987  1.00682619  1
  H+  H248  1  0.37737011  0.01578738  0.17328469  1
  H+  H249  1  0.88960764  0.41905779  0.17207691  1
  H+  H250  1  0.39472260  0.61570483  0.16878595  1
  H+  H251  1  0.58389439  -0.04043638  1.00777158  1
  H+  H252  1  0.67423800  0.33342682  0.10415653  1
  H+  H253  1  0.22657046  0.62039006  0.52111994  1
  H+  H254  1  0.64642370  0.68189712  0.72508432  1
  H+  H255  1  0.11746293  0.64918327  0.83542962  1
  H+  H256  1  0.61181521  0.01828775  0.65793992  1
  H+  H257  1  0.61422989  0.39065672  0.01775177  1
  H+  H258  1  0.47140353  0.60149831  0.51410794  1
  H+  H259  1  0.64171837  0.78497218  0.66591627  1
  H+  H260  1  1.02343654  0.89784216  0.85429992  1
  H+  H261  1  0.88273228  0.35602707  0.84985091  1
  H+  H262  1  0.14315501  0.13126281  0.84350607  1
  H+  H263  1  0.07968471  0.67298055  0.40775124  1
  H+  H264  1  0.15072994  0.03037223  0.49714723  1
  H+  H265  1  0.88663063  1.03182566  0.64561709  1
  H+  H266  1  0.27313279  0.87786777  0.15664737  1
  H+  H267  1  0.26975415  0.89147560  0.65805374  1
  H+  H268  1  0.38670502  0.36446768  1.02020343  1
  H+  H269  1  0.84921343  0.96993144  0.00811314  1
  H+  H270  1  0.29797776  0.19090192  0.85548940  1
  H+  H271  1  0.50167035  0.12796792  0.15629008  1
  H+  H272  1  0.13278062  0.10404429  0.16531630  1
  H+  H273  1  0.86983850  0.14490970  0.67492466  1
  H+  H274  1  0.62762163  0.84598685  0.81478899  1
  H+  H275  1  0.59030430  0.41791615  0.58306947  1
  H+  H276  1  0.94886759  0.96432228  0.36405676  1
  H+  H277  1  0.56379127  0.15745456  0.06438636  1
  H+  H278  1  0.40361503  0.52995662  0.67496777  1
  H+  H279  1  0.47077138  0.60644009  0.03028224  1
  H+  H280  1  0.14538394  0.52333283  0.17774579  1
  H+  H281  1  0.98020526  0.62268166  0.66985428  1
  H+  H282  1  0.12520620  0.86044867  0.86912004  1
  H+  H283  1  0.89080688  0.36283200  0.66291510  1
  H+  H284  1  0.51315792  0.37811003  0.85482488  1
  H+  H285  1  0.15594261  0.81346052  0.57611028  1
  H+  H286  1  0.47628405  0.36455463  0.63968869  1
  H+  H287  1  0.85529884  0.13866155  0.31963897  1
  H+  H288  1  0.91636263  0.09266385  0.25639216  1
  H+  H289  1  0.90213183  0.06738691  0.92620603  1
  H+  H290  1  0.82891886  0.65522528  0.10842979  1
  H+  H291  1  0.43434752  0.82445150  0.57830467  1
  H+  H292  1  0.91412858  0.57372081  0.94041448  1
  H+  H293  1  0.18230643  0.81439021  0.22725770  1
  H+  H294  1  0.32724511  0.66330492  0.10286298  1
  H+  H295  1  0.12172271  0.96554905  0.14961888  1
  H+  H296  1  0.85348195  0.17288146  0.73999031  1
  H+  H297  1  0.59240138  0.18418443  0.43114575  1
  H+  H298  1  0.70381962  0.30940592  0.49192816  1
  H+  H299  1  0.91913529  0.33203833  0.90999540  1
  H+  H300  1  0.55747166  0.42168755  0.38869406  1
  H+  H301  1  0.86212079  0.63071117  0.49254991  1
  H+  H302  1  0.71391452  0.74734098  0.39943086  1
  H+  H303  1  0.16325465  0.58654182  0.57719737  1
  H+  H304  1  0.31286995  0.92096695  0.76469465  1
  H+  H305  1  0.83296412  0.40978527  0.74136906  1
  H+  H306  1  0.53999939  0.79510054  0.53803838  1
  H+  H307  1  0.40931656  0.30861024  0.28038012  1
  H+  H308  1  0.09238844  0.42384087  0.10412631  1
  H+  H309  1  0.15407021  0.96840757  0.74398311  1
  H+  H310  1  0.92062250  0.34810740  0.57174504  1
  H+  H311  1  0.24736398  0.30120820  0.04118524  1
  H+  H312  1  0.67525937  0.58913104  0.54991791  1
  H+  H313  1  0.38337178  0.77656914  0.66681123  1
  H+  H314  1  0.93098741  0.58191001  0.28199175  1
  H+  H315  1  0.16527186  0.56544792  0.90659463  1
  H+  H316  1  0.66803397  0.32239442  0.91569926  1
  H+  H317  1  0.43122752  0.84038932  0.25599381  1
  H+  H318  1  0.42454072  0.32480388  0.95016207  1
  H+  H319  1  0.42242146  0.07316432  0.27182954  1
  H+  H320  1  0.62233598  0.06032908  0.92502589  1
  H+  H321  1  0.53060688  0.33716340  0.73508835  1
  H+  H322  1  0.79405504  0.05414316  0.10460087  1
  H+  H323  1  0.64530313  0.82536184  0.60057143  1
  H+  H324  1  0.83900255  0.91910769  0.11048424  1
  H+  H325  1  0.03937946  0.28612273  0.55058971  1
  H+  H326  1  0.93928368  0.37894295  0.24658314  1
  H+  H327  1  0.58849679  0.67291651  0.07772548  1
  H+  H328  1  0.29141876  0.75021692  0.41509688  1
  H+  H329  1  0.49987055  0.13867316  0.82569756  1
  H+  H330  1  0.12240879  0.61327548  0.34097896  1
  H+  H331  1  0.08832430  0.39817952  0.73713763  1
  H+  H332  1  0.39936237  0.35702132  0.49784934  1
  H+  H333  1  0.11808469  0.15204751  0.77818662  1
  H+  H334  1  0.01523243  0.87814476  0.49431269  1
  H+  H335  1  0.58407770  0.61087186  0.86652880  1
  H+  H336  1  0.57689531  0.91257368  0.07298479  1
  H+  H337  1  0.88281778  0.60631647  0.67678003  1
  H+  H338  1  0.15855821  0.34779661  0.92543454  1
  H+  H339  1  0.16454266  0.58094298  0.23750685  1
  H+  H340  1  0.95403491  0.35496124  0.33794312  1
  H+  H341  1  0.84362489  0.66207534  0.39064578  1
  H+  H342  1  0.62295477  0.97640678  0.16203673  1
  H+  H343  1  0.51682241  0.37674660  0.01392732  1
  H+  H344  1  0.33266130  0.66805378  0.73400176  1
  H+  H345  1  0.51681889  0.37047701  0.73647957  1
  H+  H346  1  0.97826002  0.61839840  0.82248204  1
  H+  H347  1  0.64914287  0.08798044  0.56525579  1
  H+  H348  1  0.40943024  0.32537199  0.58711498  1
  H+  H349  1  0.66117485  0.58430267  0.92913342  1
  H+  H350  1  0.33190073  0.41230167  0.76739968  1
  H+  H351  1  0.18845455  0.97586674  0.76663738  1
  H+  H352  1  0.10054802  0.68451093  0.74108908  1
  H+  H353  1  0.62285321  0.64096788  0.17001845  1
  H+  H354  1  0.48738535  0.61902754  0.16904564  1
  H+  H355  1  0.12767421  0.88929835  0.06265563  1
  H+  H356  1  0.42247034  0.56793974  0.26413182  1
  H+  H357  1  0.14640435  0.07980986  0.26146574  1
  H+  H358  1  0.33549171  0.16712857  0.10750295  1
  H+  H359  1  0.06705895  0.16276726  0.70122551  1
  H+  H360  1  0.84204778  0.41474506  0.07527665  1
  H+  H361  1  0.62539685  0.73288530  0.16992493  1
  H+  H362  1  0.05272171  0.93454138  0.40568605  1
  H+  H363  1  0.90940472  0.58197008  0.57530903  1
  H+  H364  1  0.25772982  0.83662421  0.30982896  1
  H+  H365  1  1.04476559  0.94433861  0.94388325  1
  H+  H366  1  0.57616577  0.41622413  0.10931103  1
  H+  H367  1  0.98439295  0.11325769  0.17048034  1
  H+  H368  1  0.56831850  0.17919967  0.72806288  1
  H+  H369  1  0.70335472  0.12669701  0.81837881  1
  H+  H370  1  0.18667147  0.09881436  0.54983661  1
  H+  H371  1  0.12031332  0.19590528  0.10305320  1
  H+  H372  1  0.42893466  0.83376625  0.90566307  1
  H+  H373  1  0.89374985  0.84377185  0.89529099  1
  H+  H374  1  0.05819281  0.41925336  0.40561126  1
  H+  H375  1  0.87772516  0.17293769  0.07637787  1
  H+  H376  1  0.30193128  0.71920758  0.39983137  1
  H+  H377  1  0.80553262  0.64241418  0.74792742  1
  H+  H378  1  0.02498503  0.63297221  0.16225474  1
  H+  H379  1  0.67165655  0.58548284  0.23800642  1
  H+  H380  1  0.84513148  0.93368110  0.71535108  1
  H+  H381  1  0.06910720  0.18340570  0.41671800  1
  H+  H382  1  0.58096923  0.91429391  0.73427934  1
  H+  H383  1  0.07690704  0.65403348  0.06941215  1
  O2-  O384  1  0.09882471  0.17613746  0.14492038  1
  O2-  O385  1  0.06009893  0.17605074  0.46155771  1
  O2-  O386  1  0.10965237  0.16023455  0.82079268  1
  O2-  O387  1  0.09746274  0.42509598  0.14925952  1
  O2-  O388  1  0.07580043  0.43698684  0.48280326  1
  O2-  O389  1  0.07079568  0.39923021  0.80830591  1
  O2-  O390  1  0.08330513  0.65678881  0.14181659  1
  O2-  O391  1  0.08627086  0.69449584  0.49908835  1
  O2-  O392  1  0.08947102  0.67938630  0.81902457  1
  O2-  O393  1  0.09695929  0.90497230  0.13465833  1
  O2-  O394  1  0.07557384  0.91528702  0.47740130  1
  O2-  O395  1  0.08006030  0.92140452  0.87419202  1
  O2-  O396  1  0.32670110  0.16087007  0.15260052  1
  O2-  O397  1  0.34461829  0.17821055  0.45352608  1
  O2-  O398  1  0.26933614  0.13291505  0.83774338  1
  O2-  O399  1  0.34455072  0.40581136  0.15877619  1
  O2-  O400  1  0.35135306  0.40719728  0.48261317  1
  O2-  O401  1  0.32834732  0.40907440  0.81265551  1
  O2-  O402  1  0.33639380  0.66506094  0.14780920  1
  O2-  O403  1  0.33028025  0.64938254  0.50018453  1
  O2-  O404  1  0.33416596  0.67542005  0.80826062  1
  O2-  O405  1  0.33484423  0.91276472  0.14289227  1
  O2-  O406  1  0.25665312  0.84651577  0.46641845  1
  O2-  O407  1  0.31822566  0.92577392  0.80947345  1
  O2-  O408  1  0.55837514  0.15609944  0.13460784  1
  O2-  O409  1  0.59781917  0.19721808  0.47574241  1
  O2-  O410  1  0.56080207  0.16694468  0.81108008  1
  O2-  O411  1  0.57981811  0.41343027  0.15476019  1
  O2-  O412  1  0.58978119  0.40800796  0.50860451  1
  O2-  O413  1  0.57693149  0.41167174  0.84915581  1
  O2-  O414  1  0.59326401  0.67208271  0.15444640  1
  O2-  O415  1  0.56750631  0.65130674  0.47889097  1
  O2-  O416  1  0.54349671  0.63029695  0.85234381  1
  O2-  O417  1  0.59142985  0.91332919  0.14741361  1
  O2-  O418  1  0.58333444  0.93198819  0.46754744  1
  O2-  O419  1  0.58974643  0.91489649  0.81001280  1
  O2-  O420  1  0.82507012  0.10704641  0.12784905  1
  O2-  O421  1  0.83447339  0.18120952  0.48621941  1
  O2-  O422  1  0.85351839  0.17028267  0.82910881  1
  O2-  O423  1  0.85014473  0.43365920  0.14753877  1
  O2-  O424  1  0.81855342  0.41624083  0.48915781  1
  O2-  O425  1  0.82786437  0.40423536  0.82198141  1
  O2-  O426  1  0.83250646  0.66219360  0.15418659  1
  O2-  O427  1  0.83630890  0.66165102  0.47153422  1
  O2-  O428  1  0.81543817  0.66836988  0.82869920  1
  O2-  O429  1  0.84381141  0.91643098  0.15525558  1
  O2-  O430  1  0.82684222  0.88845169  0.46886721  1
  O2-  O431  1  0.85556625  0.94007861  0.78952410  1
  O2-  O432  1  0.15685739  0.06748701  0.17947892  1
  O2-  O433  1  0.19190283  0.09109713  0.50593958  1
  O2-  O434  1  0.18442878  0.09137459  0.86814346  1
  O2-  O435  1  0.17325445  0.33736274  0.18738430  1
  O2-  O436  1  0.09917923  0.32265629  0.53831671  1
  O2-  O437  1  0.16419261  0.32639852  0.84619002  1
  O2-  O438  1  0.17315504  0.58448697  0.19299152  1
  O2-  O439  1  0.16562399  0.59820134  0.53310130  1
  O2-  O440  1  0.17727432  0.55401725  0.86294374  1
  O2-  O441  1  0.17320749  0.82463814  0.18209650  1
  O2-  O442  1  0.23348310  0.89025093  0.49557203  1
  O2-  O443  1  0.15620419  0.82712417  0.87350516  1
  O2-  O444  1  0.40694227  0.07518116  0.19006257  1
  O2-  O445  1  0.42017079  0.09963198  0.50343673  1
  O2-  O446  1  0.39503236  0.08196985  0.85246626  1
  O2-  O447  1  0.41784048  0.32105331  0.20481115  1
  O2-  O448  1  0.42596646  0.32151861  0.51252718  1
  O2-  O449  1  0.40100861  0.31693828  0.84278212  1
  O2-  O450  1  0.42360040  0.58086285  0.17381947  1
  O2-  O451  1  0.41486533  0.57266306  0.53592500  1
  O2-  O452  1  0.37048512  0.56767219  0.86298949  1
  O2-  O453  1  0.42375774  0.83570549  0.17784024  1
  O2-  O454  1  0.45048457  0.81145606  0.53768988  1
  O2-  O455  1  0.44118577  0.83736507  0.86140469  1
  O2-  O456  1  0.67751994  0.07132591  0.17842846  1
  O2-  O457  1  0.65668852  0.09775978  0.51997666  1
  O2-  O458  1  0.65004236  0.08910180  0.83969485  1
  O2-  O459  1  0.67453474  0.33640709  0.14844854  1
  O2-  O460  1  0.72944647  0.36553804  0.51342612  1
  O2-  O461  1  0.66559206  0.32475858  0.86993976  1
  O2-  O462  1  0.66751345  0.58202624  0.19234716  1
  O2-  O463  1  0.66655956  0.58065346  0.50528594  1
  O2-  O464  1  0.65995043  0.58290389  0.88239843  1
  O2-  O465  1  0.67466086  0.83532254  0.19127506  1
  O2-  O466  1  0.59842523  0.80263981  0.53267913  1
  O2-  O467  1  0.64418134  0.80066127  0.81247901  1
  O2-  O468  1  0.92538714  0.07930954  0.18668949  1
  O2-  O469  1  0.91772341  0.04545466  0.51157575  1
  O2-  O470  1  0.94445947  0.09070829  0.85674405  1
  O2-  O471  1  0.96092588  0.41696982  0.21041649  1
  O2-  O472  1  0.92278172  0.35721868  0.52607849  1
  O2-  O473  1  0.91705286  0.32933831  0.86359891  1
  O2-  O474  1  0.93104877  0.59621036  0.19229408  1
  O2-  O475  1  0.91000860  0.58128977  0.53043574  1
  O2-  O476  1  0.91413149  0.58429520  0.81948327  1
  O2-  O477  1  0.92981237  0.83143404  0.17919492  1
  O2-  O478  1  0.91676653  0.82438816  0.51417649  1
  O2-  O479  1  0.90605138  0.83721085  0.85314848  1
  O2-  O480  1  0.14362099  0.09239389  0.30484977  1
  O2-  O481  1  0.16989553  0.10352339  0.63211317  1
  O2-  O482  1  0.18318001  0.11681798  0.98551367  1
  O2-  O483  1  0.18051159  0.34997635  0.30253379  1
  O2-  O484  1  0.17663160  0.33997791  0.64090476  1
  O2-  O485  1  0.16119360  0.36360588  0.96861795  1
  O2-  O486  1  0.15121733  0.58037631  0.32278070  1
  O2-  O487  1  0.16533516  0.56398539  0.65833175  1
  O2-  O488  1  0.16115706  0.58264047  0.97629781  1
  O2-  O489  1  0.20216823  0.79231977  0.28815823  1
  O2-  O490  1  0.16198589  0.83263355  0.61853733  1
  O2-  O491  1  0.16698336  0.83406642  1.00077080  1
  O2-  O492  1  0.43014470  0.06834348  0.31582088  1
  O2-  O493  1  0.40521144  0.09019278  0.63467643  1
  O2-  O494  1  0.40573510  0.07680373  0.97691524  1
  O2-  O495  1  0.40177982  0.30568837  0.32614166  1
  O2-  O496  1  0.41338408  0.33515986  0.63258361  1
  O2-  O497  1  0.42949749  0.32403719  0.99408379  1
  O2-  O498  1  0.41621336  0.57043589  0.30828894  1
  O2-  O499  1  0.43251800  0.59173570  0.66215625  1
  O2-  O500  1  0.40703463  0.56989625  1.03756471  1
  O2-  O501  1  0.43037122  0.83575320  0.30113111  1
  O2-  O502  1  0.41269391  0.83668524  0.65202909  1
  O2-  O503  1  0.40405743  0.82792933  0.98409058  1
  O2-  O504  1  0.66707767  0.09062420  0.30418202  1
  O2-  O505  1  0.63658926  0.07573657  0.63913617  1
  O2-  O506  1  0.59513658  0.04107227  0.96482220  1
  O2-  O507  1  0.66528716  0.32829819  0.32203410  1
  O2-  O508  1  0.68400284  0.34573598  0.64045917  1
  O2-  O509  1  0.66652276  0.32862515  0.99264353  1
  O2-  O510  1  0.68351690  0.59343312  0.31380965  1
  O2-  O511  1  0.67503168  0.59350911  0.63011899  1
  O2-  O512  1  0.65582250  0.57960619  0.99877018  1
  O2-  O513  1  0.66589236  0.83804721  0.31537199  1
  O2-  O514  1  0.66574472  0.83988846  0.64386753  1
  O2-  O515  1  0.64919430  0.82316157  0.98839328  1
  O2-  O516  1  0.91127973  0.09963146  0.30203246  1
  O2-  O517  1  0.90996123  0.09286319  0.63178836  1
  O2-  O518  1  0.86821368  0.05529352  0.96503076  1
  O2-  O519  1  0.89550344  0.32690758  0.31669943  1
  O2-  O520  1  0.92201727  0.33658928  0.64413904  1
  O2-  O521  1  0.92184535  0.33433187  0.98266886  1
  O2-  O522  1  0.92591334  0.58141300  0.32653836  1
  O2-  O523  1  0.91960865  0.58294639  0.66062141  1
  O2-  O524  1  0.91312919  0.56952252  0.98449086  1
  O2-  O525  1  0.91402894  0.81898973  0.30281857  1
  O2-  O526  1  0.92287987  0.83945371  0.63682872  1
  O2-  O527  1  1.02389874  0.95924743  0.98137682  1
  O2-  O528  1  0.18620660  0.25464296  0.03662219  1
  O2-  O529  1  0.08054579  0.18852677  0.33963566  1
  O2-  O530  1  0.08894805  0.17692793  0.66005274  1
  O2-  O531  1  0.08384156  0.43158425  0.02510137  1
  O2-  O532  1  0.04719378  0.40658315  0.36150822  1
  O2-  O533  1  0.10339392  0.40466088  0.69224004  1
  O2-  O534  1  0.07517995  0.65947988  0.02332150  1
  O2-  O535  1  0.07746060  0.66072243  0.36397118  1
  O2-  O536  1  0.10152476  0.67583074  0.69609305  1
  O2-  O537  1  0.13497042  0.89214136  0.01703396  1
  O2-  O538  1  0.03571397  0.94845003  0.36603458  1
  O2-  O539  1  0.08787034  0.94013725  0.65151884  1
  O2-  O540  1  0.34378915  0.16730269  0.02991061  1
  O2-  O541  1  0.34075370  0.21466476  0.33470372  1
  O2-  O542  1  0.32349054  0.17167191  0.68192494  1
  O2-  O543  1  0.34928108  0.38793771  0.04219563  1
  O2-  O544  1  0.33804299  0.41573874  0.36112854  1
  O2-  O545  1  0.34416081  0.42069163  0.68729743  1
  O2-  O546  1  0.32428179  0.66155889  0.02423561  1
  O2-  O547  1  0.33907199  0.66758140  0.31219058  1
  O2-  O548  1  0.32974158  0.66284657  0.68821328  1
  O2-  O549  1  0.32761785  0.91603269  0.01789444  1
  O2-  O550  1  0.34594517  0.90204833  0.33581674  1
  O2-  O551  1  0.32437846  0.92113225  0.68057563  1
  O2-  O552  1  0.57074141  0.16415224  0.01798136  1
  O2-  O553  1  0.58773453  0.16215869  0.35326312  1
  O2-  O554  1  0.56884694  0.17757194  0.68305011  1
  O2-  O555  1  0.57995291  0.41665371  0.03155869  1
  O2-  O556  1  0.59464482  0.42877357  0.35461574  1
  O2-  O557  1  0.59207665  0.42590154  0.62861358  1
  O2-  O558  1  0.57816879  0.66583145  0.03274700  1
  O2-  O559  1  0.66011406  0.71538293  0.37713251  1
  O2-  O560  1  0.60089521  0.69626681  0.72363272  1
  O2-  O561  1  0.56516846  0.90296314  0.02795983  1
  O2-  O562  1  0.58512485  0.92771007  0.34209958  1
  O2-  O563  1  0.57446843  0.91275044  0.68886341  1
  O2-  O564  1  0.91360792  0.20599100  0.03891375  1
  O2-  O565  1  0.82014425  0.16627795  0.33413447  1
  O2-  O566  1  0.85050376  0.18111794  0.69636841  1
  O2-  O567  1  0.83299688  0.40501611  0.02970425  1
  O2-  O568  1  0.83484118  0.42437226  0.36098725  1
  O2-  O569  1  0.83581291  0.41485598  0.69637893  1
  O2-  O570  1  0.81961101  0.64387902  0.03552780  1
  O2-  O571  1  0.84456403  0.65848691  0.34565997  1
  O2-  O572  1  0.80660128  0.61703374  0.70832805  1
  O2-  O573  1  0.82667070  0.91429785  0.03060330  1
  O2-  O574  1  0.88943182  0.95128323  0.35277345  1
  O2-  O575  1  0.84194475  0.93053081  0.66961345  1
