# generated using pymatgen
data_H2O
_symmetry_space_group_name_H-M   'P 1'
_cell_length_a   17.97810620
_cell_length_b   17.97929528
_cell_length_c   21.99012880
_cell_angle_alpha   90.02341519
_cell_angle_beta   90.01808975
_cell_angle_gamma   120.00093493
_symmetry_Int_Tables_number   1
_chemical_formula_structural   H2O
_chemical_formula_sum   'H384 O192'
_cell_volume   6155.60587033
_cell_formula_units_Z   192
loop_
 _symmetry_equiv_pos_site_id
 _symmetry_equiv_pos_as_xyz
  1  'x, y, z'
loop_
 _atom_type_symbol
 _atom_type_oxidation_number
  H+  1.0
  O2-  -2.0
loop_
 _atom_site_type_symbol
 _atom_site_label
 _atom_site_symmetry_multiplicity
 _atom_site_fract_x
 _atom_site_fract_y
 _atom_site_fract_z
 _atom_site_occupancy
  H+  H0  1  0.81422670  0.65168833  -0.05978426  1
  H+  H1  1  0.49099932  0.09654434  0.85312856  1
  H+  H2  1  0.63310069  0.65756708  0.34021714  1
  H+  H3  1  -0.03040386  0.36731580  0.17361788  1
  H+  H4  1  0.87302703  0.38914643  0.66079075  1
  H+  H5  1  0.64616748  0.53638449  0.32426215  1
  H+  H6  1  0.36552287  0.65293582  0.00569540  1
  H+  H7  1  0.61213631  0.22381658  0.13486415  1
  H+  H8  1  0.21307206  0.09953085  0.84508889  1
  H+  H9  1  0.63296988  0.49248465  0.49559571  1
  H+  H10  1  0.75631437  0.63495955  0.99592013  1
  H+  H11  1  0.73460130  0.11857469  0.16053117  1
  H+  H12  1  0.65816054  0.55036993  0.16810111  1
  H+  H13  1  0.10188860  0.21060556  0.83682552  1
  H+  H14  1  0.44914697  0.01971473  0.89938717  1
  H+  H15  1  0.14390718  0.02230901  0.66154345  1
  H+  H16  1  0.11664333  0.34687159  0.86221841  1
  H+  H17  1  0.13834285  0.61623062  0.65811447  1
  H+  H18  1  0.10654301  0.72236742  0.83155472  1
  H+  H19  1  0.51389946  0.64467968  0.83459420  1
  H+  H20  1  0.88991403  0.52866889  0.66043344  1
  H+  H21  1  0.88424756  0.10391185  0.68427258  1
  H+  H22  1  1.00892263  0.88016978  0.32464808  1
  H+  H23  1  0.22283743  0.45998457  0.80748546  1
  H+  H24  1  0.85715871  0.12148937  0.83496575  1
  H+  H25  1  0.47737480  0.84651715  0.16150125  1
  H+  H26  1  0.01629529  0.37809723  0.01117668  1
  H+  H27  1  0.77926462  0.14696744  0.33417266  1
  H+  H28  1  0.15843381  0.54488595  0.33231475  1
  H+  H29  1  0.75780476  0.88177520  0.85533880  1
  H+  H30  1  0.61411328  0.97075211  0.50858724  1
  H+  H31  1  0.52188115  0.89858043  0.01145501  1
  H+  H32  1  0.14116689  0.76589144  0.15971272  1
  H+  H33  1  0.10766790  0.88720292  -0.00220807  1
  H+  H34  1  0.37772278  -0.00070980  0.66929047  1
  H+  H35  1  0.39531322  0.54352087  0.17674750  1
  H+  H36  1  0.26037890  0.62678986  0.15702309  1
  H+  H37  1  0.88660348  0.36878068  0.98930727  1
  H+  H38  1  0.76899893  0.12593507  0.83827076  1
  H+  H39  1  0.63345523  0.02856144  1.00306745  1
  H+  H40  1  0.22725029  0.86184821  0.13783277  1
  H+  H41  1  0.11191611  0.47475209  0.84694653  1
  H+  H42  1  0.38256379  0.02751855  1.01976106  1
  H+  H43  1  0.57520831  0.13985309  0.73566583  1
  H+  H44  1  0.51132674  0.37904646  0.48326482  1
  H+  H45  1  0.62032260  0.88895280  0.84243994  1
  H+  H46  1  0.57492780  0.67680817  0.10298308  1
  H+  H47  1  0.89034826  0.61564657  -0.01001278  1
  H+  H48  1  0.64017236  0.87668397  0.31854186  1
  H+  H49  1  0.61940094  0.14174535  0.32479445  1
  H+  H50  1  0.89409172  0.34255830  0.48853185  1
  H+  H51  1  0.10460966  0.96912988  0.82545939  1
  H+  H52  1  0.60079213  0.64586018  0.01982387  1
  H+  H53  1  0.12805298  0.77739446  0.32884364  1
  H+  H54  1  0.35638476  -0.01830698  0.12091952  1
  H+  H55  1  0.14284400  0.24494399  0.49630818  1
  H+  H56  1  0.47567992  0.09456144  0.67011993  1
  H+  H57  1  0.62819576  0.31091375  0.66886861  1
  H+  H58  1  -0.02870804  0.59852696  0.32777931  1
  H+  H59  1  0.22341045  0.61875342  0.84765038  1
  H+  H60  1  0.78152875  0.64374606  0.50240736  1
  H+  H61  1  0.14454567  0.86418209  0.17590951  1
  H+  H62  1  0.64526907  0.55979630  0.86150756  1
  H+  H63  1  0.38271924  0.87903905  1.01194864  1
  H+  H64  1  0.93157849  0.37323114  0.58019730  1
  H+  H65  1  0.13910662  0.77024352  0.66917722  1
  H+  H66  1  0.42442772  0.42974994  0.83816320  1
  H+  H67  1  0.62327582  0.39775063  0.33165143  1
  H+  H68  1  0.14516885  0.28153004  0.63894107  1
  H+  H69  1  0.74405702  0.36940721  0.43094132  1
  H+  H70  1  0.50181703  0.36407091  1.01031669  1
  H+  H71  1  0.63295316  0.79067110  0.85330336  1
  H+  H72  1  0.89514222  0.86321711  0.50920387  1
  H+  H73  1  0.34003289  0.29547152  0.63108613  1
  H+  H74  1  0.62937346  0.78803580  0.99640851  1
  H+  H75  1  0.03020798  0.14034873  0.65495041  1
  H+  H76  1  0.75907653  0.37808760  0.33338042  1
  H+  H77  1  0.63049619  0.64013064  0.86178309  1
  H+  H78  1  0.22523161  0.35669036  0.32176673  1
  H+  H79  1  0.27070113  0.11391998  0.68010937  1
  H+  H80  1  0.63515477  0.11801366  1.01031939  1
  H+  H81  1  0.61888084  0.97699714  0.15615439  1
  H+  H82  1  0.12531813  0.10450321  0.84396774  1
  H+  H83  1  0.63458519  1.01661577  0.85027055  1
  H+  H84  1  0.36934631  0.65910884  0.33063196  1
  H+  H85  1  0.38321613  0.10103796  0.16445416  1
  H+  H86  1  0.11854358  0.14185385  0.64708999  1
  H+  H87  1  0.61180930  0.63942176  0.49873817  1
  H+  H88  1  0.43235192  0.08103840  0.42542814  1
  H+  H89  1  0.77897653  0.89658816  0.33447590  1
  H+  H90  1  0.88249839  0.27680296  0.17170797  1
  H+  H91  1  0.52009792  0.13964672  0.04020867  1
  H+  H92  1  0.86241091  0.72113323  0.83843022  1
  H+  H93  1  0.61527737  0.12307140  0.83007967  1
  H+  H94  1  0.88982570  0.87211407  0.31872201  1
  H+  H95  1  0.88857488  0.12499197  0.33135509  1
  H+  H96  1  0.65008009  0.29377036  0.96539416  1
  H+  H97  1  0.10213508  -0.02473888  0.32941133  1
  H+  H98  1  0.66660729  0.55786794  0.65664409  1
  H+  H99  1  0.76700100  0.87665976  0.70102264  1
  H+  H100  1  0.37951251  0.14580640  0.47994798  1
  H+  H101  1  0.40619279  0.40160043  0.81046538  1
  H+  H102  1  0.12789813  0.10823976  0.33241108  1
  H+  H103  1  0.26771463  0.13462458  0.01330494  1
  H+  H104  1  0.86283425  0.14516434  0.00500680  1
  H+  H105  1  0.61588849  0.74155787  0.16372995  1
  H+  H106  1  0.38184740  0.09714729  0.67233034  1
  H+  H107  1  0.50339879  0.64022367  0.32941513  1
  H+  H108  1  0.16046155  0.12595846  0.51150289  1
  H+  H109  1  0.88855525  0.52408645  0.16576910  1
  H+  H110  1  0.16408143  0.57886343  0.56267842  1
  H+  H111  1  0.63400094  0.74838063  0.33920788  1
  H+  H112  1  0.60566726  0.19250844  0.67242558  1
  H+  H113  1  0.65360045  0.24075086  0.47430776  1
  H+  H114  1  0.38239233  0.86500946  0.85092729  1
  H+  H115  1  0.88475232  0.78028885  0.32609166  1
  H+  H116  1  0.05137472  0.47254753  0.50122592  1
  H+  H117  1  0.77290118  0.14401950  0.01031221  1
  H+  H118  1  0.35722570  0.86262076  0.48938267  1
  H+  H119  1  0.77832297  0.65539123  0.34541811  1
  H+  H120  1  0.21757300  0.85526957  0.84296097  1
  H+  H121  1  0.41535568  0.59380587  0.93724673  1
  H+  H122  1  0.22815848  0.61881209  0.65965440  1
  H+  H123  1  0.02530091  0.64246017  0.49633817  1
  H+  H124  1  0.76233388  0.90235026  0.00853537  1
  H+  H125  1  0.32958280  0.16504819  0.11062017  1
  H+  H126  1  0.12093598  0.98138080  0.50405640  1
  H+  H127  1  0.79035992  0.66108621  0.66678922  1
  H+  H128  1  0.38258766  0.53194737  0.99553280  1
  H+  H129  1  0.10048152  0.37027196  0.01829877  1
  H+  H130  1  0.36891413  0.46433604  0.31804032  1
  H+  H131  1  0.52718598  0.63190551  0.68797632  1
  H+  H132  1  0.26886971  0.38871305  0.01082416  1
  H+  H133  1  0.63017004  0.76407832  0.67517839  1
  H+  H134  1  0.65468076  0.41450565  0.48143986  1
  H+  H135  1  -0.01088090  0.86959133  0.51165372  1
  H+  H136  1  0.51335504  0.63251182  0.17676352  1
  H+  H137  1  0.55910638  0.15829049  0.48260569  1
  H+  H138  1  0.38301921  0.76371028  0.50803497  1
  H+  H139  1  0.13264479  0.61216133  0.17255718  1
  H+  H140  1  0.77916366  0.40160188  -0.00605955  1
  H+  H141  1  0.86865855  0.14050595  0.16057883  1
  H+  H142  1  0.11642081  0.89082764  0.50607714  1
  H+  H143  1  0.86293420  0.37889445  0.82130310  1
  H+  H144  1  0.53737210  0.42695447  0.83021880  1
  H+  H145  1  0.82424609  0.15237239  0.75066943  1
  H+  H146  1  0.37724910  0.48195821  0.45655688  1
  H+  H147  1  0.61668442  0.52935278  0.00161126  1
  H+  H148  1  0.62235776  0.64338461  0.67853905  1
  H+  H149  1  0.90329279  0.77740269  0.65911641  1
  H+  H150  1  0.13542719  0.01544152  0.99209245  1
  H+  H151  1  0.88417550  0.26606014  0.84064022  1
  H+  H152  1  0.91036506  0.08053337  0.90260198  1
  H+  H153  1  0.64227798  0.03621968  0.30474974  1
  H+  H154  1  1.03139911  0.65104645  1.00846105  1
  H+  H155  1  0.90496305  0.52359507  0.52452838  1
  H+  H156  1  0.02125335  0.88844581  -0.01656006  1
  H+  H157  1  0.38552723  0.87483969  0.30995507  1
  H+  H158  1  0.72655953  0.35303889  0.16236789  1
  H+  H159  1  0.25995564  0.38905278  0.67441293  1
  H+  H160  1  0.02557922  0.63758874  0.67625864  1
  H+  H161  1  0.63499777  0.46135727  0.69764378  1
  H+  H162  1  0.86186353  0.85089313  0.87679130  1
  H+  H163  1  0.84595101  0.19161549  0.49274937  1
  H+  H164  1  0.08362687  0.67299560  0.39856697  1
  H+  H165  1  0.26907727  0.63217452  0.48153117  1
  H+  H166  1  0.38023576  0.52209077  0.68454305  1
  H+  H167  1  0.62564625  0.85324808  0.52884024  1
  H+  H168  1  0.11806377  0.13732132  0.16939823  1
  H+  H169  1  0.66011555  0.30739333  0.60131216  1
  H+  H170  1  0.22777816  0.10992381  0.18068997  1
  H+  H171  1  0.36338594  0.98406900  0.32427532  1
  H+  H172  1  0.64091111  0.35650156  0.16318370  1
  H+  H173  1  0.98113335  0.11673188  0.18035031  1
  H+  H174  1  0.86683449  0.98039478  0.16579344  1
  H+  H175  1  0.21523246  0.86885304  0.32129276  1
  H+  H176  1  0.78430457  0.65332619  0.15096204  1
  H+  H177  1  0.82487256  0.93011062  0.06665190  1
  H+  H178  1  0.63146279  0.08941645  0.66551147  1
  H+  H179  1  0.37415498  0.27005425  1.00303930  1
  H+  H180  1  0.47282794  0.85204858  0.51354981  1
  H+  H181  1  0.51177903  0.64564893  0.01613803  1
  H+  H182  1  0.06576636  0.15796004  0.52100218  1
  H+  H183  1  0.36050519  0.63984947  0.69113949  1
  H+  H184  1  0.36010719  0.14109710  0.02036588  1
  H+  H185  1  0.11914291  0.88694518  0.67597644  1
  H+  H186  1  0.35804595  0.20106485  0.69079175  1
  H+  H187  1  0.16877082  0.59103622  0.26678903  1
  H+  H188  1  0.11262380  0.22838618  0.34587179  1
  H+  H189  1  0.36507711  0.53867140  0.84412992  1
  H+  H190  1  0.87285985  0.64825484  0.67170926  1
  H+  H191  1  0.38746064  0.61558450  0.45839187  1
  H+  H192  1  0.90731418  0.28491149  0.60701242  1
  H+  H193  1  0.12287566  0.47920998  0.65958294  1
  H+  H194  1  0.64734839  0.10366459  0.50720902  1
  H+  H195  1  0.85551031  0.21395155  0.69289470  1
  H+  H196  1  0.64398042  0.11534300  0.15156496  1
  H+  H197  1  0.72365839  0.09663788  0.66863777  1
  H+  H198  1  0.73213800  0.86634056  0.17049238  1
  H+  H199  1  0.36126002  0.72847946  0.68184920  1
  H+  H200  1  0.21010471  0.09219266  0.33190716  1
  H+  H201  1  0.48204335  0.11433679  0.31353070  1
  H+  H202  1  0.87015045  0.89317363  0.15882054  1
  H+  H203  1  0.34370115  0.09625746  0.84022888  1
  H+  H204  1  0.92193481  0.58478273  -0.06711127  1
  H+  H205  1  0.10754098  0.88032014  0.32768889  1
  H+  H206  1  0.03773794  0.88216220  0.17940074  1
  H+  H207  1  0.12701140  0.52010419  0.17523697  1
  H+  H208  1  0.84596455  0.95606391  0.48715719  1
  H+  H209  1  0.86656191  0.23776103  0.33420038  1
  H+  H210  1  0.67715982  0.10111289  0.24969624  1
  H+  H211  1  0.23124211  0.87875182  1.00082204  1
  H+  H212  1  0.35919852  0.96763994  0.82998231  1
  H+  H213  1  0.27076946  0.87952320  0.67476282  1
  H+  H214  1  0.53071757  0.32718805  0.73191370  1
  H+  H215  1  0.03689467  0.39081195  0.65279847  1
  H+  H216  1  0.14431069  0.78587455  0.99970361  1
  H+  H217  1  0.11769114  0.64742432  0.33940392  1
  H+  H218  1  0.61052442  -0.03782886  0.68432810  1
  H+  H219  1  0.61084947  0.89438203  0.00420143  1
  H+  H220  1  0.65000963  0.63477539  0.17142221  1
  H+  H221  1  0.62716422  0.26983390  0.31740554  1
  H+  H222  1  0.51604740  0.89731878  0.31755079  1
  H+  H223  1  0.23177489  0.63863340  0.99610519  1
  H+  H224  1  -0.02279812  0.12161254  0.33487000  1
  H+  H225  1  0.13932954  0.27792231  0.17264255  1
  H+  H226  1  0.10075730  0.10013525  0.01333793  1
  H+  H227  1  0.02695522  0.64141472  0.15885798  1
  H+  H228  1  0.88715070  0.09367165  0.44448624  1
  H+  H229  1  0.38460125  0.23737453  0.47808243  1
  H+  H230  1  0.62696411  0.85302416  0.67472932  1
  H+  H231  1  0.22268107  0.85742684  0.51499481  1
  H+  H232  1  0.87303129  0.35739511  0.32974514  1
  H+  H233  1  0.87163127  0.02882427  0.99608022  1
  H+  H234  1  0.85936858  0.38644720  0.15568067  1
  H+  H235  1  0.08608274  -0.08275458  0.73496019  1
  H+  H236  1  1.10717720  0.88191916  0.82439495  1
  H+  H237  1  0.36166791  0.73984214  0.84067143  1
  H+  H238  1  0.34045814  0.38487521  0.70313179  1
  H+  H239  1  0.39637871  0.02244463  0.48172642  1
  H+  H240  1  0.14169756  0.41023124  0.35861160  1
  H+  H241  1  0.47250398  0.10318170  0.15485912  1
  H+  H242  1  0.20443384  0.35380846  0.85488286  1
  H+  H243  1  0.87524804  1.00861938  0.85121899  1
  H+  H244  1  0.39654115  0.23784660  0.85203947  1
  H+  H245  1  0.49111757  0.28784611  0.87569443  1
  H+  H246  1  0.41267047  0.58404409  0.62815005  1
  H+  H247  1  0.96581796  0.10974797  0.99528039  1
  H+  H248  1  0.42153080  0.58901712  0.36631894  1
  H+  H249  1  0.62829811  0.76095279  0.52049551  1
  H+  H250  1  0.12320346  0.65442239  1.00858569  1
  H+  H251  1  0.66245220  0.33825188  0.86670396  1
  H+  H252  1  0.92540753  0.59259415  0.60395301  1
  H+  H253  1  0.11281645  0.64100358  0.49244852  1
  H+  H254  1  0.47460683  0.34072356  0.19211757  1
  H+  H255  1  0.88621920  0.60780872  0.83974117  1
  H+  H256  1  0.01456622  0.04527928  0.04861646  1
  H+  H257  1  0.72935158  0.35240710  0.81496566  1
  H+  H258  1  0.58968283  0.45202948  0.68996615  1
  H+  H259  1  0.87301853  0.77474462  0.97229573  1
  H+  H260  1  0.64989692  0.59960687  0.94649210  1
  H+  H261  1  0.13800382  0.26322750  1.00679573  1
  H+  H262  1  0.48891182  0.36239403  0.33635913  1
  H+  H263  1  0.21441394  0.37798893  0.17215937  1
  H+  H264  1  0.37506900  0.20835361  0.17541146  1
  H+  H265  1  0.34396010  0.10903006  0.33399803  1
  H+  H266  1  0.47583644  0.85959340  0.66863305  1
  H+  H267  1  0.34191938  0.34610682  0.18952371  1
  H+  H268  1  0.63639223  0.37231103  -0.02913680  1
  H+  H269  1  0.89933440  0.78296820  0.16429078  1
  H+  H270  1  0.38674525  0.39787262  0.46696841  1
  H+  H271  1  0.09887494  0.38412978  0.16713564  1
  H+  H272  1  0.87206490  0.72917727  0.50382639  1
  H+  H273  1  0.78110241  0.37824929  0.66560109  1
  H+  H274  1  1.02586578  0.38542516  0.83559846  1
  H+  H275  1  0.12766117  0.97166148  0.18370230  1
  H+  H276  1  0.38448003  0.63289176  0.84888309  1
  H+  H277  1  0.85658553  0.96009054  0.70915697  1
  H+  H278  1  0.37624023  0.39261358  0.18839534  1
  H+  H279  1  0.89226706  0.61455395  0.16692555  1
  H+  H280  1  0.48061117  0.62254092  0.46191653  1
  H+  H281  1  0.60870657  0.43573130  0.09230989  1
  H+  H282  1  0.38769496  0.78708315  0.31594687  1
  H+  H283  1  0.30152098  0.53473382  0.13003212  1
  H+  H284  1  0.36302743  0.88084434  0.67478089  1
  H+  H285  1  0.90565558  0.33644870  0.26795125  1
  H+  H286  1  1.00016356  0.87141767  0.65994758  1
  H+  H287  1  0.13268163  0.77110388  0.51368338  1
  H+  H288  1  0.66688562  0.60111501  0.59173008  1
  H+  H289  1  0.24636752  0.12142003  0.50848482  1
  H+  H290  1  0.14502099  0.37210771  0.64607147  1
  H+  H291  1  0.84710760  0.67885536  0.77292934  1
  H+  H292  1  0.42723125  0.09417285  0.96291735  1
  H+  H293  1  0.91469604  0.56686680  0.26873248  1
  H+  H294  1  0.43433099  0.34728380  0.65511779  1
  H+  H295  1  0.86786088  0.98495612  0.33889603  1
  H+  H296  1  0.16658807  0.60154644  0.94000712  1
  H+  H297  1  0.67214369  0.84465912  0.26195232  1
  H+  H298  1  0.54765244  0.32241468  0.04526072  1
  H+  H299  1  0.61609535  0.46609855  0.78617654  1
  H+  H300  1  0.37880966  0.59883206  0.55758167  1
  H+  H301  1  0.13079076  0.45907843  0.41661941  1
  H+  H302  1  0.91176992  0.33063302  0.89699914  1
  H+  H303  1  0.88238236  0.27769099  0.99209079  1
  H+  H304  1  0.65887129  0.84606418  0.93170296  1
  H+  H305  1  0.89183065  0.04974892  0.63140310  1
  H+  H306  1  0.84213360  0.41362268  0.75980599  1
  H+  H307  1  0.16464138  0.08135814  0.93664628  1
  H+  H308  1  0.16796562  0.82868319  0.60872428  1
  H+  H309  1  0.32739761  0.13180445  0.77811387  1
  H+  H310  1  0.16316406  0.83234462  0.90394899  1
  H+  H311  1  0.68009661  0.60126649  0.26753094  1
  H+  H312  1  0.27936478  0.82398250  0.44479523  1
  H+  H313  1  0.38446500  0.78997992  1.00671746  1
  H+  H314  1  0.08379244  0.66381216  0.73639272  1
  H+  H315  1  0.43762013  0.59111381  0.24390844  1
  H+  H316  1  0.84877834  0.46175367  0.34625561  1
  H+  H317  1  0.32677117  0.67709566  0.42200280  1
  H+  H318  1  0.66197697  0.08211078  0.90855204  1
  H+  H319  1  0.28488822  0.43758935  0.77059300  1
  H+  H320  1  0.44317319  0.29482217  0.25556853  1
  H+  H321  1  0.91899063  0.08941107  0.23814760  1
  H+  H322  1  0.84082768  0.21671725  0.42567221  1
  H+  H323  1  0.31890178  0.13974131  0.39530130  1
  H+  H324  1  0.41350780  0.32037422  0.94141819  1
  H+  H325  1  0.91325816  0.10574362  0.51226963  1
  H+  H326  1  0.93472164  0.83997731  0.59398518  1
  H+  H327  1  0.58958657  0.91862699  0.09699510  1
  H+  H328  1  0.01891237  0.63141675  0.82918683  1
  H+  H329  1  0.41697910  0.82891364  0.60724939  1
  H+  H330  1  0.64322841  0.86960147  0.16739051  1
  H+  H331  1  0.60927256  0.43614537  0.39387816  1
  H+  H332  1  0.59835564  0.31097453  0.76687849  1
  H+  H333  1  0.08050353  0.15357785  0.10921465  1
  H+  H334  1  0.88394792  0.51668657  0.83913563  1
  H+  H335  1  0.57186923  0.53667949  0.54597814  1
  H+  H336  1  0.57893724  0.90775080  0.74674415  1
  H+  H337  1  0.32881926  0.91021466  0.76942778  1
  H+  H338  1  0.15368466  0.33066822  0.27231209  1
  H+  H339  1  0.33894957  0.40897172  0.37836053  1
  H+  H340  1  0.18576676  0.08467997  0.60318088  1
  H+  H341  1  0.35237706  0.55020951  0.55651517  1
  H+  H342  1  0.84156702  0.17193594  0.09941655  1
  H+  H343  1  0.83984477  0.90348478  0.42944218  1
  H+  H344  1  0.07106411  0.41075653  0.10521438  1
  H+  H345  1  0.33503915  0.92225281  0.38297082  1
  H+  H346  1  0.77216374  0.37652514  0.49801573  1
  H+  H347  1  0.35815908  0.70390231  0.15514141  1
  H+  H348  1  0.24809627  0.37184463  0.49244831  1
  H+  H349  1  0.70342709  0.48007127  0.11517230  1
  H+  H350  1  0.89189900  0.60796106  0.51120381  1
  H+  H351  1  0.15686406  0.31706667  0.94533047  1
  H+  H352  1  0.36025733  0.39592007  1.01374529  1
  H+  H353  1  0.44590858  0.35445132  0.53690311  1
  H+  H354  1  0.27580345  0.65302512  0.32866249  1
  H+  H355  1  0.59707656  0.16790639  0.38872225  1
  H+  H356  1  0.91894572  0.83527866  0.22680642  1
  H+  H357  1  0.83969791  0.68581606  0.40360998  1
  H+  H358  1  0.33096758  0.68151353  0.77928703  1
  H+  H359  1  0.60843052  0.68984294  0.43686156  1
  H+  H360  1  0.39523051  0.34660420  0.32418036  1
  H+  H361  1  0.61368822  0.21124604  0.81988141  1
  H+  H362  1  0.52840405  0.89155083  0.83923959  1
  H+  H363  1  0.42254642  0.08004100  0.25342703  1
  H+  H364  1  0.58220587  0.67215910  0.77989264  1
  H+  H365  1  0.86982701  0.48642382  0.00248997  1
  H+  H366  1  0.32821537  0.67036745  0.06621419  1
  H+  H367  1  0.84253769  0.67689358  0.09124671  1
  H+  H368  1  0.57492899  0.94884196  0.37328443  1
  H+  H369  1  0.13179481  0.61233985  0.84359421  1
  H+  H370  1  0.08730286  0.17097580  0.40636752  1
  H+  H371  1  0.66389170  0.06868131  0.57074743  1
  H+  H372  1  0.08632394  0.67137142  0.09798319  1
  H+  H373  1  0.01594768  0.12218106  0.83100045  1
  H+  H374  1  0.65771999  0.32462535  0.25632586  1
  H+  H375  1  0.41256945  0.84429920  0.91463190  1
  H+  H376  1  0.83089503  0.41689333  0.09489694  1
  H+  H377  1  0.59347711  0.89912187  0.45543564  1
  H+  H378  1  0.19269475  0.35106911  0.55409220  1
  H+  H379  1  0.65273412  0.81709094  0.59358541  1
  H+  H380  1  0.41429033  0.82415495  0.21647575  1
  H+  H381  1  0.32141240  0.46672703  0.09707553  1
  H+  H382  1  0.82179319  0.89643856  0.79939218  1
  H+  H383  1  0.16331399  0.08191283  0.23802794  1
  O2-  O384  1  0.08821868  0.16810429  0.15331811  1
  O2-  O385  1  0.10800265  0.17929738  0.48820055  1
  O2-  O386  1  0.07747642  0.15259372  0.81873683  1
  O2-  O387  1  0.07134621  0.41653844  0.15150218  1
  O2-  O388  1  0.11294125  0.48862110  0.49861531  1
  O2-  O389  1  0.08954422  0.41430652  0.83350215  1
  O2-  O390  1  0.08814214  0.67166076  0.14444170  1
  O2-  O391  1  0.08604383  0.67532761  0.47991194  1
  O2-  O392  1  0.07940080  0.66301106  0.81381747  1
  O2-  O393  1  0.10074126  0.90783041  0.18597114  1
  O2-  O394  1  0.08551688  0.92032636  0.49198665  1
  O2-  O395  1  0.08183475  0.91320412  0.80385758  1
  O2-  O396  1  0.33058708  0.15366303  0.15489834  1
  O2-  O397  1  0.34561349  0.17465955  0.47307599  1
  O2-  O398  1  0.32660535  0.13588560  0.82346027  1
  O2-  O399  1  0.31131194  0.48577880  0.13736434  1
  O2-  O400  1  0.34723064  0.41781813  0.45307478  1
  O2-  O401  1  0.27248658  0.45175020  0.81211744  1
  O2-  O402  1  0.31798410  0.64449895  0.13887122  1
  O2-  O403  1  0.32904020  0.66881055  0.46711796  1
  O2-  O404  1  0.33048812  0.67941039  0.82459098  1
  O2-  O405  1  0.31056517  0.92830787  0.10090513  1
  O2-  O406  1  0.31792692  0.87758004  0.46593796  1
  O2-  O407  1  0.32493972  0.90820233  0.81463532  1
  O2-  O408  1  0.58092791  0.16259783  0.11891449  1
  O2-  O409  1  0.61764394  0.17678865  0.46859194  1
  O2-  O410  1  0.58026126  0.14786487  0.81169173  1
  O2-  O411  1  0.64475671  0.45795905  0.12974025  1
  O2-  O412  1  0.61517738  0.43680158  0.47281027  1
  O2-  O413  1  0.60018866  0.45470846  0.82902580  1
  O2-  O414  1  0.58235935  0.67806739  0.15018066  1
  O2-  O415  1  0.59244676  0.68055884  0.48101072  1
  O2-  O416  1  0.57642228  0.67582054  0.82449945  1
  O2-  O417  1  0.59176669  0.91592355  0.14289007  1
  O2-  O418  1  0.58257864  0.90405103  0.49823167  1
  O2-  O419  1  0.58724386  0.92066032  0.82212452  1
  O2-  O420  1  0.83814179  0.17028504  0.14504499  1
  O2-  O421  1  0.84494198  0.23652262  0.46860408  1
  O2-  O422  1  0.82812583  0.15467112  0.82040418  1
  O2-  O423  1  0.82757278  0.41607198  0.14024957  1
  O2-  O424  1  0.86718972  0.42499361  0.53102870  1
  O2-  O425  1  0.83379832  0.41018027  0.80482942  1
  O2-  O426  1  0.84441206  0.67589092  0.13556218  1
  O2-  O427  1  0.84063622  0.66873264  0.48808887  1
  O2-  O428  1  0.84407038  0.66660732  0.81686707  1
  O2-  O429  1  0.83542970  0.92097021  0.14866525  1
  O2-  O430  1  0.83801057  0.90015423  0.47462253  1
  O2-  O431  1  0.82171179  0.90256930  0.84469031  1
  O2-  O432  1  0.16561604  0.08079645  0.19245919  1
  O2-  O433  1  0.18789244  0.09297163  0.52697795  1
  O2-  O434  1  0.15386205  0.07184476  0.86090825  1
  O2-  O435  1  0.15868192  0.33615285  0.19016333  1
  O2-  O436  1  0.18913476  0.34161089  0.50933793  1
  O2-  O437  1  0.14784618  0.31494536  0.87376008  1
  O2-  O438  1  0.16127129  0.58133983  0.18951226  1
  O2-  O439  1  0.16102319  0.58010154  0.51645798  1
  O2-  O440  1  0.16278909  0.58456800  0.86189878  1
  O2-  O441  1  0.18035774  0.83095578  0.16923367  1
  O2-  O442  1  0.16451138  0.83025575  0.53268622  1
  O2-  O443  1  0.15776684  0.82594447  0.85849802  1
  O2-  O444  1  0.41474224  0.06866548  0.17283260  1
  O2-  O445  1  0.43117650  0.08274029  0.46982519  1
  O2-  O446  1  0.43673465  0.05954610  0.87737836  1
  O2-  O447  1  0.45661719  0.28604680  0.21197141  1
  O2-  O448  1  0.44750105  0.34924785  0.49294090  1
  O2-  O449  1  0.44068974  0.29390916  0.86997424  1
  O2-  O450  1  0.44953513  0.58176666  0.20140525  1
  O2-  O451  1  0.42133811  0.58823852  0.44492925  1
  O2-  O452  1  0.40942854  0.59556282  0.86043999  1
  O2-  O453  1  0.41672094  0.80906798  0.17359858  1
  O2-  O454  1  0.41133338  0.82286210  0.52630399  1
  O2-  O455  1  0.41594824  0.84041904  0.86923233  1
  O2-  O456  1  0.67226158  0.08818373  0.17344522  1
  O2-  O457  1  0.66058199  0.06131068  0.52573883  1
  O2-  O458  1  0.66441098  0.07967941  0.86330071  1
  O2-  O459  1  0.66352886  0.31826822  0.17368730  1
  O2-  O460  1  0.71782392  0.35401714  0.47232095  1
  O2-  O461  1  0.66566726  0.32021393  0.82479483  1
  O2-  O462  1  0.68557576  0.60966218  0.18482154  1
  O2-  O463  1  0.63114796  0.57371205  0.53261234  1
  O2-  O464  1  0.66299805  0.61486333  0.88250547  1
  O2-  O465  1  0.67049096  0.83627600  0.18469395  1
  O2-  O466  1  0.65221014  0.81850929  0.54445887  1
  O2-  O467  1  0.66287976  0.85022502  0.86834110  1
  O2-  O468  1  0.91937163  0.08710059  0.19272374  1
  O2-  O469  1  0.86413028  0.07471487  0.48536850  1
  O2-  O470  1  0.90735221  0.07313567  0.85732033  1
  O2-  O471  1  0.90706768  0.33735442  0.18574161  1
  O2-  O472  1  0.92970285  0.40191735  0.50633288  1
  O2-  O473  1  0.91215030  0.32816186  0.85130479  1
  O2-  O474  1  0.92189835  0.58409369  0.18159403  1
  O2-  O475  1  0.93098860  0.58951164  0.52874132  1
  O2-  O476  1  0.91440062  0.57570022  0.85661092  1
  O2-  O477  1  0.92682373  0.84188695  0.18154241  1
  O2-  O478  1  0.92715954  0.83581467  0.52774554  1
  O2-  O479  1  0.89024956  0.81585040  0.88968263  1
  O2-  O480  1  0.15104659  0.07321032  0.31388175  1
  O2-  O481  1  0.18191118  0.08367645  0.64896247  1
  O2-  O482  1  0.16781974  0.07980951  0.98239305  1
  O2-  O483  1  0.16177121  0.33026218  0.31705262  1
  O2-  O484  1  0.18169757  0.34529926  0.63385474  1
  O2-  O485  1  0.16394290  0.32182254  0.99153789  1
  O2-  O486  1  0.17776029  0.60183936  0.31167099  1
  O2-  O487  1  0.17093518  0.59035574  0.63926487  1
  O2-  O488  1  0.17003651  0.61104627  0.98473783  1
  O2-  O489  1  0.15279181  0.83755489  0.31296165  1
  O2-  O490  1  0.17160544  0.83165887  0.65440647  1
  O2-  O491  1  0.17281221  0.84472644  0.98125587  1
  O2-  O492  1  0.42134426  0.08304077  0.29877680  1
  O2-  O493  1  0.41223372  0.06548631  0.65601534  1
  O2-  O494  1  0.42156694  0.09374712  1.00738574  1
  O2-  O495  1  0.42985636  0.31782083  0.32417234  1
  O2-  O496  1  0.37541337  0.30703468  0.66748903  1
  O2-  O497  1  0.40833915  0.33005566  0.98554081  1
  O2-  O498  1  0.43922151  0.60564259  0.32291063  1
  O2-  O499  1  0.41746203  0.58444481  0.67254810  1
  O2-  O500  1  0.41529912  0.59343647  0.98298611  1
  O2-  O501  1  0.41880344  0.84621365  0.29774233  1
  O2-  O502  1  0.41536295  0.83206699  0.65248455  1
  O2-  O503  1  0.41365234  0.85147221  0.99278801  1
  O2-  O504  1  0.67528084  0.09852503  0.29535251  1
  O2-  O505  1  0.66513192  0.06272989  0.65051302  1
  O2-  O506  1  0.66374284  0.09067587  0.98903742  1
  O2-  O507  1  0.65622018  0.32978812  0.30116202  1
  O2-  O508  1  0.66775761  0.29875567  0.64415588  1
  O2-  O509  1  0.67267155  0.35243698  0.95062251  1
  O2-  O510  1  0.67468136  0.59859229  0.31242674  1
  O2-  O511  1  0.68606360  0.61494531  0.63949641  1
  O2-  O512  1  0.64894171  0.59105819  0.99462684  1
  O2-  O513  1  0.67306440  0.84787503  0.30758379  1
  O2-  O514  1  0.65805815  0.82398966  0.65720564  1
  O2-  O515  1  0.65873933  0.84756379  0.98133479  1
  O2-  O516  1  0.91703194  0.09105776  0.31880329  1
  O2-  O517  1  0.91384026  0.07159995  0.67190060  1
  O2-  O518  1  0.90766096  0.09031575  0.97912527  1
  O2-  O519  1  0.90620686  0.33131256  0.31282065  1
  O2-  O520  1  0.92922241  0.34413948  0.61982734  1
  O2-  O521  1  0.91459819  0.33667365  0.97397940  1
  O2-  O522  1  0.91255742  0.55858073  0.31306984  1
  O2-  O523  1  0.92075715  0.59075920  0.64983887  1
  O2-  O524  1  0.92384517  0.58778820  0.97876518  1
  O2-  O525  1  0.91703212  0.83848164  0.30393768  1
  O2-  O526  1  0.93800032  0.83917364  0.64199059  1
  O2-  O527  1  0.90682381  0.83352020  0.95500807  1
  O2-  O528  1  0.05357972  0.10474265  0.03656021  1
  O2-  O529  1  0.08176979  0.16752304  0.36136963  1
  O2-  O530  1  0.08703253  0.17149060  0.63497587  1
  O2-  O531  1  0.07081648  0.39984119  0.03411640  1
  O2-  O532  1  0.14253129  0.46276462  0.37282840  1
  O2-  O533  1  0.09559714  0.41721240  0.66954485  1
  O2-  O534  1  0.08983777  0.68301563  0.02630077  1
  O2-  O535  1  0.08393093  0.67461621  0.35334181  1
  O2-  O536  1  0.08661845  0.66650269  0.69068586  1
  O2-  O537  1  0.07493852  0.91718950  0.00718724  1
  O2-  O538  1  0.07184937  0.91127237  0.34052954  1
  O2-  O539  1  0.08814822  0.91808723  0.68754387  1
  O2-  O540  1  0.32709108  0.17079325  0.03071055  1
  O2-  O541  1  0.29564846  0.10229112  0.35921125  1
  O2-  O542  1  0.33107125  0.13888463  0.69935196  1
  O2-  O543  1  0.32963552  0.42706943  0.02457032  1
  O2-  O544  1  0.33587886  0.40497721  0.33253320  1
  O2-  O545  1  0.31378795  0.42097919  0.70212398  1
  O2-  O546  1  0.33684788  0.68415046  0.02143860  1
  O2-  O547  1  0.33744221  0.68718173  0.34523239  1
  O2-  O548  1  0.32757446  0.66961056  0.69963804  1
  O2-  O549  1  0.32984712  0.93583201  0.03459720  1
  O2-  O550  1  0.33048907  0.92227148  0.33842078  1
  O2-  O551  1  0.33304662  0.91252720  0.68947491  1
  O2-  O552  1  0.58324419  0.17281498  0.05196691  1
  O2-  O553  1  0.58485533  0.16545004  0.34428989  1
  O2-  O554  1  0.57028640  0.13368560  0.68982633  1
  O2-  O555  1  0.56105800  0.37703938  0.02651037  1
  O2-  O556  1  0.59972095  0.43318831  0.34909403  1
  O2-  O557  1  0.56189095  0.29606825  0.72936882  1
  O2-  O558  1  0.57092626  0.67669400  0.03486781  1
  O2-  O559  1  0.60494752  0.68932676  0.35727508  1
  O2-  O560  1  0.58873747  0.66662412  0.69992114  1
  O2-  O561  1  0.58389812  0.92772061  0.02318792  1
  O2-  O562  1  0.57857730  0.93004296  0.33248068  1
  O2-  O563  1  0.57605580  0.90242627  0.70057784  1
  O2-  O564  1  0.83455384  0.17666693  0.02274086  1
  O2-  O565  1  0.83745417  0.17660108  0.35263802  1
  O2-  O566  1  0.82593586  0.15320646  0.70357890  1
  O2-  O567  1  0.83451145  0.42449282  0.01548693  1
  O2-  O568  1  0.81029886  0.40095072  0.36027468  1
  O2-  O569  1  0.84078646  0.41421368  0.68029421  1
  O2-  O570  1  0.81872650  0.66153676  -0.01576084  1
  O2-  O571  1  0.83807103  0.69380311  0.35937043  1
  O2-  O572  1  0.84936027  0.68613354  0.68469028  1
  O2-  O573  1  0.82348966  0.93674778  0.02212835  1
  O2-  O574  1  0.83922059  0.92240671  0.34946513  1
  O2-  O575  1  0.82258086  0.89964148  0.72191157  1
