# generated using pymatgen
data_H2O
_symmetry_space_group_name_H-M   'P 1'
_cell_length_a   17.95648251
_cell_length_b   17.95543291
_cell_length_c   21.96233934
_cell_angle_alpha   90.01172617
_cell_angle_beta   89.99788364
_cell_angle_gamma   119.95192896
_symmetry_Int_Tables_number   1
_chemical_formula_structural   H2O
_chemical_formula_sum   'H384 O192'
_cell_volume   6135.31030313
_cell_formula_units_Z   192
loop_
 _symmetry_equiv_pos_site_id
 _symmetry_equiv_pos_as_xyz
  1  'x, y, z'
loop_
 _atom_type_symbol
 _atom_type_oxidation_number
  H+  1.0
  O2-  -2.0
loop_
 _atom_site_type_symbol
 _atom_site_label
 _atom_site_symmetry_multiplicity
 _atom_site_fract_x
 _atom_site_fract_y
 _atom_site_fract_z
 _atom_site_occupancy
  H+  H0  1  0.70347414  0.10860914  0.82553795  1
  H+  H1  1  0.02975375  0.63932637  0.33919283  1
  H+  H2  1  0.61430980  0.72280635  0.49161215  1
  H+  H3  1  0.46380902  0.16054185  0.46006846  1
  H+  H4  1  0.11702367  0.22596236  0.16081817  1
  H+  H5  1  0.73543045  0.61571230  0.32970301  1
  H+  H6  1  0.61263427  0.63085720  0.50012804  1
  H+  H7  1  0.88797203  0.36819311  0.51644661  1
  H+  H8  1  0.88368746  0.12287569  0.32962135  1
  H+  H9  1  0.70055260  0.84367972  0.45259918  1
  H+  H10  1  0.49221643  0.62655117  0.50143688  1
  H+  H11  1  0.36573886  0.14353543  0.16711826  1
  H+  H12  1  0.65039463  0.02042663  0.65648884  1
  H+  H13  1  0.15923070  0.19611755  0.83758283  1
  H+  H14  1  0.58426251  0.10810500  0.81907599  1
  H+  H15  1  0.34456846  0.37979723  0.01318274  1
  H+  H16  1  0.64443734  0.24449437  0.49292271  1
  H+  H17  1  0.11234610  0.87567368  0.48570380  1
  H+  H18  1  0.59814323  0.92688661  0.43456311  1
  H+  H19  1  0.76854633  0.37993801  0.01341207  1
  H+  H20  1  0.22140860  0.62011644  0.17368759  1
  H+  H21  1  0.10826769  0.22500917  0.49614058  1
  H+  H22  1  0.65229588  0.51903893  0.17468127  1
  H+  H23  1  0.62701231  0.52129110  0.99115369  1
  H+  H24  1  0.36611902  0.89103114  0.83175829  1
  H+  H25  1  0.60686935  0.71529499  0.00471109  1
  H+  H26  1  0.16182783  0.08214984  0.84733399  1
  H+  H27  1  0.53433457  0.14710719  0.34715398  1
  H+  H28  1  0.87632020  0.51933519  0.99884485  1
  H+  H29  1  0.27501364  0.13419582  0.33995119  1
  H+  H30  1  0.37540305  0.35718716  0.66966335  1
  H+  H31  1  0.43499358  0.76062367  0.02185927  1
  H+  H32  1  0.86302068  0.73535448  0.34498318  1
  H+  H33  1  0.77034917  0.41015434  0.15973333  1
  H+  H34  1  0.77728329  0.23732855  0.77449271  1
  H+  H35  1  0.86496699  0.53226056  0.16269653  1
  H+  H36  1  0.14572452  0.05464905  0.56347297  1
  H+  H37  1  0.64303320  0.74717172  0.16714254  1
  H+  H38  1  0.39315163  0.03923973  0.17977859  1
  H+  H39  1  0.38914933  0.61705206  0.17263872  1
  H+  H40  1  0.49235106  0.62267452  0.32769380  1
  H+  H41  1  0.34663738  -0.07495848  0.73977764  1
  H+  H42  1  0.09760580  0.46562536  0.31389902  1
  H+  H43  1  0.39848755  0.12111659  0.33514884  1
  H+  H44  1  0.17901533  0.19321797  0.68506680  1
  H+  H45  1  0.78565371  0.89134341  0.52842429  1
  H+  H46  1  0.33148585  0.66919484  0.76950488  1
  H+  H47  1  0.62374974  0.98046225  0.49648019  1
  H+  H48  1  0.22760589  0.35986294  0.19146344  1
  H+  H49  1  0.86975364  0.14936861  0.48428478  1
  H+  H50  1  0.84811815  0.62802896  -0.02496364  1
  H+  H51  1  0.14974006  0.81002919  0.92439055  1
  H+  H52  1  0.28599436  0.65089337  0.67157475  1
  H+  H53  1  1.03357314  0.90535621  0.67601185  1
  H+  H54  1  0.58916429  0.66848055  0.77408653  1
  H+  H55  1  0.79644366  0.61500067  0.16935511  1
  H+  H56  1  0.96584514  0.85239115  0.17021247  1
  H+  H57  1  0.61327696  0.96343069  0.82126299  1
  H+  H58  1  0.87976359  0.14342416  0.67445431  1
  H+  H59  1  0.86912129  0.23766445  0.49969306  1
  H+  H60  1  0.35195974  0.92652996  0.39492370  1
  H+  H61  1  0.09986175  0.28296366  0.84117446  1
  H+  H62  1  0.29383217  0.90937759  0.67764681  1
  H+  H63  1  0.11425979  0.22358204  0.00499983  1
  H+  H64  1  0.38654677  0.39525387  0.51468488  1
  H+  H65  1  0.98467178  0.11447592  0.98819770  1
  H+  H66  1  0.57660526  0.14447798  0.72622620  1
  H+  H67  1  0.27999051  0.63183391  0.34888506  1
  H+  H68  1  0.88958900  0.87225748  0.83724918  1
  H+  H69  1  0.26442927  -0.03963665  0.57587109  1
  H+  H70  1  0.70965646  0.36779139  0.85481672  1
  H+  H71  1  0.62088588  0.74009206  0.67683902  1
  H+  H72  1  0.47100070  0.37481095  0.00710418  1
  H+  H73  1  0.75729864  0.62958689  0.97105981  1
  H+  H74  1  0.64233926  0.86752694  0.49209633  1
  H+  H75  1  0.35530187  0.88516547  0.99120526  1
  H+  H76  1  0.11822351  0.48434660  0.51432966  1
  H+  H77  1  0.12429043  0.10098670  0.50964034  1
  H+  H78  1  0.10633927  0.21695244  0.34526755  1
  H+  H79  1  0.15948985  0.86454255  0.33178116  1
  H+  H80  1  0.29562558  0.23754727  0.47403999  1
  H+  H81  1  0.64551231  0.10672630  0.65664766  1
  H+  H82  1  0.33904625  0.48904720  0.84461232  1
  H+  H83  1  0.67012055  0.35270021  0.22858159  1
  H+  H84  1  0.39000009  0.53825342  0.64650334  1
  H+  H85  1  0.34143532  0.46639955  0.01031236  1
  H+  H86  1  0.90073528  0.87116250  0.67572278  1
  H+  H87  1  0.35286321  0.58399718  0.84093525  1
  H+  H88  1  0.85314905  0.23109923  0.33299718  1
  H+  H89  1  0.08356929  0.63213753  0.00850265  1
  H+  H90  1  0.75181527  0.87439942  0.67079576  1
  H+  H91  1  0.13435109  0.28771478  0.65669621  1
  H+  H92  1  0.13425329  0.60660809  0.34645323  1
  H+  H93  1  0.61675445  0.87487692  0.82460172  1
  H+  H94  1  0.92698947  0.02430020  0.82991359  1
  H+  H95  1  0.48893441  0.87078944  0.66077766  1
  H+  H96  1  0.63668032  1.00733116  -0.01807947  1
  H+  H97  1  0.64467243  0.14770308  0.49170966  1
  H+  H98  1  0.85723630  0.38938833  0.33556877  1
  H+  H99  1  0.08792375  0.66032659  0.42815711  1
  H+  H100  1  0.05663917  0.11615922  0.83178432  1
  H+  H101  1  0.14693606  0.54936628  0.66396952  1
  H+  H102  1  0.87655761  0.76650236  0.97595006  1
  H+  H103  1  0.77643617  0.64046046  0.50025885  1
  H+  H104  1  0.73935604  0.12137693  0.50580845  1
  H+  H105  1  0.78170260  0.39020498  0.49877064  1
  H+  H106  1  0.38716555  0.77471237  0.83818013  1
  H+  H107  1  0.44984561  0.12622894  0.48394974  1
  H+  H108  1  0.50125480  0.99027262  0.11067653  1
  H+  H109  1  0.10759073  0.41276950  0.82682473  1
  H+  H110  1  0.47989806  0.88432244  -0.01088702  1
  H+  H111  1  0.87450362  0.10831918  0.17281751  1
  H+  H112  1  0.89152963  0.27970049  0.66878332  1
  H+  H113  1  0.86805353  0.13347614  -0.00893739  1
  H+  H114  1  0.60745716  0.62649031  -0.00202761  1
  H+  H115  1  0.91059339  0.60519847  0.82865483  1
  H+  H116  1  0.62516339  0.63392111  0.33779994  1
  H+  H117  1  0.87015867  0.48040858  0.49472099  1
  H+  H118  1  0.35960726  -0.00241957  0.98625124  1
  H+  H119  1  0.15110889  0.54614077  0.38962768  1
  H+  H120  1  0.88312512  0.85928472  0.99010312  1
  H+  H121  1  0.27045801  0.89983549  0.17379958  1
  H+  H122  1  0.27291366  0.13679277  0.16521488  1
  H+  H123  1  0.59607806  0.35731684  0.68783557  1
  H+  H124  1  0.38173372  0.74143452  0.49496557  1
  H+  H125  1  0.40422673  0.53357441  0.32277753  1
  H+  H126  1  0.51018343  0.36161618  0.68932596  1
  H+  H127  1  0.12691549  0.77073834  0.17881294  1
  H+  H128  1  0.62355458  0.37306450  0.86120465  1
  H+  H129  1  0.75658516  0.88659143  0.30489604  1
  H+  H130  1  0.10165323  0.06046104  0.66662296  1
  H+  H131  1  0.26626574  0.40286029  0.66849957  1
  H+  H132  1  0.35605190  0.89629243  0.16799656  1
  H+  H133  1  0.16620532  0.90531553  0.65924672  1
  H+  H134  1  -0.02376482  0.11195120  0.48279619  1
  H+  H135  1  0.32449411  0.46036760  0.72331018  1
  H+  H136  1  0.86680694  0.86723846  0.30710785  1
  H+  H137  1  0.38841312  0.77342273  0.31671951  1
  H+  H138  1  0.11779315  -0.05471419  0.83815650  1
  H+  H139  1  0.90425461  1.03946045  0.17415938  1
  H+  H140  1  1.02699807  0.63600866  0.65130681  1
  H+  H141  1  0.36490179  0.38793391  0.19595533  1
  H+  H142  1  0.36953835  0.89100599  0.49132518  1
  H+  H143  1  0.13030761  0.10184755  0.33072319  1
  H+  H144  1  0.40151340  0.87488858  0.66416913  1
  H+  H145  1  0.69814540  0.58946782  0.84327801  1
  H+  H146  1  0.59707005  0.47740143  0.84017048  1
  H+  H147  1  0.46321740  0.88212123  0.15675068  1
  H+  H148  1  0.87060895  0.97940417  0.52156204  1
  H+  H149  1  0.60296508  0.38943190  0.01920519  1
  H+  H150  1  0.77723502  0.89083913  1.00240919  1
  H+  H151  1  0.84689752  0.97760485  0.31061882  1
  H+  H152  1  0.25357923  0.58747133  1.01957395  1
  H+  H153  1  0.90024235  0.05969951  0.43664137  1
  H+  H154  1  0.39647458  0.12037658  0.67214222  1
  H+  H155  1  0.12704718  0.85930947  0.17885172  1
  H+  H156  1  0.21901740  0.35902635  0.99966516  1
  H+  H157  1  0.59286052  0.91331716  0.73015193  1
  H+  H158  1  0.62771714  -0.01356820  0.33972311  1
  H+  H159  1  0.35993979  0.09744290  0.00113538  1
  H+  H160  1  0.39743601  0.86574745  0.31697969  1
  H+  H161  1  1.02607403  0.63093996  0.48731228  1
  H+  H162  1  0.63909421  0.39051189  0.16937071  1
  H+  H163  1  0.62993766  0.76611615  0.32365628  1
  H+  H164  1  0.38982957  0.62795521  0.65112653  1
  H+  H165  1  0.63116106  0.25049307  0.66127663  1
  H+  H166  1  0.38867673  0.27885044  0.17644411  1
  H+  H167  1  0.15160917  0.68460817  0.67670414  1
  H+  H168  1  0.87097500  0.59597196  0.70020414  1
  H+  H169  1  0.39902628  0.27371008  0.33354524  1
  H+  H170  1  0.66991491  0.59653436  0.57079002  1
  H+  H171  1  0.12460963  0.76649095  -0.00956222  1
  H+  H172  1  0.86683563  0.72767074  0.50602865  1
  H+  H173  1  0.92817614  0.83139201  0.62035890  1
  H+  H174  1  0.02324529  0.14525126  0.16138457  1
  H+  H175  1  0.39649794  0.56325952  0.93742722  1
  H+  H176  1  0.80797994  0.96115488  0.81642504  1
  H+  H177  1  0.20883408  0.35872530  0.33435812  1
  H+  H178  1  0.33740894  -0.04040398  0.50095843  1
  H+  H179  1  0.13396225  1.01481709  0.32785553  1
  H+  H180  1  0.16395578  0.34146815  0.59488290  1
  H+  H181  1  0.89320185  0.61635708  0.50839802  1
  H+  H182  1  0.65688724  0.33356278  0.94670376  1
  H+  H183  1  0.09764335  0.37920859  1.00261299  1
  H+  H184  1  0.87809142  0.28610067  0.83292787  1
  H+  H185  1  0.72338455  0.12008949  0.31580445  1
  H+  H186  1  0.87151318  0.72726320  0.83824578  1
  H+  H187  1  0.84458991  0.92606154  0.74683768  1
  H+  H188  1  0.10919796  0.96487707  0.48843840  1
  H+  H189  1  0.78646871  0.13533044  0.66431106  1
  H+  H190  1  0.66731477  0.61553218  0.17461054  1
  H+  H191  1  0.12717560  0.72518910  0.33594895  1
  H+  H192  1  0.12385866  0.83296594  0.82739911  1
  H+  H193  1  0.85325778  0.73734077  0.70480981  1
  H+  H194  1  0.73616217  0.10675521  0.14826927  1
  H+  H195  1  0.84450494  0.35794786  0.71464452  1
  H+  H196  1  0.11145650  0.38017104  0.17574379  1
  H+  H197  1  0.36294528  0.47809347  0.19334747  1
  H+  H198  1  0.95930252  0.88108841  0.32209954  1
  H+  H199  1  0.37837769  0.38906328  0.33115846  1
  H+  H200  1  0.89529017  0.02636879  0.98137091  1
  H+  H201  1  0.01252556  0.87269114  0.00582277  1
  H+  H202  1  0.72126737  0.62964635  0.66433817  1
  H+  H203  1  0.02126503  0.53329532  0.94544240  1
  H+  H204  1  0.25996019  0.11147774  1.01659521  1
  H+  H205  1  0.87214167  0.25083264  0.15844499  1
  H+  H206  1  0.41034213  0.25631970  0.52434160  1
  H+  H207  1  0.26773043  0.64768988  0.82671142  1
  H+  H208  1  0.39440918  0.25878976  0.85513764  1
  H+  H209  1  0.10251688  0.87450446  0.00183195  1
  H+  H210  1  0.36016636  0.73880660  0.15499679  1
  H+  H211  1  0.32704026  0.13966016  0.75388553  1
  H+  H212  1  0.26667232  0.10465223  0.69605192  1
  H+  H213  1  0.12493611  0.36317285  0.51211244  1
  H+  H214  1  0.08819532  0.63145067  0.16492368  1
  H+  H215  1  0.89745061  0.53527252  0.33607066  1
  H+  H216  1  0.26991743  0.87489534  0.82501851  1
  H+  H217  1  0.63994958  0.75990033  0.84164725  1
  H+  H218  1  0.50342135  0.12312783  0.81553447  1
  H+  H219  1  0.11064896  0.40726760  0.67165287  1
  H+  H220  1  0.10555296  0.96820256  0.15933696  1
  H+  H221  1  0.37295043  0.63906242  0.34243517  1
  H+  H222  1  0.14749369  0.62330052  0.50645648  1
  H+  H223  1  0.28293090  0.09123167  0.85018047  1
  H+  H224  1  0.54318116  0.40965005  0.16475524  1
  H+  H225  1  0.73183688  0.37487189  0.32866208  1
  H+  H226  1  0.54335566  0.37787841  0.50920528  1
  H+  H227  1  0.53551660  0.17211535  0.14818970  1
  H+  H228  1  -0.04131466  0.61369003  0.00258480  1
  H+  H229  1  0.95463782  0.35574212  0.30479634  1
  H+  H230  1  1.02539270  0.39742873  0.51666542  1
  H+  H231  1  0.61001988  0.62747174  0.83313562  1
  H+  H232  1  0.87417551  0.26588766  0.98276373  1
  H+  H233  1  0.90110808  0.62591969  0.33789092  1
  H+  H234  1  0.72510512  0.09463854  0.97431210  1
  H+  H235  1  0.12322001  0.00598295  1.00122022  1
  H+  H236  1  0.47943822  0.85997169  0.83415132  1
  H+  H237  1  0.27720867  0.63447497  0.01113316  1
  H+  H238  1  0.08300642  0.46011807  0.99370058  1
  H+  H239  1  0.64126755  0.52936822  0.51368347  1
  H+  H240  1  0.23915316  0.62697273  0.50916132  1
  H+  H241  1  1.01720186  0.13003829  0.34439721  1
  H+  H242  1  0.63361455  0.62634397  0.65554333  1
  H+  H243  1  0.48753328  0.87094691  0.50726047  1
  H+  H244  1  0.89645943  0.86449324  0.53579870  1
  H+  H245  1  0.62110383  0.48116516  0.34727052  1
  H+  H246  1  0.88927721  0.51710112  0.80171672  1
  H+  H247  1  0.62819395  0.88999618  0.67086866  1
  H+  H248  1  0.11861896  0.35421861  0.31919955  1
  H+  H249  1  0.85211800  0.38078424  0.81718407  1
  H+  H250  1  -0.02049990  0.85718607  0.51716359  1
  H+  H251  1  0.62193214  0.14396175  0.33641340  1
  H+  H252  1  0.34069495  0.34296085  0.83546037  1
  H+  H253  1  0.52636717  0.12439723  0.66363499  1
  H+  H254  1  0.13035331  0.10729376  0.17375460  1
  H+  H255  1  0.12807900  0.55583956  0.83113983  1
  H+  H256  1  0.26084601  0.87806900  0.98823045  1
  H+  H257  1  0.00568872  0.12264991  0.67304675  1
  H+  H258  1  0.60404864  0.04185553  0.15945370  1
  H+  H259  1  0.68055758  0.58287431  0.26759124  1
  H+  H260  1  0.21002757  0.36385946  0.49507859  1
  H+  H261  1  0.22368574  0.85492464  0.48462333  1
  H+  H262  1  0.62205453  0.92474206  0.21351092  1
  H+  H263  1  0.01639481  0.40643659  0.82371465  1
  H+  H264  1  0.90943977  0.62709257  0.71787011  1
  H+  H265  1  0.81867107  0.18246959  0.75591531  1
  H+  H266  1  0.52745904  0.65675590  0.67009683  1
  H+  H267  1  0.73610289  0.82095440  0.18589662  1
  H+  H268  1  0.37708493  0.73809111  0.67341443  1
  H+  H269  1  0.71202404  0.33782650  0.67843068  1
  H+  H270  1  0.06818370  0.40775943  0.25287718  1
  H+  H271  1  0.13091964  0.10034074  -0.00351588  1
  H+  H272  1  1.02122408  0.86978696  0.82957465  1
  H+  H273  1  0.66428947  0.94620432  0.19706020  1
  H+  H274  1  0.33559341  0.48837673  0.46272395  1
  H+  H275  1  0.25807074  0.14297806  0.49693461  1
  H+  H276  1  0.62441639  0.89535943  0.33971954  1
  H+  H277  1  0.20119400  0.34548969  0.83835199  1
  H+  H278  1  0.39830756  0.63871159  0.49876053  1
  H+  H279  1  0.47253578  0.35686700  0.84796978  1
  H+  H280  1  0.34401352  0.37165488  0.53075168  1
  H+  H281  1  0.64185065  0.14439421  0.16455715  1
  H+  H282  1  0.62300175  0.26301639  0.15456888  1
  H+  H283  1  0.89961813  0.90960670  0.15338338  1
  H+  H284  1  0.73110966  0.85003041  0.84171654  1
  H+  H285  1  0.53112613  0.62518588  0.15433105  1
  H+  H286  1  0.00290562  0.64117111  0.16227825  1
  H+  H287  1  0.64851309  0.36406971  0.51419868  1
  H+  H288  1  0.35010721  0.67882610  0.43397329  1
  H+  H289  1  0.43411284  0.10472771  0.23472727  1
  H+  H290  1  0.55071072  0.85541290  0.04187052  1
  H+  H291  1  -0.01111503  0.39763060  0.41127600  1
  H+  H292  1  0.41444289  0.83286288  0.22046474  1
  H+  H293  1  0.58606561  0.65152717  0.09281800  1
  H+  H294  1  0.97268940  0.37603423  0.67139466  1
  H+  H295  1  0.64492952  0.28434155  0.32755186  1
  H+  H296  1  0.39152611  0.07682788  0.93179353  1
  H+  H297  1  0.08343387  0.43875429  0.73223566  1
  H+  H298  1  0.46063397  0.59827277  -0.00619265  1
  H+  H299  1  0.65045603  0.81333503  0.25887413  1
  H+  H300  1  0.94028080  0.58894309  0.56028171  1
  H+  H301  1  0.95223855  0.09295507  0.61294426  1
  H+  H302  1  0.42203082  0.59834891  0.56209554  1
  H+  H303  1  0.85759083  0.38131369  1.00656401  1
  H+  H304  1  0.42343024  0.84093428  0.92940284  1
  H+  H305  1  0.64313511  0.56860191  0.92238871  1
  H+  H306  1  -0.01706002  0.43262586  0.39787218  1
  H+  H307  1  0.59424209  0.41816903  0.44573506  1
  H+  H308  1  0.67296309  0.83207925  0.93245670  1
  H+  H309  1  0.42780464  0.33234676  0.23760727  1
  H+  H310  1  0.61350779  0.18152879  0.42455096  1
  H+  H311  1  0.33379456  0.41816374  0.28302608  1
  H+  H312  1  0.13467299  0.76631476  0.49034726  1
  H+  H313  1  0.15657614  0.33061779  0.93976717  1
  H+  H314  1  0.39578935  0.03113367  0.67143639  1
  H+  H315  1  0.56994642  0.40235837  0.78523173  1
  H+  H316  1  0.80832467  0.66845627  0.75722179  1
  H+  H317  1  0.90789017  0.33855091  0.89615277  1
  H+  H318  1  0.17674006  0.05597047  0.91386005  1
  H+  H319  1  0.35327057  0.04332484  0.58348733  1
  H+  H320  1  0.91800686  0.84249495  0.89724330  1
  H+  H321  1  0.82164899  0.14715907  0.04866184  1
  H+  H322  1  0.67725836  0.08821859  0.56514416  1
  H+  H323  1  0.84849253  0.93009044  0.05710729  1
  H+  H324  1  0.12178600  0.15581214  0.74509584  1
  H+  H325  1  0.14575506  0.65434934  0.83644778  1
  H+  H326  1  0.49008540  0.36377929  0.33611417  1
  H+  H327  1  0.10653957  0.46779833  0.16978452  1
  H+  H328  1  0.66061974  0.09445850  0.25689364  1
  H+  H329  1  0.31051231  0.42852307  0.40529760  1
  H+  H330  1  0.98394545  0.53619860  0.64016627  1
  H+  H331  1  0.16862937  0.81818227  0.65480877  1
  H+  H332  1  0.42837855  0.60076865  0.23297822  1
  H+  H333  1  0.15844723  0.07484248  0.23278901  1
  H+  H334  1  0.03843223  0.84422814  0.34448797  1
  H+  H335  1  0.65432551  0.06442331  0.88799168  1
  H+  H336  1  0.16320493  0.59073180  0.23208781  1
  H+  H337  1  0.29519708  0.89615190  0.33484355  1
  H+  H338  1  0.08598234  0.16478008  0.43633192  1
  H+  H339  1  0.36419333  0.26341003  0.68058251  1
  H+  H340  1  0.36079037  0.02155363  0.83628446  1
  H+  H341  1  0.08405241  0.16403977  0.06441077  1
  H+  H342  1  0.12087290  0.72253974  0.73141596  1
  H+  H343  1  0.84332928  0.87685682  0.42687611  1
  H+  H344  1  0.95636455  0.08591475  0.88959527  1
  H+  H345  1  0.32587898  0.16965279  0.40203492  1
  H+  H346  1  0.80067735  0.84881558  0.41163505  1
  H+  H347  1  0.56721766  0.94330313  0.07219792  1
  H+  H348  1  0.95813709  0.33804833  0.17033761  1
  H+  H349  1  0.11627112  0.57970077  0.92084350  1
  H+  H350  1  0.96083186  0.99234448  0.11419691  1
  H+  H351  1  0.07649280  0.90481763  0.10120833  1
  H+  H352  1  -0.03565823  0.35380580  -0.01263587  1
  H+  H353  1  0.42730756  0.84173767  0.56704142  1
  H+  H354  1  0.07943563  0.90238275  0.40386060  1
  H+  H355  1  0.83396849  0.43464223  0.10238957  1
  H+  H356  1  0.62231628  0.39320182  0.34683614  1
  H+  H357  1  0.83949817  0.67778897  0.40620404  1
  H+  H358  1  0.69851604  0.84434386  0.60854223  1
  H+  H359  1  0.31299596  0.66548854  0.10207244  1
  H+  H360  1  0.18181357  0.60690029  0.60408939  1
  H+  H361  1  0.32745989  0.14802416  0.07332774  1
  H+  H362  1  0.90384464  0.83279076  0.22655340  1
  H+  H363  1  0.30660976  0.35709105  0.77224977  1
  H+  H364  1  0.87697541  -0.02251672  0.68064113  1
  H+  H365  1  0.82770608  0.17779186  0.39583794  1
  H+  H366  1  0.41413386  0.33795671  0.94789142  1
  H+  H367  1  0.15365954  0.31499037  0.23875133  1
  H+  H368  1  0.17675506  0.83382913  0.26809398  1
  H+  H369  1  0.07163354  0.67179825  0.07205565  1
  H+  H370  1  0.67357833  0.32589239  0.57275556  1
  H+  H371  1  0.91835060  0.09768149  0.27071082  1
  H+  H372  1  0.64770841  0.86784927  0.99104617  1
  H+  H373  1  0.58944552  0.43305993  0.07844099  1
  H+  H374  1  0.82897783  0.65521668  0.88559290  1
  H+  H375  1  0.59208331  0.65975592  0.39855010  1
  H+  H376  1  0.40468899  0.03531952  0.33002281  1
  H+  H377  1  0.60851706  0.23575209  0.05383430  1
  H+  H378  1  0.88318509  0.31489668  0.25452951  1
  H+  H379  1  0.83696986  0.41878259  0.40009392  1
  H+  H380  1  0.75981753  0.04280788  0.11632323  1
  H+  H381  1  0.44844932  0.73391421  0.08743836  1
  H+  H382  1  0.43959975  0.30938851  0.58533795  1
  H+  H383  1  0.90880273  0.33782640  0.58004972  1
  O2-  O384  1  0.08220953  0.16542942  0.14530871  1
  O2-  O385  1  0.08106352  0.16356369  0.48205340  1
  O2-  O386  1  0.12304277  0.14252623  0.81590142  1
  O2-  O387  1  0.07301091  0.40556481  0.17847053  1
  O2-  O388  1  0.08568307  0.42304177  0.50212176  1
  O2-  O389  1  0.07704723  0.44027031  0.80836295  1
  O2-  O390  1  0.06526599  0.66792495  0.15006861  1
  O2-  O391  1  0.08768098  0.65899210  0.47379199  1
  O2-  O392  1  0.12397473  0.72422885  0.80737122  1
  O2-  O393  1  0.07494113  0.90652249  0.14674617  1
  O2-  O394  1  0.07661607  0.90422179  0.47430744  1
  O2-  O395  1  0.08209806  0.88901095  0.81817597  1
  O2-  O396  1  0.33281742  0.17061348  0.14993055  1
  O2-  O397  1  0.30997686  0.19202185  0.47725515  1
  O2-  O398  1  0.34342379  0.12432536  0.83038000  1
  O2-  O399  1  0.33069874  0.41702762  0.20749048  1
  O2-  O400  1  0.28798030  0.43771877  0.44384773  1
  O2-  O401  1  0.29797926  0.35815193  0.81596294  1
  O2-  O402  1  0.32808545  0.67301603  0.14523877  1
  O2-  O403  1  0.35254265  0.67929486  0.48018312  1
  O2-  O404  1  0.32870074  0.66828948  0.81462021  1
  O2-  O405  1  0.33205827  0.93515487  0.16344168  1
  O2-  O406  1  0.33710978  0.91590137  0.47177826  1
  O2-  O407  1  0.33201222  0.91825784  0.81766923  1
  O2-  O408  1  0.59513028  0.20469989  0.13274440  1
  O2-  O409  1  0.62176505  0.18507719  0.47249779  1
  O2-  O410  1  0.55974935  0.13996989  0.79769996  1
  O2-  O411  1  0.60190783  0.43700115  0.14867203  1
  O2-  O412  1  0.60080316  0.41967250  0.49097363  1
  O2-  O413  1  0.56626240  0.40878107  0.83016565  1
  O2-  O414  1  0.59059352  0.65151307  0.13889959  1
  O2-  O415  1  0.57969484  0.65989248  0.48248080  1
  O2-  O416  1  0.59246867  0.67113389  0.81879822  1
  O2-  O417  1  0.53633502  0.96755416  0.12719615  1
  O2-  O418  1  0.59238690  0.92028850  0.48101800  1
  O2-  O419  1  0.58481962  0.90206317  0.80653444  1
  O2-  O420  1  0.78677024  0.10319920  0.12809333  1
  O2-  O421  1  0.83769617  0.18068101  0.47815274  1
  O2-  O422  1  0.79700882  0.19943833  0.79226343  1
  O2-  O423  1  0.83233994  0.44581971  0.14659186  1
  O2-  O424  1  0.84094412  0.41852981  0.48136886  1
  O2-  O425  1  0.81492931  0.39736624  0.79184782  1
  O2-  O426  1  0.85419307  0.63866873  0.14837134  1
  O2-  O427  1  0.83759922  0.66948921  0.48626219  1
  O2-  O428  1  0.84140836  0.66347961  0.84065809  1
  O2-  O429  1  0.90226873  0.96164887  0.13004249  1
  O2-  O430  1  0.84509017  0.92400058  0.54360597  1
  O2-  O431  1  0.84487405  0.93676902  0.80868713  1
  O2-  O432  1  0.15903975  0.07476037  0.18741884  1
  O2-  O433  1  0.15616841  0.07025594  0.51981700  1
  O2-  O434  1  0.18690921  0.05081058  0.86906663  1
  O2-  O435  1  0.16297136  0.32403420  0.19404728  1
  O2-  O436  1  0.15719514  0.33034787  0.52014406  1
  O2-  O437  1  0.14591173  0.33930323  0.85387001  1
  O2-  O438  1  0.16029619  0.58644291  0.18780989  1
  O2-  O439  1  0.18052204  0.59815171  0.52660503  1
  O2-  O440  1  0.16289480  0.61135008  0.85245695  1
  O2-  O441  1  0.15859903  0.83065830  0.19511963  1
  O2-  O442  1  0.16303798  0.82922499  0.49799847  1
  O2-  O443  1  0.16221688  0.80696523  0.83924831  1
  O2-  O444  1  0.42715188  0.10251752  0.18987353  1
  O2-  O445  1  0.30897931  0.00909765  0.55250579  1
  O2-  O446  1  0.39185819  0.08309200  0.85217613  1
  O2-  O447  1  0.41980701  0.33835036  0.19343030  1
  O2-  O448  1  0.46140373  0.29780108  0.54736552  1
  O2-  O449  1  0.40841792  0.31844878  0.86107577  1
  O2-  O450  1  0.42109726  0.58944671  0.18825326  1
  O2-  O451  1  0.42652266  0.60137790  0.51475776  1
  O2-  O452  1  0.37601373  0.54843955  0.85747072  1
  O2-  O453  1  0.40754000  0.83164223  0.17484407  1
  O2-  O454  1  0.42635756  0.83851892  0.52142127  1
  O2-  O455  1  0.42005673  0.83661307  0.85094268  1
  O2-  O456  1  0.65512866  0.09951029  0.17895222  1
  O2-  O457  1  0.67726001  0.09085110  0.51905288  1
  O2-  O458  1  0.64704195  0.06426178  0.84189911  1
  O2-  O459  1  0.67076737  0.35477706  0.18367521  1
  O2-  O460  1  0.67771818  0.33078722  0.52702727  1
  O2-  O461  1  0.65817962  0.34802253  0.87984161  1
  O2-  O462  1  0.69237519  0.58305143  0.19343454  1
  O2-  O463  1  0.66740068  0.59175251  0.52334894  1
  O2-  O464  1  0.63848604  0.56369224  0.85680427  1
  O2-  O465  1  0.67595876  0.80579175  0.18701447  1
  O2-  O466  1  0.67480545  0.83416709  0.49311483  1
  O2-  O467  1  0.67142826  0.82446433  0.85658613  1
  O2-  O468  1  0.91776748  0.09650552  0.19194936  1
  O2-  O469  1  0.91121021  0.07864391  0.47903523  1
  O2-  O470  1  0.97132162  0.08430004  0.84606135  1
  O2-  O471  1  0.89600141  0.30546357  0.17984676  1
  O2-  O472  1  0.91482003  0.33598629  0.53503223  1
  O2-  O473  1  0.91218146  0.34529125  0.85009152  1
  O2-  O474  1  0.89573758  0.59758285  0.17973538  1
  O2-  O475  1  0.92504333  0.58473765  0.51596109  1
  O2-  O476  1  0.93644432  0.56929664  0.81945409  1
  O2-  O477  1  0.90605276  0.83674773  0.18146003  1
  O2-  O478  1  0.92328549  0.82738790  0.53903917  1
  O2-  O479  1  0.91898744  0.84124683  0.85166094  1
  O2-  O480  1  0.16296565  0.07503807  0.31360656  1
  O2-  O481  1  0.10326534  0.01827659  0.63828857  1
  O2-  O482  1  0.15947157  0.06644439  0.98564716  1
  O2-  O483  1  0.14974245  0.32043485  0.32039264  1
  O2-  O484  1  0.16442438  0.34667423  0.64111138  1
  O2-  O485  1  0.15485361  0.32476924  0.98433086  1
  O2-  O486  1  0.16084998  0.56734261  0.34777021  1
  O2-  O487  1  0.18451295  0.60948250  0.64967452  1
  O2-  O488  1  0.08043232  0.55447138  0.95879935  1
  O2-  O489  1  0.18626820  0.83321717  0.31359827  1
  O2-  O490  1  0.20212646  0.88115151  0.64538125  1
  O2-  O491  1  0.15473859  0.82344330  0.96845182  1
  O2-  O492  1  0.43539722  0.09839126  0.31962490  1
  O2-  O493  1  0.42018091  0.08865521  0.65042786  1
  O2-  O494  1  0.39127604  0.06682731  0.97643991  1
  O2-  O495  1  0.43038019  0.33409856  0.31851020  1
  O2-  O496  1  0.39837851  0.31919555  0.65970993  1
  O2-  O497  1  0.41058649  0.34301976  0.99222562  1
  O2-  O498  1  0.43110862  0.59603600  0.31326894  1
  O2-  O499  1  0.41923139  0.59802216  0.63088641  1
  O2-  O500  1  0.39903097  0.56701134  0.98256730  1
  O2-  O501  1  0.41685216  0.82947150  0.29597094  1
  O2-  O502  1  0.42781771  0.84192306  0.64628985  1
  O2-  O503  1  0.42033751  0.84456190  0.97474374  1
  O2-  O504  1  0.66216900  0.09186294  0.30268581  1
  O2-  O505  1  0.68031323  0.08096392  0.64036873  1
  O2-  O506  1  0.66523587  0.06190244  0.95912286  1
  O2-  O507  1  0.67079203  0.34482134  0.31378953  1
  O2-  O508  1  0.66213735  0.31383101  0.65071725  1
  O2-  O509  1  0.65855649  0.33059207  0.99462306  1
  O2-  O510  1  0.67529559  0.58414728  0.31378870  1
  O2-  O511  1  0.66852257  0.60232257  0.63848017  1
  O2-  O512  1  0.65302041  0.57835436  0.97036675  1
  O2-  O513  1  0.64953582  0.82287736  0.30414973  1
  O2-  O514  1  0.69062003  0.84559366  0.65229798  1
  O2-  O515  1  0.67609515  0.83564215  0.97846826  1
  O2-  O516  1  0.91538300  0.09271061  0.31623412  1
  O2-  O517  1  0.94683130  0.09759248  0.65673450  1
  O2-  O518  1  0.92759324  0.08729553  0.96685135  1
  O2-  O519  1  0.89084275  0.32496770  0.29986178  1
  O2-  O520  1  0.91003624  0.34163264  0.66150803  1
  O2-  O521  1  0.90345163  0.32748902  0.97030795  1
  O2-  O522  1  0.93390435  0.59719527  0.32608089  1
  O2-  O523  1  0.97967949  0.58628335  0.62907266  1
  O2-  O524  1  0.90417584  0.57774891  0.98066395  1
  O2-  O525  1  0.90268672  0.83678945  0.30813957  1
  O2-  O526  1  0.93466887  0.84190058  0.66510608  1
  O2-  O527  1  0.91545351  0.83125049  0.97491432  1
  O2-  O528  1  0.08490914  0.16143704  0.01910167  1
  O2-  O529  1  0.07788118  0.15600879  0.35971196  1
  O2-  O530  1  0.11935678  0.16207263  0.69875618  1
  O2-  O531  1  0.05986163  0.40328360  0.01313877  1
  O2-  O532  1  0.06595356  0.40524292  0.29899161  1
  O2-  O533  1  0.08247863  0.43919370  0.68628772  1
  O2-  O534  1  0.07004617  0.67482329  0.02670841  1
  O2-  O535  1  0.09355536  0.66491573  0.35147610  1
  O2-  O536  1  0.12050323  0.71615340  0.68538427  1
  O2-  O537  1  0.07310711  0.90246708  0.02229702  1
  O2-  O538  1  0.08316674  0.90147772  0.35687295  1
  O2-  O539  1  0.09823190  0.95107587  0.67902559  1
  O2-  O540  1  0.32126785  0.13567178  0.02860504  1
  O2-  O541  1  0.33390806  0.16556593  0.35746281  1
  O2-  O542  1  0.32126289  0.15210030  0.71036290  1
  O2-  O543  1  0.30751346  0.40501617  0.02454386  1
  O2-  O544  1  0.34462858  0.42018601  0.32853338  1
  O2-  O545  1  0.32666608  0.43354472  0.68515735  1
  O2-  O546  1  0.47380832  0.74922124  0.04696549  1
  O2-  O547  1  0.34152901  0.66743059  0.35978566  1
  O2-  O548  1  0.34717288  0.67601836  0.68602964  1
  O2-  O549  1  0.32165602  0.91401257  0.00217457  1
  O2-  O550  1  0.35579515  0.92986823  0.34936558  1
  O2-  O551  1  0.35357510  0.93034039  0.69454454  1
  O2-  O552  1  0.60981848  0.23797072  0.00805173  1
  O2-  O553  1  0.59724564  0.17623237  0.35919505  1
  O2-  O554  1  0.58598160  0.14852168  0.68024075  1
  O2-  O555  1  0.57982619  0.42652717  0.03190984  1
  O2-  O556  1  0.59139098  0.42184134  0.36495301  1
  O2-  O557  1  0.56717260  0.38495901  0.70819736  1
  O2-  O558  1  0.57745445  0.65519853  0.01879441  1
  O2-  O559  1  0.59314654  0.66334226  0.35360229  1
  O2-  O560  1  0.58434885  0.67881436  0.68899987  1
  O2-  O561  1  0.58042350  0.91817790  0.03239641  1
  O2-  O562  1  0.61991704  0.93816993  0.36571285  1
  O2-  O563  1  0.59489801  0.91807856  0.68434830  1
  O2-  O564  1  0.83120434  0.15790192  0.00444127  1
  O2-  O565  1  0.82681160  0.17125808  0.35086122  1
  O2-  O566  1  0.84499773  0.17119357  0.68271975  1
  O2-  O567  1  0.83042784  0.41314737  0.02446145  1
  O2-  O568  1  0.83389071  0.42382700  0.35505089  1
  O2-  O569  1  0.79046666  0.33924262  0.73906486  1
  O2-  O570  1  0.82137367  0.66354101  -0.03692812  1
  O2-  O571  1  0.83952854  0.67583278  0.36070763  1
  O2-  O572  1  0.79822738  0.68816770  0.71802167  1
  O2-  O573  1  0.84059829  0.92357740  0.01235231  1
  O2-  O574  1  0.81994201  0.91727837  0.29683199  1
  O2-  O575  1  0.84496550  0.91862107  0.69677520  1
