# generated using pymatgen
data_H2O
_symmetry_space_group_name_H-M   'P 1'
_cell_length_a   17.99954199
_cell_length_b   17.99851447
_cell_length_c   22.00968643
_cell_angle_alpha   90.00699972
_cell_angle_beta   90.00241625
_cell_angle_gamma   120.00610009
_symmetry_Int_Tables_number   1
_chemical_formula_structural   H2O
_chemical_formula_sum   'H384 O192'
_cell_volume   6174.70050756
_cell_formula_units_Z   192
loop_
 _symmetry_equiv_pos_site_id
 _symmetry_equiv_pos_as_xyz
  1  'x, y, z'
loop_
 _atom_type_symbol
 _atom_type_oxidation_number
  H+  1.0
  O2-  -2.0
loop_
 _atom_site_type_symbol
 _atom_site_label
 _atom_site_symmetry_multiplicity
 _atom_site_fract_x
 _atom_site_fract_y
 _atom_site_fract_z
 _atom_site_occupancy
  H+  H0  1  0.63515576  0.28547754  0.32194268  1
  H+  H1  1  0.12086215  0.36754616  0.68427810  1
  H+  H2  1  0.87099498  0.27831691  0.17229873  1
  H+  H3  1  -0.01956234  0.44990899  0.71502391  1
  H+  H4  1  0.60886103  0.73076184  0.16235228  1
  H+  H5  1  0.75800976  0.12009294  0.65517617  1
  H+  H6  1  0.95895380  0.34797668  0.85176949  1
  H+  H7  1  0.62385501  0.39106192  0.81919242  1
  H+  H8  1  0.40190119  0.06122891  0.49008229  1
  H+  H9  1  0.70752977  0.84165429  0.82904415  1
  H+  H10  1  0.52290159  0.39441578  0.99891750  1
  H+  H11  1  0.22232752  0.84824638  0.50430097  1
  H+  H12  1  0.85710111  1.12151172  0.84117132  1
  H+  H13  1  0.72459263  0.11209750  0.50439385  1
  H+  H14  1  0.13915697  0.76635623  0.84619041  1
  H+  H15  1  0.85406457  0.50722219  0.17747154  1
  H+  H16  1  0.64275880  0.85830847  0.50290390  1
  H+  H17  1  0.23731586  0.36506168  0.17082542  1
  H+  H18  1  0.88373659  0.52313457  0.50668594  1
  H+  H19  1  0.96854213  0.09650706  0.85404070  1
  H+  H20  1  0.86599494  0.87953936  0.48736519  1
  H+  H21  1  0.72936155  0.62693872  0.16663883  1
  H+  H22  1  0.86677044  0.37823508  0.01304071  1
  H+  H23  1  0.38569769  0.27897247  0.83999699  1
  H+  H24  1  0.86548029  0.89196470  0.16694035  1
  H+  H25  1  0.34921740  0.45506081  1.01704075  1
  H+  H26  1  0.52158841  0.13252303  1.00470328  1
  H+  H27  1  0.08764135  0.33903783  0.66148965  1
  H+  H28  1  0.61667063  0.83664148  0.82843648  1
  H+  H29  1  0.63945400  0.42207008  0.48252626  1
  H+  H30  1  0.85514832  0.36328001  0.84164651  1
  H+  H31  1  0.36106385  0.93632571  0.51157097  1
  H+  H32  1  0.43366507  0.33047714  0.54510750  1
  H+  H33  1  0.02859444  0.62786235  0.83164972  1
  H+  H34  1  0.36736312  0.72235417  0.34702901  1
  H+  H35  1  0.39862214  0.39406426  0.69134494  1
  H+  H36  1  0.11677773  0.63241781  0.82228084  1
  H+  H37  1  0.94579116  0.35017655  0.65991677  1
  H+  H38  1  0.23301443  0.62396812  0.46093023  1
  H+  H39  1  0.38864149  0.86088652  0.33366211  1
  H+  H40  1  0.38714028  1.01876864  0.17780292  1
  H+  H41  1  0.70075237  0.21587481  0.71288895  1
  H+  H42  1  0.62597531  0.07904421  0.86017661  1
  H+  H43  1  0.60821291  0.49551136  0.67717348  1
  H+  H44  1  0.86033049  0.97884488  0.67312192  1
  H+  H45  1  0.17780921  0.91292698  0.82393966  1
  H+  H46  1  0.23046383  0.11427989  0.65311148  1
  H+  H47  1  0.62062038  1.00707591  0.65334060  1
  H+  H48  1  0.38810429  0.61042346  0.32635336  1
  H+  H49  1  0.58524375  0.91135677  0.76481941  1
  H+  H50  1  0.13004690  0.85936220  0.17077775  1
  H+  H51  1  0.88565594  0.48863925  0.84278884  1
  H+  H52  1  0.11179679  0.47001333  0.14512388  1
  H+  H53  1  0.85322273  0.92504516  0.00881781  1
  H+  H54  1  0.62676090  0.52490564  0.99236052  1
  H+  H55  1  -0.05079717  0.80909651  0.32947300  1
  H+  H56  1  0.37365349  0.74706507  0.99908309  1
  H+  H57  1  0.60739210  0.73080045  0.34065167  1
  H+  H58  1  0.12645913  0.21864112  0.66415143  1
  H+  H59  1  0.34218468  0.46277455  0.84544462  1
  H+  H60  1  0.62038229  0.27516510  0.66150452  1
  H+  H61  1  0.23683112  0.61437458  0.32198269  1
  H+  H62  1  0.38297549  0.35684755  0.99657870  1
  H+  H63  1  0.83552320  0.56391839  0.22761646  1
  H+  H64  1  0.36857162  0.46993775  0.16079280  1
  H+  H65  1  0.09494044  0.16265519  0.21092078  1
  H+  H66  1  0.86951304  0.70130640  -0.01156302  1
  H+  H67  1  -0.01058084  0.60065045  0.32960642  1
  H+  H68  1  0.50170293  0.91000386  0.84757052  1
  H+  H69  1  0.51789263  0.63795137  0.34077258  1
  H+  H70  1  0.37293592  0.89914196  1.01111595  1
  H+  H71  1  0.71866418  0.61054466  -0.01189534  1
  H+  H72  1  0.82255487  0.62893388  0.82008306  1
  H+  H73  1  0.45032381  0.60788377  0.87391370  1
  H+  H74  1  0.08227664  0.83827166  0.34314993  1
  H+  H75  1  0.64760070  0.30214093  0.78162701  1
  H+  H76  1  0.61765775  0.14832971  0.48660280  1
  H+  H77  1  0.37628432  0.75402961  0.85395341  1
  H+  H78  1  0.83757606  0.87470068  0.82853380  1
  H+  H79  1  0.01653419  0.88406063  0.16367986  1
  H+  H80  1  0.61123002  0.14472875  0.33727056  1
  H+  H81  1  0.36470376  0.14083217  0.82373966  1
  H+  H82  1  0.13312322  0.99110279  0.66865053  1
  H+  H83  1  0.15873253  0.55623028  0.50092525  1
  H+  H84  1  0.61071017  0.22799508  0.16162986  1
  H+  H85  1  0.13416469  0.01788054  0.16991972  1
  H+  H86  1  0.83981619  0.63043916  0.66371029  1
  H+  H87  1  0.10929230  1.00683810  0.34217908  1
  H+  H88  1  0.05348704  0.91343674  0.70410295  1
  H+  H89  1  0.35985432  0.58865467  0.84827617  1
  H+  H90  1  0.53024213  0.38482027  0.15578364  1
  H+  H91  1  0.75632466  0.13581338  0.15799431  1
  H+  H92  1  0.89905798  0.57857997  0.82481725  1
  H+  H93  1  0.94681582  0.84030343  0.63823288  1
  H+  H94  1  0.14721597  0.62359447  -0.03110885  1
  H+  H95  1  0.39464257  0.11980901  0.98537270  1
  H+  H96  1  0.02397461  0.89670108  0.00791651  1
  H+  H97  1  0.38670099  0.02514831  0.65170708  1
  H+  H98  1  0.70165068  0.62886341  0.65486325  1
  H+  H99  1  0.63033612  0.97270643  0.07574104  1
  H+  H100  1  0.36409798  0.85462200  0.49217755  1
  H+  H101  1  0.13549713  0.77354800  -0.00081500  1
  H+  H102  1  0.84646884  1.05665383  0.01629531  1
  H+  H103  1  0.39232842  0.75066357  0.50298084  1
  H+  H104  1  0.38125289  1.02477920  0.83752898  1
  H+  H105  1  0.47642479  0.10843945  0.17752754  1
  H+  H106  1  0.69280076  0.60701777  0.25694784  1
  H+  H107  1  0.33262189  0.91486245  0.10370775  1
  H+  H108  1  1.03345113  0.14552929  0.49598503  1
  H+  H109  1  0.38047444  0.27562741  0.48950440  1
  H+  H110  1  0.25267608  0.37682236  0.83433026  1
  H+  H111  1  0.34662608  0.50390709  0.68854905  1
  H+  H112  1  0.71386222  0.08077456  1.01539890  1
  H+  H113  1  0.17435152  0.37738207  0.52725891  1
  H+  H114  1  0.85445209  0.71303101  0.47712790  1
  H+  H115  1  0.37672898  0.22962958  -0.00178315  1
  H+  H116  1  0.64790750  0.76753853  0.65333421  1
  H+  H117  1  0.10409386  0.72860320  0.67364809  1
  H+  H118  1  0.58588631  0.66848445  0.07863020  1
  H+  H119  1  0.37188513  0.35904585  0.84276051  1
  H+  H120  1  0.39027491  0.02764261  0.98937264  1
  H+  H121  1  0.87049694  0.82876941  0.32726412  1
  H+  H122  1  0.21052195  0.33866457  0.99728213  1
  H+  H123  1  0.15424305  0.37605420  0.33048228  1
  H+  H124  1  0.17475195  1.03087713  0.84128060  1
  H+  H125  1  0.12500959  0.23633496  0.49462765  1
  H+  H126  1  0.42072321  0.09394468  0.59825485  1
  H+  H127  1  0.14449931  0.10818481  1.00431438  1
  H+  H128  1  0.49155056  0.60824637  0.64927630  1
  H+  H129  1  0.26824266  0.88226421  0.16080073  1
  H+  H130  1  0.11179876  0.88396074  0.49460076  1
  H+  H131  1  0.01694538  0.63580255  0.48819289  1
  H+  H132  1  0.02170339  0.13391921  0.34333433  1
  H+  H133  1  0.28292873  0.38757045  0.33582047  1
  H+  H134  1  0.63417846  0.35907509  0.16378288  1
  H+  H135  1  0.33358691  0.16791660  0.72603192  1
  H+  H136  1  0.22894944  0.88230127  0.32611262  1
  H+  H137  1  0.63460160  0.28484751  0.50052899  1
  H+  H138  1  0.61181525  0.72438052  0.81116151  1
  H+  H139  1  0.99788158  0.62578009  0.18318727  1
  H+  H140  1  0.89411946  0.01932361  0.50654167  1
  H+  H141  1  0.12324267  0.26562144  0.83720431  1
  H+  H142  1  0.46598313  0.59721071  1.01020126  1
  H+  H143  1  0.63123078  0.41061151  0.32893425  1
  H+  H144  1  -0.01594213  0.34417167  0.49069734  1
  H+  H145  1  0.12772914  0.60350610  0.17105925  1
  H+  H146  1  0.32756911  0.64921974  0.76888631  1
  H+  H147  1  0.28054372  0.38618093  0.49017939  1
  H+  H148  1  0.49253889  0.14207194  0.49977345  1
  H+  H149  1  0.10765458  0.12485841  0.66961073  1
  H+  H150  1  0.87800542  1.01416214  0.85373270  1
  H+  H151  1  0.36294175  0.15171401  0.48625361  1
  H+  H152  1  0.70900504  0.56162497  0.48756203  1
  H+  H153  1  0.97711548  0.13407699  0.17822635  1
  H+  H154  1  0.54456817  0.89457106  0.09724728  1
  H+  H155  1  0.62756172  0.02804091  0.16877805  1
  H+  H156  1  0.27109265  0.88390857  0.66100567  1
  H+  H157  1  0.72685831  0.86298826  0.65820720  1
  H+  H158  1  0.39818891  0.27915144  0.18163005  1
  H+  H159  1  0.12276978  0.64112956  0.33372829  1
  H+  H160  1  0.40009981  0.40883788  0.65914466  1
  H+  H161  1  0.83066097  0.68712958  0.30614193  1
  H+  H162  1  0.39897970  0.51700902  0.49704894  1
  H+  H163  1  0.38580516  0.77260088  0.64823979  1
  H+  H164  1  0.33977952  0.41911816  0.39688651  1
  H+  H165  1  0.60982138  0.20051956  0.84488090  1
  H+  H166  1  0.84807003  0.38762609  0.49740889  1
  H+  H167  1  0.29232069  0.16894482  0.32816573  1
  H+  H168  1  0.66631199  0.33594297  0.22637500  1
  H+  H169  1  0.76550191  0.38361502  0.15659738  1
  H+  H170  1  0.73387312  0.62541338  0.82384981  1
  H+  H171  1  0.15945943  0.15855921  0.31490829  1
  H+  H172  1  0.61377302  0.40684834  0.67425851  1
  H+  H173  1  0.60916780  0.87642025  0.66797911  1
  H+  H174  1  0.02624895  0.93173981  0.86341144  1
  H+  H175  1  0.61828299  0.72599031  0.48764569  1
  H+  H176  1  0.64035245  0.62548840  0.17487707  1
  H+  H177  1  0.12826585  0.76708794  0.50224806  1
  H+  H178  1  0.61239547  0.48054852  0.83150445  1
  H+  H179  1  0.88190489  0.77563681  0.16843941  1
  H+  H180  1  0.13424868  0.86165082  0.99774499  1
  H+  H181  1  0.38583991  0.86257146  0.65196858  1
  H+  H182  1  0.09042622  0.45876681  0.83403173  1
  H+  H183  1  0.86091115  0.25485510  0.65347556  1
  H+  H184  1  0.55156744  0.29626945  0.63126536  1
  H+  H185  1  0.13131414  0.15315365  0.81614008  1
  H+  H186  1  0.07897776  0.48805200  0.69900075  1
  H+  H187  1  0.36959827  0.97779198  0.34521166  1
  H+  H188  1  0.40771097  0.25143935  0.64410251  1
  H+  H189  1  0.88222508  0.36716284  0.32836752  1
  H+  H190  1  0.36039312  0.12923647  0.66918127  1
  H+  H191  1  0.10570542  0.63780830  0.47309199  1
  H+  H192  1  0.30742563  0.44622629  0.74934521  1
  H+  H193  1  1.03843770  0.90080850  0.84942178  1
  H+  H194  1  0.83657672  0.41500470  1.06909841  1
  H+  H195  1  0.06175147  0.32368620  0.48836869  1
  H+  H196  1  0.38497838  0.60651857  0.16725025  1
  H+  H197  1  0.85767267  0.38929654  0.16320160  1
  H+  H198  1  0.87002546  0.81593241  1.01700115  1
  H+  H199  1  0.83857595  0.15545578  0.42628131  1
  H+  H200  1  0.27865644  0.88989015  1.00959588  1
  H+  H201  1  0.63617572  0.86643149  0.32830407  1
  H+  H202  1  0.17493361  0.34584677  0.22806298  1
  H+  H203  1  0.88319416  0.99528101  0.33413669  1
  H+  H204  1  0.50049060  0.38636721  0.32768892  1
  H+  H205  1  0.76679224  0.11038831  0.83808299  1
  H+  H206  1  0.84621697  0.13705891  0.15348660  1
  H+  H207  1  0.30661552  0.61341846  0.50754092  1
  H+  H208  1  0.85288228  0.88630093  0.66874310  1
  H+  H209  1  0.27995471  0.14636495  0.82445963  1
  H+  H210  1  0.51910388  0.63827258  0.16209582  1
  H+  H211  1  0.26848139  0.86630420  0.82538372  1
  H+  H212  1  0.62374100  0.75209809  0.02284425  1
  H+  H213  1  0.13948037  0.62409594  0.68768314  1
  H+  H214  1  0.91345511  0.14063108  0.22379771  1
  H+  H215  1  0.08311001  0.16390216  0.75979283  1
  H+  H216  1  0.11876558  0.24303975  0.17085024  1
  H+  H217  1  -0.03833272  0.61925641  0.65992170  1
  H+  H218  1  0.52383287  0.88573046  0.34138781  1
  H+  H219  1  0.12070667  0.38664852  0.14295579  1
  H+  H220  1  0.76408205  0.39641667  0.49631343  1
  H+  H221  1  0.57673649  0.16594116  0.10273707  1
  H+  H222  1  0.14156450  0.86553046  0.65535226  1
  H+  H223  1  0.98018451  0.35737318  1.00839767  1
  H+  H224  1  0.20288781  0.57842282  0.82054329  1
  H+  H225  1  0.52891932  0.63036719  0.48745730  1
  H+  H226  1  0.60437172  0.12459867  0.01789021  1
  H+  H227  1  0.61983425  0.64584843  0.01282613  1
  H+  H228  1  0.83821159  0.74975048  0.84821741  1
  H+  H229  1  0.62451538  0.46088962  0.42203249  1
  H+  H230  1  0.38751762  0.11591220  0.32860529  1
  H+  H231  1  0.64359469  0.87058770  0.16381508  1
  H+  H232  1  0.34068540  0.65766196  0.40385452  1
  H+  H233  1  0.76812771  0.87206809  0.34260980  1
  H+  H234  1  0.52886056  0.87793496  0.49158311  1
  H+  H235  1  0.85994842  0.38849238  0.67514066  1
  H+  H236  1  0.32109371  0.65543313  0.59923385  1
  H+  H237  1  0.37153021  0.38225916  0.16717852  1
  H+  H238  1  0.38705615  0.24282608  0.33940952  1
  H+  H239  1  0.11104114  0.20890054  0.00554200  1
  H+  H240  1  0.62148450  0.96338036  0.82857762  1
  H+  H241  1  0.29018458  0.13898648  1.00659930  1
  H+  H242  1  0.85710864  0.60961406  0.99709107  1
  H+  H243  1  -0.02871006  0.84953739  0.49590917  1
  H+  H244  1  0.40749777  0.61157583  0.49702386  1
  H+  H245  1  0.85140907  0.13052611  0.66409847  1
  H+  H246  1  0.63484911  0.27928070  1.00027533  1
  H+  H247  1  0.33839981  0.91259852  0.40204074  1
  H+  H248  1  0.37122118  0.14157819  0.17436600  1
  H+  H249  1  0.52149071  0.14322433  0.33885953  1
  H+  H250  1  0.76354459  0.11713830  0.33982386  1
  H+  H251  1  0.72744154  0.36916240  0.32393058  1
  H+  H252  1  0.35278196  0.71068816  0.15284191  1
  H+  H253  1  0.12606114  0.76926895  0.17962886  1
  H+  H254  1  0.14583843  0.00019253  0.33324988  1
  H+  H255  1  0.86492600  0.98156648  0.17023153  1
  H+  H256  1  0.62827974  1.02431138  0.32755489  1
  H+  H257  1  0.21867283  0.60893241  0.67436595  1
  H+  H258  1  0.85887443  0.26790701  0.50899222  1
  H+  H259  1  0.85493359  0.63556311  0.15301610  1
  H+  H260  1  0.52391661  0.63453323  0.78853317  1
  H+  H261  1  0.14751783  0.52915098  0.32135748  1
  H+  H262  1  0.10659865  0.97039978  0.49075432  1
  H+  H263  1  0.62586593  0.11649179  0.17116954  1
  H+  H264  1  0.97523397  0.11209149  0.66128245  1
  H+  H265  1  0.22993677  0.35359069  0.65293065  1
  H+  H266  1  0.91920015  0.22161975  0.46330717  1
  H+  H267  1  0.61446621  -0.02868495  0.49202868  1
  H+  H268  1  0.89204179  0.26665091  1.00234509  1
  H+  H269  1  0.41868061  0.92004748  0.84666576  1
  H+  H270  1  0.84546480  0.10264560  0.34069161  1
  H+  H271  1  0.28518863  0.14431603  0.16858931  1
  H+  H272  1  0.45494394  0.84763331  0.18073587  1
  H+  H273  1  0.61332254  0.60305254  0.83793000  1
  H+  H274  1  1.01424478  0.61943767  1.00257827  1
  H+  H275  1  0.51934432  0.11929759  0.83321108  1
  H+  H276  1  0.88483715  0.61107016  0.50248198  1
  H+  H277  1  0.64259837  0.50485707  0.32787312  1
  H+  H278  1  0.40966645  0.75996790  0.83077873  1
  H+  H279  1  -0.02156890  0.39876004  0.31330766  1
  H+  H280  1  0.11780519  0.35129226  0.84194544  1
  H+  H281  1  0.86256200  0.46875302  0.34433759  1
  H+  H282  1  0.37266449  0.38991542  0.48604878  1
  H+  H283  1  0.83814732  0.40319557  0.77755044  1
  H+  H284  1  0.72853529  0.86745017  0.17451927  1
  H+  H285  1  0.47750637  0.35002977  0.64761033  1
  H+  H286  1  0.16800054  0.08038344  0.59376849  1
  H+  H287  1  0.87233722  0.48409535  0.67982981  1
  H+  H288  1  0.90366474  0.33691414  0.23226192  1
  H+  H289  1  0.10852625  0.05800494  0.86480572  1
  H+  H290  1  0.41441529  0.33687637  0.93303246  1
  H+  H291  1  0.60679356  0.64943993  0.71858807  1
  H+  H292  1  0.71690530  0.86921208  1.01960691  1
  H+  H293  1  0.11324975  0.54485885  0.58239720  1
  H+  H294  1  0.92293059  0.56031685  0.27516849  1
  H+  H295  1  0.43854798  0.87726609  0.94031120  1
  H+  H296  1  0.23836300  0.62990702  0.97325397  1
  H+  H297  1  0.08568755  0.17508446  0.39981054  1
  H+  H298  1  0.58446809  0.41308866  0.09407024  1
  H+  H299  1  0.07510707  0.91217819  0.10326858  1
  H+  H300  1  0.17351597  0.82882019  0.90552591  1
  H+  H301  1  0.13494117  0.11322227  0.50315692  1
  H+  H302  1  0.72462913  0.35573159  0.82641774  1
  H+  H303  1  0.08751123  0.62060967  0.04458773  1
  H+  H304  1  0.04660557  0.40142547  0.77717465  1
  H+  H305  1  0.07679786  0.39952803  0.40302133  1
  H+  H306  1  0.33769261  0.67008138  0.04601636  1
  H+  H307  1  0.04032914  0.65483024  0.11967823  1
  H+  H308  1  0.17449517  0.85798549  0.26556430  1
  H+  H309  1  0.58839469  0.17944444  0.42684671  1
  H+  H310  1  0.81957995  0.16146265  0.06948535  1
  H+  H311  1  0.50155174  0.90620936  0.99333858  1
  H+  H312  1  0.63978021  1.02596925  -0.08595004  1
  H+  H313  1  0.89873028  0.81188529  0.54774476  1
  H+  H314  1  0.62687440  0.09958299  0.65802066  1
  H+  H315  1  0.29517639  0.54987551  0.75746476  1
  H+  H316  1  0.13803440  0.28097572  0.32486628  1
  H+  H317  1  0.32660088  0.83511039  0.79513493  1
  H+  H318  1  0.89320931  0.10761555  0.50496231  1
  H+  H319  1  0.08777698  0.67574825  0.38716421  1
  H+  H320  1  0.40593333  0.37525105  0.32938803  1
  H+  H321  1  0.62548512  0.85421901  0.04160644  1
  H+  H322  1  0.90606169  0.58444987  0.59919256  1
  H+  H323  1  0.37398211  0.63504483  0.64504524  1
  H+  H324  1  0.80664926  0.66143673  0.72096252  1
  H+  H325  1  0.88429419  0.50360187  0.99494798  1
  H+  H326  1  0.41732910  0.58320558  0.22934134  1
  H+  H327  1  0.82660616  0.93500590  0.07576593  1
  H+  H328  1  0.64537071  0.58064465  0.90271024  1
  H+  H329  1  0.89029199  0.32434613  0.57002229  1
  H+  H330  1  0.40885261  0.82315365  0.27469425  1
  H+  H331  1  0.39032538  0.57246088  0.96471673  1
  H+  H332  1  0.85578181  0.75793647  0.64600320  1
  H+  H333  1  0.15056131  0.31185568  0.93893352  1
  H+  H334  1  0.14199759  0.10883971  0.15847047  1
  H+  H335  1  0.07259262  0.67291389  0.73536811  1
  H+  H336  1  0.41549320  0.08151712  0.89833665  1
  H+  H337  1  0.04401640  0.85710540  0.40169851  1
  H+  H338  1  0.83298196  0.66325118  0.08973255  1
  H+  H339  1  0.81975576  0.40977021  0.40257702  1
  H+  H340  1  0.43230986  0.57746967  0.59049154  1
  H+  H341  1  0.90632199  0.82178367  0.23341075  1
  H+  H342  1  0.88573627  0.83469727  0.94585559  1
  H+  H343  1  0.26840940  0.62215227  0.14612654  1
  H+  H344  1  0.36868565  0.85034073  0.17568832  1
  H+  H345  1  0.52024581  0.87723357  0.66873328  1
  H+  H346  1  0.91424499  0.05199629  0.27420897  1
  H+  H347  1  0.90650576  0.32722036  0.91368729  1
  H+  H348  1  0.16103524  0.48665811  0.40410301  1
  H+  H349  1  0.16251127  0.82752357  0.59529228  1
  H+  H350  1  0.65795472  0.08383353  0.26841006  1
  H+  H351  1  0.66966359  0.82552155  0.56206387  1
  H+  H352  1  0.66341022  0.83505219  0.26876741  1
  H+  H353  1  0.65828955  0.07973743  0.55930420  1
  H+  H354  1  0.72448675  0.36380754  0.99960293  1
  H+  H355  1  0.58219189  0.67068215  0.41596546  1
  H+  H356  1  0.22093276  0.10958427  0.49913747  1
  H+  H357  1  0.42288884  0.82169731  0.55884070  1
  H+  H358  1  0.91745742  0.07915138  0.60175707  1
  H+  H359  1  0.11876268  0.97861421  0.01182037  1
  H+  H360  1  0.16549102  0.57778830  0.88772961  1
  H+  H361  1  0.32969801  0.91348513  0.71997512  1
  H+  H362  1  0.82111813  0.91322461  0.76755471  1
  H+  H363  1  0.59272504  0.43326337  0.76038094  1
  H+  H364  1  0.16961296  0.57811880  0.22380384  1
  H+  H365  1  0.07849604  0.15105870  0.06487529  1
  H+  H366  1  0.32102927  0.39098782  0.07158673  1
  H+  H367  1  0.20049984  0.31173320  0.58641005  1
  H+  H368  1  0.39112707  0.52272697  0.32454122  1
  H+  H369  1  0.18798254  0.12365392  0.25672821  1
  H+  H370  1  0.58685379  0.91722071  0.39913936  1
  H+  H371  1  0.82936028  0.90021793  0.40181401  1
  H+  H372  1  0.41592431  0.07943405  0.27223182  1
  H+  H373  1  0.12443398  0.50949411  0.58296918  1
  H+  H374  1  0.61401688  0.17055744  0.74986766  1
  H+  H375  1  0.92922000  0.83247034  0.85562199  1
  H+  H376  1  0.64985178  0.33704355  0.56220251  1
  H+  H377  1  0.32873089  0.17009630  0.42398445  1
  H+  H378  1  0.61429174  0.39702289  1.00042457  1
  H+  H379  1  0.91299522  0.55977034  0.93256146  1
  H+  H380  1  0.17976310  0.08020134  0.94662227  1
  H+  H381  1  0.77856941  0.88208200  0.49338798  1
  H+  H382  1  0.43554397  0.34627584  0.23685467  1
  H+  H383  1  0.16434634  0.95387597  0.76303060  1
  O2-  O384  1  0.08169310  0.17685231  0.17095910  1
  O2-  O385  1  0.09175349  0.17510320  0.47776243  1
  O2-  O386  1  0.08457689  0.16369006  0.80558644  1
  O2-  O387  1  0.08238266  0.40931144  0.13156877  1
  O2-  O388  1  0.02019723  0.33025872  0.46335810  1
  O2-  O389  1  0.05938994  0.39712911  0.82080744  1
  O2-  O390  1  0.05424551  0.65374256  0.16251415  1
  O2-  O391  1  0.07620273  0.67151828  0.47093343  1
  O2-  O392  1  0.08648418  0.66649136  0.81462395  1
  O2-  O393  1  0.07715830  0.91281396  0.14865225  1
  O2-  O394  1  0.07595314  0.90817834  0.48004342  1
  O2-  O395  1  0.19197934  0.96777637  0.80357385  1
  O2-  O396  1  0.34763945  0.17869738  0.16246990  1
  O2-  O397  1  0.32172474  0.16766661  0.46959570  1
  O2-  O398  1  0.33750714  0.17273135  0.80639392  1
  O2-  O399  1  0.33681752  0.40800395  0.15026133  1
  O2-  O400  1  0.34180704  0.42152064  0.47260134  1
  O2-  O401  1  0.31440645  0.41056658  0.81984376  1
  O2-  O402  1  0.33016787  0.65325782  0.13432544  1
  O2-  O403  1  0.34785287  0.65816678  0.48084512  1
  O2-  O404  1  0.30164322  0.59391735  0.78930775  1
  O2-  O405  1  0.33035808  0.91016666  0.14928372  1
  O2-  O406  1  0.33321804  0.88835946  0.48339174  1
  O2-  O407  1  0.32291051  0.88696072  0.80047674  1
  O2-  O408  1  0.57890149  0.16550724  0.14836277  1
  O2-  O409  1  0.58921256  0.18060800  0.47293895  1
  O2-  O410  1  0.58234142  0.14440160  0.82455907  1
  O2-  O411  1  0.58849863  0.40635069  0.13834308  1
  O2-  O412  1  0.63486212  0.47082546  0.46651363  1
  O2-  O413  1  0.59347151  0.42498362  0.80819283  1
  O2-  O414  1  0.58058745  0.67072429  0.14648481  1
  O2-  O415  1  0.58826610  0.66731882  0.46815481  1
  O2-  O416  1  0.58573619  0.65852600  0.79220986  1
  O2-  O417  1  0.60613271  0.92213250  0.10480556  1
  O2-  O418  1  0.58982348  0.91123895  0.47726482  1
  O2-  O419  1  0.58390715  0.90478596  0.80966408  1
  O2-  O420  1  0.81566300  0.16697647  0.14002368  1
  O2-  O421  1  0.85989143  0.17386172  0.47014247  1
  O2-  O422  1  0.81978287  0.13218659  0.81423995  1
  O2-  O423  1  0.82791440  0.42094994  0.14553822  1
  O2-  O424  1  0.82469450  0.42344161  0.48093549  1
  O2-  O425  1  0.82577437  0.39674020  0.82205506  1
  O2-  O426  1  0.83486950  0.67294690  0.13410148  1
  O2-  O427  1  0.82573165  0.65013068  0.46784144  1
  O2-  O428  1  0.79377601  0.65905777  0.80542419  1
  O2-  O429  1  0.83512496  0.92345066  0.15273530  1
  O2-  O430  1  0.83829349  0.91462785  0.47715657  1
  O2-  O431  1  0.81154101  0.90757542  0.81237477  1
  O2-  O432  1  0.16818303  0.08039613  0.18045768  1
  O2-  O433  1  0.16179739  0.07888860  0.51712032  1
  O2-  O434  1  0.17009149  0.07909168  0.86296571  1
  O2-  O435  1  0.17497779  0.34055305  0.18293979  1
  O2-  O436  1  0.18681800  0.33194376  0.51807963  1
  O2-  O437  1  0.15199156  0.32413579  0.85543831  1
  O2-  O438  1  0.16310893  0.57677272  0.17866159  1
  O2-  O439  1  0.16984776  0.58437086  0.46128957  1
  O2-  O440  1  0.15009855  0.56680967  0.84251063  1
  O2-  O441  1  0.16351836  0.83186628  0.18482949  1
  O2-  O442  1  0.16320085  0.82699534  0.51947288  1
  O2-  O443  1  0.17668841  0.82710609  0.86015378  1
  O2-  O444  1  0.41759300  0.07737256  0.19566871  1
  O2-  O445  1  0.43071400  0.11322777  0.51441203  1
  O2-  O446  1  0.41538491  0.08391792  0.85161644  1
  O2-  O447  1  0.42952902  0.34263075  0.19159386  1
  O2-  O448  1  0.41861652  0.33577957  0.50298253  1
  O2-  O449  1  0.40854465  0.33650605  0.85832746  1
  O2-  O450  1  0.42017110  0.58217337  0.18396824  1
  O2-  O451  1  0.43522398  0.57855803  0.51321592  1
  O2-  O452  1  0.38884508  0.57010755  0.87870542  1
  O2-  O453  1  0.39474355  0.81564372  0.19231275  1
  O2-  O454  1  0.42220329  0.81584626  0.51378161  1
  O2-  O455  1  0.46431621  0.92372659  0.87294740  1
  O2-  O456  1  0.65673883  0.08531897  0.18697771  1
  O2-  O457  1  0.66318267  0.08338088  0.51372867  1
  O2-  O458  1  0.65723229  0.04900825  0.87122137  1
  O2-  O459  1  0.66485753  0.32858686  0.18123701  1
  O2-  O460  1  0.66175535  0.34379031  0.51788696  1
  O2-  O461  1  0.65953469  0.32854785  0.82190870  1
  O2-  O462  1  0.67541324  0.60128263  0.19031197  1
  O2-  O463  1  0.75135320  0.61878139  0.50824481  1
  O2-  O464  1  0.64323973  0.57392514  0.85694745  1
  O2-  O465  1  0.66622278  0.83822162  0.18555221  1
  O2-  O466  1  0.67069749  0.82508302  0.51655919  1
  O2-  O467  1  0.64521235  0.80203448  0.83853784  1
  O2-  O468  1  0.91482159  0.10373255  0.19171800  1
  O2-  O469  1  0.92318634  0.07897924  0.52321825  1
  O2-  O470  1  0.91541870  0.06599656  0.87767911  1
  O2-  O471  1  0.89865418  0.33779294  0.18707199  1
  O2-  O472  1  0.89056882  0.32775885  0.52368238  1
  O2-  O473  1  0.90011632  0.32552606  0.86874680  1
  O2-  O474  1  0.87602029  0.56753078  0.19611109  1
  O2-  O475  1  0.91666928  0.58444341  0.52134630  1
  O2-  O476  1  0.92124466  0.55351833  0.85353182  1
  O2-  O477  1  0.91007303  0.83336046  0.18797150  1
  O2-  O478  1  0.90738425  0.81668012  0.50315573  1
  O2-  O479  1  0.86962464  0.80646574  0.86966079  1
  O2-  O480  1  0.20879512  0.16407515  0.29127808  1
  O2-  O481  1  0.16888999  0.07895212  0.63959591  1
  O2-  O482  1  0.17676596  0.07698771  0.99147401  1
  O2-  O483  1  0.17380706  0.34056791  0.30886336  1
  O2-  O484  1  0.20806309  0.29949089  0.63096990  1
  O2-  O485  1  0.15018183  0.30378929  0.98337507  1
  O2-  O486  1  0.17846525  0.58686024  0.30307397  1
  O2-  O487  1  0.16464910  0.58730455  0.69678643  1
  O2-  O488  1  0.17852747  0.59461588  0.95670449  1
  O2-  O489  1  0.17856666  0.88048140  0.30711443  1
  O2-  O490  1  0.16610948  0.82987054  0.64107054  1
  O2-  O491  1  0.16646671  0.83288382  0.98343969  1
  O2-  O492  1  0.41667672  0.08248023  0.31789884  1
  O2-  O493  1  0.41560414  0.08746143  0.64283105  1
  O2-  O494  1  0.42292570  0.08508438  0.96991036  1
  O2-  O495  1  0.43916916  0.34782923  0.31520481  1
  O2-  O496  1  0.45849856  0.29883055  0.62234621  1
  O2-  O497  1  0.42084641  0.33631552  0.97860856  1
  O2-  O498  1  0.42073831  0.58363440  0.30908278  1
  O2-  O499  1  0.43157215  0.58534850  0.63574429  1
  O2-  O500  1  0.40377154  0.56175732  1.00603606  1
  O2-  O501  1  0.41746261  0.82826713  0.31935663  1
  O2-  O502  1  0.41934489  0.83476367  0.63819101  1
  O2-  O503  1  0.43899917  0.86576778  0.98516848  1
  O2-  O504  1  0.65893032  0.08535850  0.31356787  1
  O2-  O505  1  0.64722622  0.06619963  0.63506197  1
  O2-  O506  1  0.65118522  0.04968666  1.02655766  1
  O2-  O507  1  0.66857329  0.34432991  0.30498025  1
  O2-  O508  1  0.61446854  0.31944614  0.63902761  1
  O2-  O509  1  0.66425806  0.33931696  0.98605067  1
  O2-  O510  1  0.70823050  0.60835864  0.30268670  1
  O2-  O511  1  0.63758772  0.59585107  0.64958512  1
  O2-  O512  1  0.65726283  0.58853249  0.97837537  1
  O2-  O513  1  0.66344319  0.83265829  0.31378649  1
  O2-  O514  1  0.66750321  0.82722022  0.64068179  1
  O2-  O515  1  0.65208377  0.82924044  1.01553436  1
  O2-  O516  1  0.91316873  0.05666851  0.31848698  1
  O2-  O517  1  0.91427761  0.07943554  0.64715821  1
  O2-  O518  1  0.88262729  0.11922600  1.02297429  1
  O2-  O519  1  0.92121632  0.34951904  0.30850829  1
  O2-  O520  1  0.88801038  0.31851491  0.64102545  1
  O2-  O521  1  0.91986091  0.32812150  0.99169330  1
  O2-  O522  1  0.92671502  0.56023692  0.31938680  1
  O2-  O523  1  0.90136512  0.58621702  0.64474795  1
  O2-  O524  1  0.91275231  0.56497951  0.97760317  1
  O2-  O525  1  0.89439837  0.79656671  0.30621596  1
  O2-  O526  1  0.88654507  0.81800111  0.62852367  1
  O2-  O527  1  0.90605825  0.85924271  0.98730732  1
  O2-  O528  1  0.08761757  0.14772236  0.02166656  1
  O2-  O529  1  0.08194622  0.17576654  0.35425988  1
  O2-  O530  1  0.08351443  0.16124534  0.68311189  1
  O2-  O531  1  0.08181947  0.41835418  0.03676964  1
  O2-  O532  1  0.12353170  0.44101840  0.37578256  1
  O2-  O533  1  0.02438629  0.43327861  0.70836036  1
  O2-  O534  1  0.07420567  0.65674411  0.01917841  1
  O2-  O535  1  0.08651963  0.66656562  0.34289415  1
  O2-  O536  1  0.06918059  0.66917853  0.69008444  1
  O2-  O537  1  0.08183543  0.91563088  0.02409980  1
  O2-  O538  1  0.02754873  0.81941627  0.36594491  1
  O2-  O539  1  0.11202906  0.93324439  0.69102170  1
  O2-  O540  1  0.35341602  0.16835985  0.00992563  1
  O2-  O541  1  0.34682330  0.18088141  0.34950609  1
  O2-  O542  1  0.33128692  0.16312788  0.68079770  1
  O2-  O543  1  0.31883162  0.39210629  0.02637738  1
  O2-  O544  1  0.34300680  0.42079692  0.35096815  1
  O2-  O545  1  0.29540648  0.47518425  0.71476728  1
  O2-  O546  1  0.33638416  0.68437753  0.00292417  1
  O2-  O547  1  0.33674085  0.66024899  0.35825458  1
  O2-  O548  1  0.33503241  0.66032946  0.64247166  1
  O2-  O549  1  0.33752112  0.92454446  0.02626243  1
  O2-  O550  1  0.34116355  0.91581831  0.35718712  1
  O2-  O551  1  0.33259768  0.91485685  0.67500098  1
  O2-  O552  1  0.57891457  0.16118985  0.02556582  1
  O2-  O553  1  0.58300450  0.17690707  0.35248996  1
  O2-  O554  1  0.63965680  0.19656897  0.70924779  1
  O2-  O555  1  0.58479552  0.42986233  0.01230871  1
  O2-  O556  1  0.60589385  0.44550490  0.34418579  1
  O2-  O557  1  0.58875164  0.43809529  0.69600808  1
  O2-  O558  1  0.59057164  0.67611418  0.03151588  1
  O2-  O559  1  0.57729106  0.67175288  0.35870200  1
  O2-  O560  1  0.60647396  0.65241883  0.67251189  1
  O2-  O561  1  0.61089604  0.98044132  -0.01846502  1
  O2-  O562  1  0.58569786  0.91937805  0.35366266  1
  O2-  O563  1  0.58096279  0.90830699  0.68343817  1
  O2-  O564  1  0.82122819  0.15071853  0.02381556  1
  O2-  O565  1  0.82093886  0.13638883  0.35778601  1
  O2-  O566  1  0.81766243  0.16009788  0.66798203  1
  O2-  O567  1  0.83798995  0.41223943  0.02352960  1
  O2-  O568  1  0.82186969  0.40703401  0.35736257  1
  O2-  O569  1  0.86612974  0.43432162  0.70370075  1
  O2-  O570  1  0.83051161  0.64656302  0.00759388  1
  O2-  O571  1  0.79585391  0.62319106  0.29900869  1
  O2-  O572  1  0.80772282  0.66084222  0.67608043  1
  O2-  O573  1  0.81436559  0.93866081  0.03174023  1
  O2-  O574  1  0.82874746  0.89609664  0.35614891  1
  O2-  O575  1  0.82632607  0.91734519  0.68769616  1
