# generated using pymatgen
data_H2O
_symmetry_space_group_name_H-M   'P 1'
_cell_length_a   17.98307568
_cell_length_b   17.97564999
_cell_length_c   22.00693467
_cell_angle_alpha   89.99134141
_cell_angle_beta   90.02582861
_cell_angle_gamma   120.02766556
_symmetry_Int_Tables_number   1
_chemical_formula_structural   H2O
_chemical_formula_sum   'H384 O192'
_cell_volume   6159.10455774
_cell_formula_units_Z   192
loop_
 _symmetry_equiv_pos_site_id
 _symmetry_equiv_pos_as_xyz
  1  'x, y, z'
loop_
 _atom_type_symbol
 _atom_type_oxidation_number
  H+  1.0
  O2-  -2.0
loop_
 _atom_site_type_symbol
 _atom_site_label
 _atom_site_symmetry_multiplicity
 _atom_site_fract_x
 _atom_site_fract_y
 _atom_site_fract_z
 _atom_site_occupancy
  H+  H0  1  0.96677951  0.35458793  0.17792983  1
  H+  H1  1  0.38319841  0.23449827  0.16099098  1
  H+  H2  1  0.53466194  0.63401621  0.10521151  1
  H+  H3  1  0.47180167  0.36341450  0.83858610  1
  H+  H4  1  0.35926737  0.26500248  0.66393978  1
  H+  H5  1  0.37471000  0.53590706  0.60461269  1
  H+  H6  1  0.36123464  0.87086374  0.49105596  1
  H+  H7  1  0.27440527  0.38262532  0.49036588  1
  H+  H8  1  0.38135221  0.95270923  0.67486422  1
  H+  H9  1  0.88181954  0.62530462  0.66285411  1
  H+  H10  1  0.86346333  0.22986539  0.83971154  1
  H+  H11  1  0.07596605  0.67034565  0.09913572  1
  H+  H12  1  0.94379619  0.34680527  0.95311704  1
  H+  H13  1  0.87378544  0.44610850  0.49865210  1
  H+  H14  1  0.32612637  0.41936354  0.42607975  1
  H+  H15  1  0.63490122  0.37728684  0.65316051  1
  H+  H16  1  0.72156044  0.37184024  0.64788435  1
  H+  H17  1  0.22670007  0.09779315  0.49683525  1
  H+  H18  1  0.27242572  0.41500629  0.67391282  1
  H+  H19  1  0.36751119  0.73608569  0.82892798  1
  H+  H20  1  0.15693760  0.87689689  0.99675729  1
  H+  H21  1  0.34699158  0.73159836  0.20224892  1
  H+  H22  1  0.87748006  0.79088070  0.51634680  1
  H+  H23  1  0.10280935  0.91344852  0.41426120  1
  H+  H24  1  0.71753436  0.35612690  0.50080274  1
  H+  H25  1  0.89264497  0.01631884  1.02835274  1
  H+  H26  1  0.35864911  0.37886833  0.00869907  1
  H+  H27  1  0.78149342  0.07160979  1.00198829  1
  H+  H28  1  0.13947957  0.51735522  0.47263358  1
  H+  H29  1  0.62587183  0.11523241  0.83011855  1
  H+  H30  1  0.10582506  0.37769379  0.17123877  1
  H+  H31  1  0.30885673  0.70292969  0.35861306  1
  H+  H32  1  0.09661022  0.59942805  0.32093247  1
  H+  H33  1  0.13236244  0.77118024  0.17036258  1
  H+  H34  1  0.10073348  0.12680283  0.50576781  1
  H+  H35  1  0.57160040  0.60088031  0.15738352  1
  H+  H36  1  0.39165245  0.27508260  0.99793205  1
  H+  H37  1  0.85077234  0.35359901  0.48211556  1
  H+  H38  1  0.14346567  0.12434337  0.33305954  1
  H+  H39  1  0.73754903  0.88493684  0.00793734  1
  H+  H40  1  0.36492041  0.96381419  0.16249329  1
  H+  H41  1  0.21329996  0.60150765  0.70048747  1
  H+  H42  1  0.08405942  0.45606256  0.32946732  1
  H+  H43  1  0.36781685  0.14472532  0.35145599  1
  H+  H44  1  -0.03036709  0.87067227  0.51617683  1
  H+  H45  1  0.28220665  0.88800180  0.01117875  1
  H+  H46  1  0.18226786  0.59474306  0.32414187  1
  H+  H47  1  0.57628747  0.67736323  -0.06288131  1
  H+  H48  1  0.61266407  0.10835672  -0.01271127  1
  H+  H49  1  0.90146650  0.68881919  0.34698803  1
  H+  H50  1  0.32533594  0.60274554  0.67809019  1
  H+  H51  1  0.10098366  0.33485823  0.83311397  1
  H+  H52  1  0.34973951  0.46306650  1.00213785  1
  H+  H53  1  0.65450863  0.74781085  0.64062320  1
  H+  H54  1  0.01420817  0.38190077  0.66794995  1
  H+  H55  1  0.86032993  0.70981412  0.01452350  1
  H+  H56  1  0.91148179  1.04365122  0.68250144  1
  H+  H57  1  0.74852798  0.62531993  0.49704271  1
  H+  H58  1  0.62201059  0.22032360  0.33809022  1
  H+  H59  1  0.42985316  0.37121210  0.59567238  1
  H+  H60  1  0.57450205  0.61875449  0.32840505  1
  H+  H61  1  0.61224894  0.01976031  0.98708036  1
  H+  H62  1  1.02542541  0.91624587  0.34975941  1
  H+  H63  1  0.38409779  0.27618511  0.34795389  1
  H+  H64  1  0.37572646  0.59953645  0.52773131  1
  H+  H65  1  0.26131750  0.62679244  0.51377832  1
  H+  H66  1  0.92373913  0.78583404  0.35854215  1
  H+  H67  1  0.88799517  1.04887887  0.51011009  1
  H+  H68  1  0.98250796  0.85756668  0.16268803  1
  H+  H69  1  0.11718540  0.73050141  0.67376845  1
  H+  H70  1  0.33789962  0.62769236  0.17588322  1
  H+  H71  1  0.90073323  0.77387868  0.66359496  1
  H+  H72  1  0.51231387  0.37520847  0.33917679  1
  H+  H73  1  0.90406729  0.86021583  0.95825413  1
  H+  H74  1  0.60052212  0.38472841  0.82300669  1
  H+  H75  1  0.87868075  0.26415958  0.17496436  1
  H+  H76  1  0.39974542  0.40558551  0.65294276  1
  H+  H77  1  0.67100415  0.63082454  0.63833805  1
  H+  H78  1  0.38881833  0.77467100  -0.01820579  1
  H+  H79  1  0.82132258  0.33609850  0.31373687  1
  H+  H80  1  0.63712645  0.13211028  0.51220846  1
  H+  H81  1  0.61599270  0.47004297  0.00244161  1
  H+  H82  1  0.59759798  0.71502665  0.33607647  1
  H+  H83  1  0.88395651  0.35623457  0.63726537  1
  H+  H84  1  0.64250682  0.36555791  0.98684287  1
  H+  H85  1  0.12117921  0.51176754  0.17386858  1
  H+  H86  1  0.87398374  0.48082549  0.64857825  1
  H+  H87  1  0.13554166  0.60461784  0.47293819  1
  H+  H88  1  0.44013949  0.61137264  0.32958625  1
  H+  H89  1  0.28878210  0.15039973  0.16369905  1
  H+  H90  1  1.04882492  0.08507791  0.86517110  1
  H+  H91  1  0.86185519  0.15452895  0.35530087  1
  H+  H92  1  0.24463479  0.61735682  0.19327601  1
  H+  H93  1  0.81744712  0.70668068  0.79683394  1
  H+  H94  1  0.10086266  0.72828986  0.33444931  1
  H+  H95  1  0.59665880  0.46420931  0.32594626  1
  H+  H96  1  0.11263473  0.22764124  0.34840411  1
  H+  H97  1  0.88824667  0.27056069  0.65164957  1
  H+  H98  1  0.22385913  0.63155054  0.84590414  1
  H+  H99  1  0.37657738  0.51388748  0.50729873  1
  H+  H100  1  0.34275236  0.10557360  0.51288183  1
  H+  H101  1  0.28019063  0.14311837  1.01088732  1
  H+  H102  1  1.01495736  0.64771625  0.83120795  1
  H+  H103  1  0.59469286  0.87321223  0.16125749  1
  H+  H104  1  0.08875995  0.21036722  0.00884586  1
  H+  H105  1  0.88122027  0.92584766  0.04034319  1
  H+  H106  1  0.61847871  0.26345926  0.82913591  1
  H+  H107  1  0.49144446  0.39310896  0.50450855  1
  H+  H108  1  0.93799199  0.78063953  0.82042837  1
  H+  H109  1  0.14459824  0.78226525  0.84905965  1
  H+  H110  1  0.11709270  0.73851567  0.01396345  1
  H+  H111  1  0.38446251  0.76441533  0.52078045  1
  H+  H112  1  0.59963893  0.77093802  0.49088027  1
  H+  H113  1  0.87119545  0.89383157  0.16996936  1
  H+  H114  1  0.65284222  0.79206877  0.99387697  1
  H+  H115  1  0.63560512  0.25547312  0.17377050  1
  H+  H116  1  0.12538414  -0.02061355  0.65606588  1
  H+  H117  1  0.22219992  0.36889322  0.17283903  1
  H+  H118  1  0.85189142  0.62202010  0.15833616  1
  H+  H119  1  0.72763498  0.10549387  0.17403392  1
  H+  H120  1  0.26635185  0.14842992  0.81967917  1
  H+  H121  1  0.77284461  0.37950835  0.00147400  1
  H+  H122  1  0.86999158  0.89395598  0.67862032  1
  H+  H123  1  0.13321260  0.99339987  0.00477647  1
  H+  H124  1  0.38641152  0.27116361  0.84013142  1
  H+  H125  1  0.58517373  0.67479762  0.79173202  1
  H+  H126  1  0.10441444  0.64521215  1.00993570  1
  H+  H127  1  0.61185355  0.23219912  1.00516216  1
  H+  H128  1  0.51039059  0.63287928  0.49654343  1
  H+  H129  1  0.10085038  0.63297568  0.15820441  1
  H+  H130  1  0.33566504  0.15385832  0.45315181  1
  H+  H131  1  0.34950782  -0.01976953  0.52093692  1
  H+  H132  1  0.11146626  0.50619912  0.70019720  1
  H+  H133  1  0.38434510  0.62041389  0.84568413  1
  H+  H134  1  0.87041634  0.39167779  1.01022975  1
  H+  H135  1  0.67984206  0.86027985  0.58389664  1
  H+  H136  1  0.86701174  0.50032698  0.99625479  1
  H+  H137  1  0.59388782  0.22182681  0.49183141  1
  H+  H138  1  0.58450705  0.74268557  0.17832569  1
  H+  H139  1  0.65688954  0.13445266  0.66764619  1
  H+  H140  1  0.37790204  0.11439519  0.83671725  1
  H+  H141  1  0.43767132  0.82975567  0.35448764  1
  H+  H142  1  0.03784892  0.89040916  0.66935602  1
  H+  H143  1  0.10580443  0.38745429  0.67929702  1
  H+  H144  1  0.24885828  0.62593092  0.40485494  1
  H+  H145  1  0.86492814  0.13440475  0.17636359  1
  H+  H146  1  0.52862904  0.41140795  0.66765497  1
  H+  H147  1  0.11675506  0.88947645  0.15715230  1
  H+  H148  1  0.73191155  0.35233210  0.17153360  1
  H+  H149  1  0.91265411  0.13211069  0.68055364  1
  H+  H150  1  0.45701238  0.59942562  0.99027769  1
  H+  H151  1  0.01357857  0.36127919  0.48533127  1
  H+  H152  1  0.23864175  0.86458990  0.84768685  1
  H+  H153  1  0.36296438  0.18040581  0.65838948  1
  H+  H154  1  0.69787848  0.35581640  0.81295383  1
  H+  H155  1  0.90230972  0.14507141  0.50922395  1
  H+  H156  1  0.39163651  0.10845682  0.16582073  1
  H+  H157  1  0.62735640  0.36153305  0.31975264  1
  H+  H158  1  0.97656535  0.12734566  0.34482662  1
  H+  H159  1  -0.00064118  0.39466432  0.01202294  1
  H+  H160  1  0.36712538  -0.01933657  0.82444322  1
  H+  H161  1  0.85181091  0.71074475  0.15473129  1
  H+  H162  1  0.38572851  0.36470584  0.33615041  1
  H+  H163  1  0.40080064  0.38881588  0.50206609  1
  H+  H164  1  0.91984313  0.36794995  0.86804845  1
  H+  H165  1  0.72035913  0.60913353  -0.00083713  1
  H+  H166  1  0.06844375  0.66116642  0.42534053  1
  H+  H167  1  0.42581651  0.38505692  0.17419202  1
  H+  H168  1  0.15419876  0.04108796  0.33457755  1
  H+  H169  1  0.73876902  0.87553810  0.84561135  1
  H+  H170  1  0.86481035  0.99943004  0.34965056  1
  H+  H171  1  0.50985497  0.13844855  0.82116701  1
  H+  H172  1  0.85712224  0.37601297  0.15907172  1
  H+  H173  1  0.92005077  0.25934848  0.03053744  1
  H+  H174  1  0.18398785  0.83958487  0.93972647  1
  H+  H175  1  0.63771334  -0.00676127  0.67182464  1
  H+  H176  1  0.12061183  0.60924629  0.69952770  1
  H+  H177  1  0.16208709  0.32373144  0.27010219  1
  H+  H178  1  0.68156403  0.59764851  0.30390444  1
  H+  H179  1  0.22473856  0.86104226  0.32358293  1
  H+  H180  1  0.23566036  0.29466123  0.56223339  1
  H+  H181  1  0.88662358  0.92458697  0.35851823  1
  H+  H182  1  0.35100936  0.63320922  -0.01573091  1
  H+  H183  1  0.47788713  0.84577225  0.51111086  1
  H+  H184  1  0.72090568  0.10231706  0.33447151  1
  H+  H185  1  0.34597254  0.59820827  0.33653319  1
  H+  H186  1  1.01935272  0.14383381  0.50505324  1
  H+  H187  1  0.36415667  0.84065871  0.18545253  1
  H+  H188  1  0.13450295  1.11386161  -0.00981148  1
  H+  H189  1  0.14815334  0.25416798  0.52612698  1
  H+  H190  1  0.53011319  0.38016753  0.00269275  1
  H+  H191  1  0.38466792  0.11065537  0.99381750  1
  H+  H192  1  0.50647044  0.00488526  0.61267263  1
  H+  H193  1  0.73426360  0.15152335  0.51408092  1
  H+  H194  1  0.12552916  0.35437585  0.32461344  1
  H+  H195  1  -0.00530092  0.34489897  0.85801243  1
  H+  H196  1  0.13157647  0.75605423  0.50327663  1
  H+  H197  1  0.11001058  0.95920609  0.49819436  1
  H+  H198  1  0.78914877  0.37024419  0.87255093  1
  H+  H199  1  1.01626353  0.63023325  0.48788093  1
  H+  H200  1  0.14691772  0.07422444  0.45278388  1
  H+  H201  1  0.23057628  0.85783965  0.66026850  1
  H+  H202  1  0.61363697  0.64372837  0.98681309  1
  H+  H203  1  0.48649119  0.87231894  0.83687360  1
  H+  H204  1  0.86668629  0.54661353  0.32267066  1
  H+  H205  1  0.85632963  0.91270735  0.50594364  1
  H+  H206  1  0.47423793  0.62382101  0.85153014  1
  H+  H207  1  0.37076199  0.97705059  0.01047475  1
  H+  H208  1  0.86817656  0.60422876  0.84101669  1
  H+  H209  1  0.75998244  0.86968624  0.32216607  1
  H+  H210  1  0.57850214  0.91447219  0.09164990  1
  H+  H211  1  0.04835301  0.91541846  0.80566702  1
  H+  H212  1  0.13823912  0.27346213  0.17282949  1
  H+  H213  1  0.87650411  0.66552606  0.50350991  1
  H+  H214  1  0.78746991  0.15166280  0.67515291  1
  H+  H215  1  0.89619305  0.02996698  0.19737565  1
  H+  H216  1  0.47454849  0.11499441  -0.00892941  1
  H+  H217  1  0.26679821  0.64373018  0.98359467  1
  H+  H218  1  1.00467248  0.64794430  0.33272464  1
  H+  H219  1  0.65326048  0.52454704  0.49210914  1
  H+  H220  1  0.39427921  0.86635099  0.99420577  1
  H+  H221  1  0.14478365  0.86433872  0.65429518  1
  H+  H222  1  0.37530615  0.89510495  0.82785538  1
  H+  H223  1  0.51511717  0.87881610  0.01122410  1
  H+  H224  1  0.71728696  0.59993379  0.83733877  1
  H+  H225  1  0.14621963  0.28817768  0.68916795  1
  H+  H226  1  0.63818720  0.01004542  0.32927722  1
  H+  H227  1  0.61311658  0.12673520  0.33838902  1
  H+  H228  1  0.72271244  0.78132723  0.28763532  1
  H+  H229  1  0.14516624  0.03189380  0.17445437  1
  H+  H230  1  0.82440574  0.40791707  0.10117633  1
  H+  H231  1  0.12814026  0.53129080  0.98671662  1
  H+  H232  1  0.57069982  0.17101000  0.76039905  1
  H+  H233  1  0.34747248  0.47622847  0.33824287  1
  H+  H234  1  0.13280653  0.22738297  0.86161733  1
  H+  H235  1  0.68431396  0.85949562  0.90712551  1
  H+  H236  1  0.43339770  0.52483364  0.16364632  1
  H+  H237  1  0.13289190  0.89680363  0.34786437  1
  H+  H238  1  0.04695706  0.15869162  0.70420632  1
  H+  H239  1  0.52450037  0.13034187  0.15961450  1
  H+  H240  1  0.65800705  0.33908938  0.55894840  1
  H+  H241  1  0.60633001  0.23529806  0.66547352  1
  H+  H242  1  0.61705746  -0.02261853  0.15926529  1
  H+  H243  1  0.86552446  0.55103472  0.50444852  1
  H+  H244  1  0.49361965  0.13740366  0.31959443  1
  H+  H245  1  0.57917962  0.47633852  0.16549090  1
  H+  H246  1  0.87687112  0.51979055  0.84653513  1
  H+  H247  1  0.90144169  0.45572441  0.34521945  1
  H+  H248  1  0.36709570  0.85660635  0.34234684  1
  H+  H249  1  0.36226341  -0.02082386  0.34593001  1
  H+  H250  1  0.62047380  0.39718272  0.48315139  1
  H+  H251  1  0.22509991  0.85694468  0.16972478  1
  H+  H252  1  0.65355741  0.53323889  0.64834826  1
  H+  H253  1  0.96869881  0.95138686  0.92745613  1
  H+  H254  1  0.64538553  0.87595876  0.33536186  1
  H+  H255  1  0.62836577  0.74354452  0.84873391  1
  H+  H256  1  0.27901708  0.14406437  0.35264020  1
  H+  H257  1  0.21565279  0.34193745  0.99886508  1
  H+  H258  1  0.28661770  0.34231775  0.77159064  1
  H+  H259  1  0.12665634  0.38150113  0.01180218  1
  H+  H260  1  0.02542944  0.64161719  0.67055112  1
  H+  H261  1  0.34351532  0.35771284  0.82969690  1
  H+  H262  1  0.74652031  0.57297590  0.37874567  1
  H+  H263  1  0.91998457  0.10276373  0.28459528  1
  H+  H264  1  0.56430140  0.86968476  0.30790458  1
  H+  H265  1  0.22068621  0.12305706  0.64291445  1
  H+  H266  1  0.30441411  0.65676350  0.57891987  1
  H+  H267  1  0.26564374  0.86032830  0.49124267  1
  H+  H268  1  0.10651935  0.37277205  0.48732636  1
  H+  H269  1  0.79303461  0.62598881  0.65658246  1
  H+  H270  1  0.26460832  0.38197715  0.33936853  1
  H+  H271  1  0.86834321  0.59819820  0.00026382  1
  H+  H272  1  0.13940255  1.03607336  0.82720457  1
  H+  H273  1  0.92554505  1.01517515  0.87736603  1
  H+  H274  1  0.44039955  0.03534934  0.59408191  1
  H+  H275  1  0.82903512  0.22223063  0.34204370  1
  H+  H276  1  0.98195155  0.12092906  0.18973500  1
  H+  H277  1  0.72032273  0.37041661  0.32166590  1
  H+  H278  1  -0.02976123  0.60817188  0.16861761  1
  H+  H279  1  0.76846962  0.15153845  0.82591580  1
  H+  H280  1  0.61212756  0.88984503  0.01383906  1
  H+  H281  1  0.35992456  0.82944227  0.66505870  1
  H+  H282  1  0.79060557  0.07122857  -0.03122202  1
  H+  H283  1  0.17342006  0.09405745  0.93154900  1
  H+  H284  1  0.63854781  0.61551076  0.85058260  1
  H+  H285  1  0.11535344  0.13899819  0.16248938  1
  H+  H286  1  0.65618201  0.88188055  0.64843551  1
  H+  H287  1  0.74227502  0.61250431  0.38015495  1
  H+  H288  1  0.11437674  0.95296455  0.75121660  1
  H+  H289  1  0.61486438  -0.01625766  0.82227857  1
  H+  H290  1  0.16584126  0.32973313  0.62234019  1
  H+  H291  1  0.15324793  0.30685266  0.94058768  1
  H+  H292  1  0.33906052  0.90597083  0.10301799  1
  H+  H293  1  0.86673932  0.88276991  0.81981447  1
  H+  H294  1  0.40036450  0.57043062  0.93038672  1
  H+  H295  1  0.13683155  0.63541926  0.84282686  1
  H+  H296  1  0.07841976  0.40398799  0.11025683  1
  H+  H297  1  0.13243443  0.56760585  0.23353500  1
  H+  H298  1  0.61841352  0.55626907  0.24742720  1
  H+  H299  1  0.83455989  0.92157640  0.76968390  1
  H+  H300  1  0.39967337  0.81147979  0.60524109  1
  H+  H301  1  0.84398792  0.19031596  0.73512679  1
  H+  H302  1  0.66678688  0.32533633  0.23506045  1
  H+  H303  1  0.92305572  0.58763201  0.56876876  1
  H+  H304  1  0.60436960  0.47535225  0.82755608  1
  H+  H305  1  0.33467000  0.90736095  0.73764471  1
  H+  H306  1  0.83691002  0.42482502  0.39975623  1
  H+  H307  1  0.84605904  0.20742838  0.44280909  1
  H+  H308  1  0.08705967  0.17122432  0.41026913  1
  H+  H309  1  0.66683362  0.32892496  0.92801824  1
  H+  H310  1  0.04722764  0.90762065  -0.00408796  1
  H+  H311  1  0.09116202  0.92461593  0.09834688  1
  H+  H312  1  0.38915195  0.81707486  0.25342847  1
  H+  H313  1  0.41071075  0.08663610  0.89644991  1
  H+  H314  1  0.78679782  0.90170379  0.66653925  1
  H+  H315  1  0.88153106  0.51610407  0.17163128  1
  H+  H316  1  0.57594890  0.67021189  0.74140368  1
  H+  H317  1  0.54047296  0.13175644  0.66158930  1
  H+  H318  1  0.32960991  0.66816224  0.77426284  1
  H+  H319  1  0.82698737  0.94020798  0.44687885  1
  H+  H320  1  0.64984898  0.81559407  0.22414440  1
  H+  H321  1  0.42288914  0.08586571  0.22590178  1
  H+  H322  1  0.17354195  0.47113212  0.04497421  1
  H+  H323  1  0.08285080  0.54801147  0.58681211  1
  H+  H324  1  0.64900009  0.08371789  0.89137303  1
  H+  H325  1  0.82971990  0.36712665  0.81103512  1
  H+  H326  1  0.68237820  0.10957055  0.60445963  1
  H+  H327  1  0.90191909  0.59381854  0.25892823  1
  H+  H328  1  0.90231163  0.30322731  0.55127739  1
  H+  H329  1  0.98259172  0.55509669  0.61469859  1
  H+  H330  1  0.60010412  0.92476255  0.72483448  1
  H+  H331  1  0.93493863  0.17868621  0.02574116  1
  H+  H332  1  0.15481066  0.59545399  0.92958855  1
  H+  H333  1  0.41734590  0.33246876  0.93781988  1
  H+  H334  1  0.06816237  0.37007400  0.77753695  1
  H+  H335  1  0.84323611  0.41868581  0.70637672  1
  H+  H336  1  0.68680566  0.58262369  0.56017441  1
  H+  H337  1  0.33743665  0.70124302  0.67253453  1
  H+  H338  1  0.32819993  0.91715919  0.40453986  1
  H+  H339  1  0.07066822  0.15748057  0.10608479  1
  H+  H340  1  0.89547979  0.57115049  0.93396786  1
  H+  H341  1  0.82427306  0.64948665  0.07409030  1
  H+  H342  1  0.61429965  0.12982454  0.16049397  1
  H+  H343  1  0.66614156  0.07255481  0.23263031  1
  H+  H344  1  0.11070584  0.86954989  0.50249928  1
  H+  H345  1  0.47046130  0.75055936  0.41790257  1
  H+  H346  1  0.58662150  0.43198107  0.72700193  1
  H+  H347  1  0.83501160  0.93820270  0.12732419  1
  H+  H348  1  0.85702670  0.30643953  0.25851492  1
  H+  H349  1  0.66680582  0.57865755  0.93727452  1
  H+  H350  1  0.31326089  0.00161632  0.57980811  1
  H+  H351  1  0.16591203  0.83490981  0.26351977  1
  H+  H352  1  0.05783815  0.50250813  0.57543953  1
  H+  H353  1  0.60399816  0.67824471  0.69514224  1
  H+  H354  1  0.86359661  0.70388670  0.44187738  1
  H+  H355  1  0.55638705  0.65945218  0.43193372  1
  H+  H356  1  0.16730669  0.81497501  0.56442979  1
  H+  H357  1  0.43390459  0.70548175  0.42140491  1
  H+  H358  1  0.34232995  0.17071653  0.06923892  1
  H+  H359  1  0.17547069  0.09299190  0.23313696  1
  H+  H360  1  0.59194481  0.42796900  0.42255689  1
  H+  H361  1  0.97254870  0.91654257  0.29233342  1
  H+  H362  1  0.35934759  0.72045232  0.09356576  1
  H+  H363  1  0.58187208  0.17327794  0.06538952  1
  H+  H364  1  0.16641088  0.08015009  0.58361343  1
  H+  H365  1  0.92039705  0.81517210  0.21912934  1
  H+  H366  1  0.85712655  0.17182908  0.11299425  1
  H+  H367  1  0.97522144  0.07745570  0.94949740  1
  H+  H368  1  0.21094892  0.32165870  0.85049923  1
  H+  H369  1  0.57236452  0.15899983  0.43668448  1
  H+  H370  1  0.59463394  0.88291693  0.43922712  1
  H+  H371  1  0.95163646  0.84794582  0.87314014  1
  H+  H372  1  0.32544984  0.17976974  0.76026987  1
  H+  H373  1  0.31655378  0.71806710  0.09382015  1
  H+  H374  1  0.92120221  0.83942502  0.60899074  1
  H+  H375  1  0.46075022  0.19201300  0.28549608  1
  H+  H376  1  0.42843612  0.84519079  0.89752932  1
  H+  H377  1  0.06682361  0.39869387  0.38780140  1
  H+  H378  1  0.62118446  0.89833304  0.82781417  1
  H+  H379  1  0.82855388  0.64635905  0.75067518  1
  H+  H380  1  0.11371226  0.17694273  0.75784933  1
  H+  H381  1  0.67608653  0.56821321  0.16159145  1
  H+  H382  1  0.07200820  0.67963212  0.77079827  1
  H+  H383  1  0.32497182  0.42787859  0.09523822  1
  O2-  O384  1  0.08106455  0.16651716  0.15044458  1
  O2-  O385  1  0.08358346  0.16843245  0.49226560  1
  O2-  O386  1  0.10500556  0.12588184  0.83806481  1
  O2-  O387  1  0.07330398  0.40586220  0.15501506  1
  O2-  O388  1  0.07421598  0.39937662  0.47252337  1
  O2-  O389  1  0.07441273  0.37012258  0.82180567  1
  O2-  O390  1  0.07222673  0.66583892  0.14603067  1
  O2-  O391  1  0.07512224  0.65579366  0.47020930  1
  O2-  O392  1  0.07419409  0.68092701  0.81600283  1
  O2-  O393  1  0.08562986  0.91982501  0.14377192  1
  O2-  O394  1  0.07730645  0.89667221  0.48755254  1
  O2-  O395  1  0.10884967  0.95772365  0.79614435  1
  O2-  O396  1  0.34821476  0.17327309  0.14807588  1
  O2-  O397  1  0.32043622  0.14220151  0.49697071  1
  O2-  O398  1  0.32671637  0.17234189  0.80482149  1
  O2-  O399  1  0.31531343  0.44711321  0.13649298  1
  O2-  O400  1  0.33120604  0.42159862  0.47233464  1
  O2-  O401  1  0.29704343  0.36654219  0.81230534  1
  O2-  O402  1  0.31009598  0.64998804  0.20228064  1
  O2-  O403  1  0.31792372  0.65657349  0.53594346  1
  O2-  O404  1  0.33234595  0.67357755  0.81899776  1
  O2-  O405  1  0.33477356  0.90260550  0.14901251  1
  O2-  O406  1  0.32685823  0.89786948  0.47701093  1
  O2-  O407  1  0.34021735  0.91971750  0.81081544  1
  O2-  O408  1  0.58703890  0.16417343  0.14778272  1
  O2-  O409  1  0.56823243  0.16030390  0.48131067  1
  O2-  O410  1  0.57091685  0.17067156  0.80612429  1
  O2-  O411  1  0.53128378  0.38955678  0.15027127  1
  O2-  O412  1  0.59900208  0.43587277  0.46798617  1
  O2-  O413  1  0.57447564  0.41814097  0.80687133  1
  O2-  O414  1  0.53442036  0.62763775  0.14924414  1
  O2-  O415  1  0.56516275  0.67246985  0.47585082  1
  O2-  O416  1  0.59463378  0.67950962  0.84030270  1
  O2-  O417  1  0.58040954  0.91684739  0.14202729  1
  O2-  O418  1  0.57969583  0.87109755  0.48251288  1
  O2-  O419  1  0.58703872  0.92194006  0.80925270  1
  O2-  O420  1  0.83284447  0.15950783  0.15563581  1
  O2-  O421  1  0.85119947  0.21091450  0.48922126  1
  O2-  O422  1  0.82782621  0.18533778  0.80976266  1
  O2-  O423  1  0.82382798  0.40566658  0.14647269  1
  O2-  O424  1  0.83210691  0.39739686  0.47451226  1
  O2-  O425  1  0.83844093  0.40440467  0.84584782  1
  O2-  O426  1  0.81901736  0.64951214  0.14201728  1
  O2-  O427  1  0.84213349  0.69005521  0.48550693  1
  O2-  O428  1  0.81908701  0.65312833  0.79555724  1
  O2-  O429  1  0.84311050  0.92904884  0.17049413  1
  O2-  O430  1  0.83085611  0.94687760  0.49139441  1
  O2-  O431  1  0.83732068  0.91605503  0.81499345  1
  O2-  O432  1  0.17567047  0.09294101  0.18791781  1
  O2-  O433  1  0.15884372  0.06710467  0.49503216  1
  O2-  O434  1  0.16575694  0.09551005  0.85258915  1
  O2-  O435  1  0.16392397  0.33219018  0.19091162  1
  O2-  O436  1  0.19407012  0.30959087  0.54645254  1
  O2-  O437  1  0.15190890  0.28899089  0.87025346  1
  O2-  O438  1  0.14721831  0.57268963  0.18866204  1
  O2-  O439  1  0.17511748  0.58074769  0.46989739  1
  O2-  O440  1  0.16330609  0.60325172  0.85996788  1
  O2-  O441  1  0.16512963  0.83228607  0.18524185  1
  O2-  O442  1  0.16666921  0.81638498  0.51882654  1
  O2-  O443  1  0.18227024  0.83836139  0.86863560  1
  O2-  O444  1  0.41989205  0.07603493  0.18124328  1
  O2-  O445  1  0.36021897  0.02778489  0.55052250  1
  O2-  O446  1  0.41098578  0.08696756  0.85086260  1
  O2-  O447  1  0.45137985  0.34787783  0.18177579  1
  O2-  O448  1  0.43478563  0.36778334  0.52438495  1
  O2-  O449  1  0.41426116  0.33008275  0.85817703  1
  O2-  O450  1  0.39028709  0.46383282  0.17310959  1
  O2-  O451  1  0.40660224  0.56719264  0.53335129  1
  O2-  O452  1  0.41282713  0.58873480  0.86138984  1
  O2-  O453  1  0.38543711  0.80567533  0.20852465  1
  O2-  O454  1  0.41815649  0.82846200  0.52347625  1
  O2-  O455  1  0.42554528  0.84364705  0.85218582  1
  O2-  O456  1  0.66547227  0.07363237  0.18723470  1
  O2-  O457  1  0.67696798  0.11520729  0.53158387  1
  O2-  O458  1  0.65758154  0.08730728  0.84595075  1
  O2-  O459  1  0.66987777  0.31874097  0.18870279  1
  O2-  O460  1  0.65791635  0.33669131  0.51328913  1
  O2-  O461  1  0.65359923  0.32676287  0.84379323  1
  O2-  O462  1  0.61750802  0.54512168  0.17705018  1
  O2-  O463  1  0.68662393  0.58500954  0.51268345  1
  O2-  O464  1  0.66215556  0.57623760  0.85942784  1
  O2-  O465  1  0.60848910  0.80331407  0.19103143  1
  O2-  O466  1  0.63288024  0.83515594  0.50268055  1
  O2-  O467  1  0.67880054  0.84892382  0.86259725  1
  O2-  O468  1  0.92392884  0.09246377  0.20893682  1
  O2-  O469  1  0.92828216  0.11069232  0.52159327  1
  O2-  O470  1  0.97634887  0.03473035  0.90341520  1
  O2-  O471  1  0.90399861  0.32623112  0.18724325  1
  O2-  O472  1  0.90174976  0.30303268  0.50449711  1
  O2-  O473  1  0.93855361  0.32818530  0.88193783  1
  O2-  O474  1  0.90875334  0.57750938  0.18383018  1
  O2-  O475  1  0.91658326  0.60070642  0.52072174  1
  O2-  O476  1  0.90030400  0.57946956  0.86121449  1
  O2-  O477  1  0.91977525  0.82303463  0.17537174  1
  O2-  O478  1  0.91147774  0.85027870  0.53305124  1
  O2-  O479  1  0.94250417  0.83616555  0.82818584  1
  O2-  O480  1  0.17836278  0.09915752  0.31667434  1
  O2-  O481  1  0.16530628  0.07607207  0.62774338  1
  O2-  O482  1  0.17435240  0.09390859  0.97701776  1
  O2-  O483  1  0.15904335  0.32433106  0.31534335  1
  O2-  O484  1  0.16797003  0.34496975  0.66587245  1
  O2-  O485  1  0.15361559  0.31384982  0.98675402  1
  O2-  O486  1  0.12287655  0.56510066  0.30623908  1
  O2-  O487  1  0.14681175  0.57198353  0.71016524  1
  O2-  O488  1  0.15374774  0.59218619  0.97641271  1
  O2-  O489  1  0.16440019  0.83324665  0.30922182  1
  O2-  O490  1  0.17169772  0.82874468  0.64193927  1
  O2-  O491  1  0.18415773  0.84230382  0.98626570  1
  O2-  O492  1  0.44076470  0.13327802  0.29941203  1
  O2-  O493  1  0.47390871  0.03059880  0.62885308  1
  O2-  O494  1  0.41404764  0.08081623  0.97611254  1
  O2-  O495  1  0.41563001  0.33206347  0.32675033  1
  O2-  O496  1  0.42504436  0.36940993  0.64212521  1
  O2-  O497  1  0.41970319  0.33576108  0.98314626  1
  O2-  O498  1  0.37961495  0.57517467  0.31708850  1
  O2-  O499  1  0.34684660  0.53136043  0.64558432  1
  O2-  O500  1  0.39683555  0.56499071  0.97709724  1
  O2-  O501  1  0.38586128  0.81404926  0.33086446  1
  O2-  O502  1  0.37892960  0.79080776  0.64685542  1
  O2-  O503  1  0.42722603  0.83977639  0.97721864  1
  O2-  O504  1  0.66317467  0.06993128  0.31465550  1
  O2-  O505  1  0.68564510  0.10461282  0.65027914  1
  O2-  O506  1  0.63481355  0.07484551  0.96583394  1
  O2-  O507  1  0.66213571  0.33356548  0.30555830  1
  O2-  O508  1  0.65984559  0.34271989  0.63609629  1
  O2-  O509  1  0.67500985  0.33448645  0.97247108  1
  O2-  O510  1  0.62074920  0.56343145  0.29385213  1
  O2-  O511  1  0.69336825  0.58919415  0.62773188  1
  O2-  O512  1  0.66139161  0.58224902  0.98226498  1
  O2-  O513  1  0.70628163  0.82323680  0.30008452  1
  O2-  O514  1  0.68849676  0.85621076  0.62783921  1
  O2-  O515  1  0.67989356  0.85554099  0.98884867  1
  O2-  O516  1  0.91613023  0.10296398  0.33017333  1
  O2-  O517  1  0.94951661  0.10604912  0.67702530  1
  O2-  O518  1  0.97236161  0.10970186  0.99580533  1
  O2-  O519  1  0.81636363  0.28533735  0.29346466  1
  O2-  O520  1  0.91550187  0.32610095  0.62592033  1
  O2-  O521  1  0.93986659  0.35941011  0.99777138  1
  O2-  O522  1  0.90117726  0.60352054  0.30383180  1
  O2-  O523  1  0.93973428  0.57066578  0.62690401  1
  O2-  O524  1  0.89406365  0.56485435  0.98003537  1
  O2-  O525  1  0.96479497  0.89823781  0.33459722  1
  O2-  O526  1  0.92785078  0.83571690  0.65410878  1
  O2-  O527  1  0.96185425  0.89260441  0.94169039  1
  O2-  O528  1  0.06039387  0.14782920  0.02204589  1
  O2-  O529  1  0.08482571  0.16712593  0.36499927  1
  O2-  O530  1  0.10866135  0.19640608  0.71726322  1
  O2-  O531  1  0.11636198  0.42694049  0.03185656  1
  O2-  O532  1  0.06504647  0.39660966  0.34307431  1
  O2-  O533  1  0.06800613  0.41110795  0.69266881  1
  O2-  O534  1  0.07977718  0.67849720  0.02879505  1
  O2-  O535  1  0.06366792  0.66779712  0.34882157  1
  O2-  O536  1  0.08162840  0.67202011  0.69303674  1
  O2-  O537  1  0.10109910  0.93239011  0.01974096  1
  O2-  O538  1  0.11598822  0.93419025  0.37070854  1
  O2-  O539  1  0.10122731  0.92181574  0.67694498  1
  O2-  O540  1  0.34113477  0.16954245  0.02381564  1
  O2-  O541  1  0.33526243  0.16669601  0.37408450  1
  O2-  O542  1  0.32811711  0.20243045  0.67602334  1
  O2-  O543  1  0.32254775  0.40444587  0.02152077  1
  O2-  O544  1  0.32523224  0.41580650  0.35414241  1
  O2-  O545  1  0.33683787  0.45499998  0.67650429  1
  O2-  O546  1  0.33058684  0.67514436  -0.01618747  1
  O2-  O547  1  0.27427602  0.63993909  0.36351473  1
  O2-  O548  1  0.30471710  0.64175710  0.69319099  1
  O2-  O549  1  0.34355330  0.91738792  0.02713673  1
  O2-  O550  1  0.32818718  0.91919532  0.35837737  1
  O2-  O551  1  0.33140721  0.90057771  0.69172354  1
  O2-  O552  1  0.57622451  0.17226005  0.02059041  1
  O2-  O553  1  0.58462172  0.16004025  0.35098845  1
  O2-  O554  1  0.58676570  0.17901286  0.68578442  1
  O2-  O555  1  0.59318966  0.40805949  0.00960186  1
  O2-  O556  1  0.57798993  0.40807204  0.34647122  1
  O2-  O557  1  0.58962834  0.43503254  0.68168350  1
  O2-  O558  1  0.58436263  0.67851071  -0.01868852  1
  O2-  O559  1  0.55520209  0.65627551  0.34807727  1
  O2-  O560  1  0.63054248  0.68590220  0.65171192  1
  O2-  O561  1  0.57530023  0.91233189  0.03068041  1
  O2-  O562  1  0.60297763  0.89431925  0.34254048  1
  O2-  O563  1  0.60767482  0.93062060  0.68023728  1
  O2-  O564  1  0.91999956  0.21223369  0.05368259  1
  O2-  O565  1  0.82279868  0.17519983  0.37024399  1
  O2-  O566  1  0.84846350  0.18654149  0.68975207  1
  O2-  O567  1  0.83164212  0.41591644  0.02059135  1
  O2-  O568  1  0.84185739  0.43811740  0.35509763  1
  O2-  O569  1  0.83364289  0.41760376  0.66279892  1
  O2-  O570  1  0.82663781  0.64969876  0.02656297  1
  O2-  O571  1  0.91408563  0.73265824  0.37846319  1
  O2-  O572  1  0.84989640  0.65259895  0.67839024  1
  O2-  O573  1  0.84905500  0.95615991  0.04200154  1
  O2-  O574  1  0.83885379  0.93705148  0.36177142  1
  O2-  O575  1  0.83981643  0.92437936  0.69208188  1
