# generated using pymatgen
data_H2O
_symmetry_space_group_name_H-M   'P 1'
_cell_length_a   17.99466524
_cell_length_b   17.98894307
_cell_length_c   21.99518441
_cell_angle_alpha   89.99936480
_cell_angle_beta   90.00585886
_cell_angle_gamma   119.97545402
_symmetry_Int_Tables_number   1
_chemical_formula_structural   H2O
_chemical_formula_sum   'H384 O192'
_cell_volume   6167.58326847
_cell_formula_units_Z   192
loop_
 _symmetry_equiv_pos_site_id
 _symmetry_equiv_pos_as_xyz
  1  'x, y, z'
loop_
 _atom_type_symbol
 _atom_type_oxidation_number
  H+  1.0
  O2-  -2.0
loop_
 _atom_site_type_symbol
 _atom_site_label
 _atom_site_symmetry_multiplicity
 _atom_site_fract_x
 _atom_site_fract_y
 _atom_site_fract_z
 _atom_site_occupancy
  H+  H0  1  0.48148013  0.10429113  0.32938285  1
  H+  H1  1  0.38955841  0.36763907  0.99782040  1
  H+  H2  1  0.40369867  0.66536097  0.66539876  1
  H+  H3  1  0.72283331  0.62630004  0.49189721  1
  H+  H4  1  0.14894771  0.86910320  0.17003057  1
  H+  H5  1  -0.02820533  0.85610064  0.83959968  1
  H+  H6  1  0.36470257  0.47447582  0.83169255  1
  H+  H7  1  0.41144140  0.62183385  0.99699507  1
  H+  H8  1  0.40881058  0.54542906  0.65966683  1
  H+  H9  1  0.61604011  0.88899678  0.14539277  1
  H+  H10  1  0.88726699  0.00027470  0.32750761  1
  H+  H11  1  0.38834793  0.27540758  0.66655566  1
  H+  H12  1  0.61435213  0.72717011  0.15127748  1
  H+  H13  1  0.90380847  0.36719403  0.16626919  1
  H+  H14  1  0.62803391  0.77159047  0.48453572  1
  H+  H15  1  0.62243317  0.35280197  0.17757122  1
  H+  H16  1  0.86500432  0.88281458  0.83011836  1
  H+  H17  1  0.96556547  0.71753197  0.11782356  1
  H+  H18  1  0.36439650  0.88528077  0.35076424  1
  H+  H19  1  0.15184919  0.54482503  0.33751741  1
  H+  H20  1  0.61977013  0.84822399  -0.01080018  1
  H+  H21  1  0.36871782  0.13822513  0.82602189  1
  H+  H22  1  0.35682571  0.13722653  0.16694824  1
  H+  H23  1  -0.01155197  0.60816912  0.82078866  1
  H+  H24  1  0.05696896  0.15083075  0.73277148  1
  H+  H25  1  0.97323581  0.10602359  0.99266234  1
  H+  H26  1  0.22651225  0.49069432  0.38079930  1
  H+  H27  1  0.64228896  0.11691575  0.98724889  1
  H+  H28  1  0.77617967  0.13185763  0.15982039  1
  H+  H29  1  0.64035008  0.11353105  0.50129834  1
  H+  H30  1  0.77676287  0.28840973  0.26678626  1
  H+  H31  1  0.59047258  0.66580795  0.06133443  1
  H+  H32  1  0.29314165  1.02335876  0.21925170  1
  H+  H33  1  0.83173035  0.47815320  0.51329297  1
  H+  H34  1  0.11814784  0.89195153  1.00210160  1
  H+  H35  1  0.52343592  0.63877210  0.49090320  1
  H+  H36  1  0.14320628  0.37117524  0.32554304  1
  H+  H37  1  0.34501117  0.46406313  0.36302659  1
  H+  H38  1  0.73441230  0.61102332  0.99142793  1
  H+  H39  1  0.33457158  0.66073279  0.75738435  1
  H+  H40  1  0.40732738  1.02804538  -0.01049257  1
  H+  H41  1  0.89676724  0.74003114  0.14811944  1
  H+  H42  1  0.84885797  0.21068130  0.35156935  1
  H+  H43  1  0.35739908  0.09711741  0.65512032  1
  H+  H44  1  0.63899026  0.31544169  0.26461891  1
  H+  H45  1  0.26569477  0.65645693  0.35161132  1
  H+  H46  1  0.46502642  0.36309742  0.84924498  1
  H+  H47  1  0.61490484  0.39065706  0.66759901  1
  H+  H48  1  0.22741471  0.11672255  0.16541100  1
  H+  H49  1  0.60893166  0.21624940  0.34088682  1
  H+  H50  1  0.24575722  0.59202490  1.05628683  1
  H+  H51  1  0.85264592  0.44413098  0.78633465  1
  H+  H52  1  0.86219711  0.68380560  0.48481852  1
  H+  H53  1  -0.02119077  0.35430109  0.31738658  1
  H+  H54  1  0.12277149  0.88757511  0.49690052  1
  H+  H55  1  0.52172275  0.39187313  0.00643182  1
  H+  H56  1  0.63289561  0.64477090  0.67398229  1
  H+  H57  1  0.27695580  0.13463238  0.82873923  1
  H+  H58  1  0.64078033  0.52955497  0.49795456  1
  H+  H59  1  0.71490431  0.33180916  0.50770633  1
  H+  H60  1  0.50399759  0.63046891  0.66465857  1
  H+  H61  1  0.62875359  0.01224568  0.32446964  1
  H+  H62  1  0.64054621  0.35740164  0.51474543  1
  H+  H63  1  0.63561733  0.62507393  0.84194845  1
  H+  H64  1  0.00611598  0.88050577  0.32257887  1
  H+  H65  1  0.58305517  0.15913177  0.40146300  1
  H+  H66  1  0.11132520  0.22455320  0.15684001  1
  H+  H67  1  -0.03118911  0.06761901  0.50599744  1
  H+  H68  1  0.43333305  0.86719733  0.56599180  1
  H+  H69  1  0.00438429  0.61161693  -0.00542761  1
  H+  H70  1  0.13497792  0.10689925  0.16560686  1
  H+  H71  1  0.79085042  0.66374161  0.32814494  1
  H+  H72  1  -0.03235704  0.32223228  0.83246021  1
  H+  H73  1  0.89690243  0.64249077  0.32766821  1
  H+  H74  1  0.66976457  0.59052980  0.58918714  1
  H+  H75  1  0.37924074  0.13502475  0.35618701  1
  H+  H76  1  0.70622570  0.34545857  0.31757917  1
  H+  H77  1  0.72568748  0.86565146  0.16783686  1
  H+  H78  1  0.30137503  0.39490262  0.51289418  1
  H+  H79  1  0.40137088  0.25612451  0.51655137  1
  H+  H80  1  0.13054654  0.62272131  0.33037321  1
  H+  H81  1  0.64981767  0.53043986  0.64793035  1
  H+  H82  1  0.60115187  0.21874150  0.50028111  1
  H+  H83  1  0.30624172  0.90826526  0.83059996  1
  H+  H84  1  0.72605323  0.10702606  0.83379727  1
  H+  H85  1  0.09715672  0.46051912  -0.01195093  1
  H+  H86  1  0.10914315  0.97556173  0.00494651  1
  H+  H87  1  0.43564017  0.59779029  0.34129244  1
  H+  H88  1  0.58178013  0.87205286  0.32955579  1
  H+  H89  1  0.23318932  0.85784600  0.17052111  1
  H+  H90  1  0.13360702  0.35489908  -0.00827528  1
  H+  H91  1  0.27771609  0.90404022  0.49843861  1
  H+  H92  1  0.41375357  0.52323757  0.51589407  1
  H+  H93  1  0.75767626  0.86908021  0.66602389  1
  H+  H94  1  0.12126144  0.26391868  0.65741998  1
  H+  H95  1  0.89886104  0.77997446  0.64823298  1
  H+  H96  1  0.22735801  0.87401810  0.67051743  1
  H+  H97  1  0.39680490  0.52553386  0.16807989  1
  H+  H98  1  0.88156205  0.75681481  0.32838613  1
  H+  H99  1  0.04089457  0.14390500  0.34623365  1
  H+  H100  1  0.93986461  0.04652692  0.67794298  1
  H+  H101  1  0.62777699  0.12008551  0.82019768  1
  H+  H102  1  0.67089389  0.86679723  0.65376178  1
  H+  H103  1  0.86493461  0.84359761  0.17200381  1
  H+  H104  1  0.32061436  0.86478693  0.67398393  1
  H+  H105  1  0.19087855  0.75265413  0.86212956  1
  H+  H106  1  0.49584095  0.88027472  0.33430299  1
  H+  H107  1  0.24229386  0.38328286  0.84216893  1
  H+  H108  1  0.42290503  0.80835288  0.66136006  1
  H+  H109  1  0.86675090  0.22048190  0.15516288  1
  H+  H110  1  0.60018989  0.48882037  0.84069103  1
  H+  H111  1  0.27733620  0.89227086  0.34637080  1
  H+  H112  1  0.36651029  0.47855784  0.00648224  1
  H+  H113  1  0.61136020  -0.03013863  0.82516824  1
  H+  H114  1  0.12650359  0.27589337  0.32418273  1
  H+  H115  1  0.12139701  0.35246777  0.65776900  1
  H+  H116  1  0.64512388  0.13764977  0.66239800  1
  H+  H117  1  0.09127411  0.33504372  0.81415631  1
  H+  H118  1  0.09626111  0.17585742  0.52435082  1
  H+  H119  1  0.22511898  0.53098796  0.21684374  1
  H+  H120  1  0.65415115  0.98947697  0.65393962  1
  H+  H121  1  0.83056603  0.91557832  0.09915345  1
  H+  H122  1  0.24365697  0.63282524  0.05489464  1
  H+  H123  1  0.35428457  1.00338272  0.64843305  1
  H+  H124  1  0.81655032  0.90985234  0.30194852  1
  H+  H125  1  0.75735863  0.12661557  0.64899451  1
  H+  H126  1  0.02430572  0.67153484  0.50017939  1
  H+  H127  1  0.38754056  0.26968007  0.34056029  1
  H+  H128  1  0.35655755  0.74237322  0.35614199  1
  H+  H129  1  0.62905391  0.22298080  0.66949711  1
  H+  H130  1  0.36975850  0.39834391  0.66179160  1
  H+  H131  1  0.85872939  0.67087670  0.05456114  1
  H+  H132  1  0.96642640  0.35293360  0.99297675  1
  H+  H133  1  0.85519599  0.21095312  0.82681915  1
  H+  H134  1  0.88356549  0.10506705  0.99232246  1
  H+  H135  1  0.90277488  0.35871221  0.83957417  1
  H+  H136  1  0.68619528  0.84215822  0.33033775  1
  H+  H137  1  0.86004416  0.21773160  1.00562536  1
  H+  H138  1  0.86767763  0.63162291  0.65597399  1
  H+  H139  1  0.12758162  0.11414971  0.50099149  1
  H+  H140  1  0.26621264  0.13611569  0.67639853  1
  H+  H141  1  0.15181980  0.01297688  0.50981892  1
  H+  H142  1  0.13765369  0.02665682  0.84166621  1
  H+  H143  1  0.73072885  0.86951115  0.47463443  1
  H+  H144  1  0.64218027  0.77743844  0.83773483  1
  H+  H145  1  0.78632563  0.63841206  0.63440035  1
  H+  H146  1  0.27646374  0.38856373  1.00721817  1
  H+  H147  1  0.38267968  0.60462295  0.83561664  1
  H+  H148  1  0.88484824  0.85776800  0.99277610  1
  H+  H149  1  0.97882052  0.36253029  0.51497224  1
  H+  H150  1  0.11079571  0.88927034  0.83319738  1
  H+  H151  1  0.86412664  0.97516545  0.15919587  1
  H+  H152  1  0.40444083  1.03299469  0.82999732  1
  H+  H153  1  0.49040599  0.12099798  0.82939308  1
  H+  H154  1  0.43845900  0.08577921  0.92920244  1
  H+  H155  1  0.87254891  0.59920719  0.98009377  1
  H+  H156  1  0.63970661  0.10556924  0.32805640  1
  H+  H157  1  0.83934580  0.33363822  0.48809867  1
  H+  H158  1  0.09911563  0.21812488  0.82106075  1
  H+  H159  1  0.90079354  0.26477460  0.51588621  1
  H+  H160  1  0.35641541  0.38165077  0.35601649  1
  H+  H161  1  0.41062774  0.87574129  0.85819040  1
  H+  H162  1  0.56431512  0.90573672  0.65805989  1
  H+  H163  1  0.24563277  0.11608775  0.35263480  1
  H+  H164  1  0.73068870  0.11540636  -0.01637065  1
  H+  H165  1  0.88364208  0.58815920  0.52261926  1
  H+  H166  1  0.47888618  0.87765354  0.94626532  1
  H+  H167  1  0.34849037  0.74793358  0.50586985  1
  H+  H168  1  0.12224781  0.74063686  0.34380768  1
  H+  H169  1  0.40243087  0.61737629  0.17118170  1
  H+  H170  1  1.03295038  0.38926004  0.14677464  1
  H+  H171  1  0.14052927  0.36211270  0.16252620  1
  H+  H172  1  0.07083514  0.70221472  0.82576223  1
  H+  H173  1  0.89573129  0.81309888  0.50168487  1
  H+  H174  1  0.85785549  0.96870327  0.00368773  1
  H+  H175  1  0.12444746  0.62438317  0.52069419  1
  H+  H176  1  0.62184712  0.26212606  0.17720475  1
  H+  H177  1  0.28344972  0.40147688  0.66322888  1
  H+  H178  1  0.49229514  0.86664022  0.85107871  1
  H+  H179  1  0.15963426  0.31070389  0.50164464  1
  H+  H180  1  0.24652357  0.88020608  0.99320862  1
  H+  H181  1  0.38563689  0.36281592  0.18111216  1
  H+  H182  1  0.01303531  0.12856600  0.82832105  1
  H+  H183  1  -0.02623859  0.59750196  0.66748554  1
  H+  H184  1  0.36463772  1.03234695  0.50056585  1
  H+  H185  1  0.84561410  0.62062149  0.82590535  1
  H+  H186  1  0.56885363  0.90442494  0.08772052  1
  H+  H187  1  0.52647574  0.63581818  0.15233697  1
  H+  H188  1  0.33495590  0.68245010  0.63534425  1
  H+  H189  1  0.10754397  0.74391725  0.14548971  1
  H+  H190  1  0.69393837  0.09879547  0.58883649  1
  H+  H191  1  0.13541993  0.78211297  0.66438346  1
  H+  H192  1  0.17680672  0.84398019  0.57437440  1
  H+  H193  1  0.20574536  0.59851185  0.67161935  1
  H+  H194  1  0.10853909  0.22029854  1.00376817  1
  H+  H195  1  0.60341412  0.75319709  0.31957685  1
  H+  H196  1  0.21994377  0.11610015  -0.00053905  1
  H+  H197  1  0.57701885  0.61943659  0.33425490  1
  H+  H198  1  0.32317072  0.16881002  0.06930850  1
  H+  H199  1  0.52428060  0.64225660  0.82435463  1
  H+  H200  1  0.97686067  0.86199141  0.99194896  1
  H+  H201  1  0.08956929  0.49738290  0.80272181  1
  H+  H202  1  0.37855553  0.89196995  0.16335758  1
  H+  H203  1  0.38549991  0.74068458  0.17064779  1
  H+  H204  1  0.52307242  0.89729435  0.48702980  1
  H+  H205  1  0.85790597  0.12352018  0.82738818  1
  H+  H206  1  0.11735515  0.89162971  0.67984922  1
  H+  H207  1  0.19150878  0.81419406  0.81145455  1
  H+  H208  1  0.35389165  0.37996971  0.83678136  1
  H+  H209  1  0.53427180  0.38202759  0.50229577  1
  H+  H210  1  0.89118342  0.08530430  0.51089619  1
  H+  H211  1  0.61691980  0.13620680  0.16521849  1
  H+  H212  1  0.03534935  0.89421952  0.49498653  1
  H+  H213  1  0.48697194  0.60410067  0.98853435  1
  H+  H214  1  0.49955548  0.87781818  0.16812070  1
  H+  H215  1  0.86144948  0.46756027  0.69778003  1
  H+  H216  1  0.88696658  0.01773184  0.84101851  1
  H+  H217  1  0.61550277  0.47966069  0.00549106  1
  H+  H218  1  0.19724026  0.58995737  -0.02070482  1
  H+  H219  1  0.12750204  0.49386779  0.81310982  1
  H+  H220  1  1.00510306  0.37565129  0.66979187  1
  H+  H221  1  0.87956074  0.48033958  0.16524192  1
  H+  H222  1  0.11376585  0.49405747  0.50707898  1
  H+  H223  1  0.84800434  0.15572670  0.44449543  1
  H+  H224  1  0.89323397  0.90641074  0.67824596  1
  H+  H225  1  -0.01376257  0.86685153  0.66410495  1
  H+  H226  1  0.12522123  0.97602002  0.15650794  1
  H+  H227  1  0.64142976  0.02587290  0.49694386  1
  H+  H228  1  0.13811593  0.11484451  0.83867597  1
  H+  H229  1  0.35166030  0.22724566  0.01059935  1
  H+  H230  1  0.12584380  0.41166773  0.50777595  1
  H+  H231  1  0.62864049  0.21201387  0.80763979  1
  H+  H232  1  0.61770687  0.36663208  0.99097683  1
  H+  H233  1  0.35729499  0.61120243  0.35388856  1
  H+  H234  1  0.38967381  0.01794949  0.33743262  1
  H+  H235  1  0.92057138  0.59033102  0.23573294  1
  H+  H236  1  0.12358758  0.10485697  0.65690012  1
  H+  H237  1  0.64193826  0.02253138  0.16611897  1
  H+  H238  1  0.79063464  0.41912881  0.85019926  1
  H+  H239  1  0.10939293  0.59145006  0.98105238  1
  H+  H240  1  0.61452758  0.46822121  0.34531515  1
  H+  H241  1  0.86965183  0.72298071  0.99428828  1
  H+  H242  1  0.88112952  0.26816803  0.66745472  1
  H+  H243  1  0.06865572  0.65778578  0.04995378  1
  H+  H244  1  0.86231425  0.47353922  0.53463608  1
  H+  H245  1  0.24700911  0.09666751  0.51839822  1
  H+  H246  1  0.61763218  0.21895613  1.01901656  1
  H+  H247  1  0.89476178  0.14919956  0.67872405  1
  H+  H248  1  0.89926367  0.55394183  0.33622387  1
  H+  H249  1  0.76745471  0.88164441  0.00496787  1
  H+  H250  1  0.38096284  0.26890263  0.84338733  1
  H+  H251  1  0.84905040  -0.04250987  0.48135466  1
  H+  H252  1  0.67094161  0.57232155  0.26452698  1
  H+  H253  1  0.13513312  0.98645767  0.34610204  1
  H+  H254  1  0.72820548  0.53852378  0.29413208  1
  H+  H255  1  0.85890918  0.41325392  0.33066749  1
  H+  H256  1  0.39876651  0.90602165  0.01208070  1
  H+  H257  1  0.62446731  0.63704578  0.00343823  1
  H+  H258  1  0.10693475  0.13034467  1.00525768  1
  H+  H259  1  0.14869081  0.78419458  0.51414626  1
  H+  H260  1  0.85299366  0.37475982  1.00761709  1
  H+  H261  1  1.00675309  0.39265786  0.29772721  1
  H+  H262  1  0.45220494  0.75788943  0.02572315  1
  H+  H263  1  0.77799132  0.88709515  0.82716835  1
  H+  H264  1  0.43267873  0.90187258  0.66954610  1
  H+  H265  1  0.76685037  0.11874781  0.34420129  1
  H+  H266  1  0.72148993  0.61699879  0.83855889  1
  H+  H267  1  0.59722197  0.41121719  0.87225262  1
  H+  H268  1  0.14012027  0.63595618  0.83191811  1
  H+  H269  1  0.62459477  0.61110515  0.17914437  1
  H+  H270  1  0.66664616  0.35642885  0.83188032  1
  H+  H271  1  0.27833550  0.64812842  0.81611747  1
  H+  H272  1  0.36820962  0.23198633  0.16681118  1
  H+  H273  1  0.61469018  0.64435554  0.48233062  1
  H+  H274  1  0.88972770  0.11014965  0.17251879  1
  H+  H275  1  0.53068738  0.39694046  0.66788702  1
  H+  H276  1  0.15885528  0.11926872  0.34423194  1
  H+  H277  1  0.52979872  0.13014581  0.00538810  1
  H+  H278  1  0.41318529  0.33143588  0.93883829  1
  H+  H279  1  0.14875574  0.87110283  0.32516453  1
  H+  H280  1  0.85777891  0.71482920  0.82753015  1
  H+  H281  1  0.61619381  0.88487327  0.82590783  1
  H+  H282  1  0.86489744  0.50465617  -0.01251182  1
  H+  H283  1  0.89963162  0.12126206  0.32602942  1
  H+  H284  1  0.39638034  0.89384623  0.50871138  1
  H+  H285  1  0.27538198  0.38504146  0.16145425  1
  H+  H286  1  0.90016304  0.61546813  0.17018672  1
  H+  H287  1  0.51670917  0.38339135  0.16494221  1
  H+  H288  1  0.10358307  0.63603424  0.67437988  1
  H+  H289  1  0.93932513  0.33526458  0.22038582  1
  H+  H290  1  0.08141065  0.68249764  0.44060018  1
  H+  H291  1  0.42246478  0.32707946  0.60527210  1
  H+  H292  1  0.66993824  0.07295978  0.23032340  1
  H+  H293  1  0.91365494  0.82609954  0.89915537  1
  H+  H294  1  0.12377890  0.47625794  0.15159282  1
  H+  H295  1  0.17717653  0.57717806  0.23975656  1
  H+  H296  1  0.67132864  0.83565288  0.89755276  1
  H+  H297  1  0.93670650  0.46290839  0.37567160  1
  H+  H298  1  0.58870028  0.41071755  0.44113043  1
  H+  H299  1  0.63522401  0.76857323  0.99002856  1
  H+  H300  1  0.89788402  0.66139203  0.56903402  1
  H+  H301  1  0.67151131  0.58643090  0.93322311  1
  H+  H302  1  0.93648374  0.85708127  0.56516544  1
  H+  H303  1  0.16617263  0.07646238  0.60345040  1
  H+  H304  1  0.84234057  0.15940849  0.73366587  1
  H+  H305  1  0.38147803  0.07839818  0.57474575  1
  H+  H306  1  0.85701941  0.37777170  0.70253728  1
  H+  H307  1  0.15555388  0.33020258  0.22698869  1
  H+  H308  1  0.47200356  0.35959552  0.33673814  1
  H+  H309  1  0.91116290  0.82534173  0.22677144  1
  H+  H310  1  0.09435125  0.16824411  0.40771868  1
  H+  H311  1  0.83471583  0.41158117  0.11105817  1
  H+  H312  1  0.66814333  0.08994678  0.89592849  1
  H+  H313  1  0.34805858  0.41036237  0.44928606  1
  H+  H314  1  0.57638326  0.41443715  0.10516965  1
  H+  H315  1  0.38688543  0.68975568  0.07319644  1
  H+  H316  1  0.76341867  0.37119381  0.01453963  1
  H+  H317  1  0.18597530  0.84526147  0.93609490  1
  H+  H318  1  0.93284150  0.09742061  0.26453290  1
  H+  H319  1  0.59029402  0.67256859  0.76704483  1
  H+  H320  1  0.44359647  0.59363477  0.56878211  1
  H+  H321  1  0.81981761  0.91455560  0.41338482  1
  H+  H322  1  0.18484021  0.42193872  0.86795638  1
  H+  H323  1  0.86204395  0.93467911  0.73840505  1
  H+  H324  1  0.88877319  0.54684209  0.89908079  1
  H+  H325  1  0.91499006  0.07852880  0.90038343  1
  H+  H326  1  0.56672200  0.65987481  0.39669451  1
  H+  H327  1  0.07773070  0.16402759  0.09780604  1
  H+  H328  1  0.09392946  0.91307790  0.09951196  1
  H+  H329  1  0.62772140  0.86535046  0.48355487  1
  H+  H330  1  0.81067999  0.37114958  0.22626430  1
  H+  H331  1  0.35691376  0.96822550  0.16695006  1
  H+  H332  1  0.58081870  0.15752829  0.10699860  1
  H+  H333  1  0.21861824  0.63446456  0.52046212  1
  H+  H334  1  0.51053629  0.13454296  0.49476397  1
  H+  H335  1  0.09552165  0.46294585  0.67483491  1
  H+  H336  1  0.34078516  0.92241472  0.76055358  1
  H+  H337  1  0.67272779  0.32565956  0.60708283  1
  H+  H338  1  0.35236859  0.92286454  0.06702607  1
  H+  H339  1  0.72475691  0.35525361  0.67152845  1
  H+  H340  1  0.78592338  0.13147286  0.49958135  1
  H+  H341  1  0.08558949  0.91818442  0.77108482  1
  H+  H342  1  0.61753132  0.51786802  0.17945136  1
  H+  H343  1  0.35614854  0.15684966  0.42190965  1
  H+  H344  1  0.02862171  0.65795111  0.34366939  1
  H+  H345  1  0.33597167  0.41348660  0.10282436  1
  H+  H346  1  0.60200024  0.15317609  0.72960189  1
  H+  H347  1  0.11394057  0.97958559  0.68041590  1
  H+  H348  1  0.90123872  0.32802618  0.60893937  1
  H+  H349  1  0.17487656  0.62363121  0.89436617  1
  H+  H350  1  0.06431857  0.66289872  0.72964576  1
  H+  H351  1  0.90653506  0.31989009  0.93499227  1
  H+  H352  1  0.81688527  0.37578052  0.43315252  1
  H+  H353  1  0.09729050  0.91678381  0.39953879  1
  H+  H354  1  0.42020089  0.58563690  0.89727834  1
  H+  H355  1  0.17667231  0.83682078  0.26603171  1
  H+  H356  1  0.15534674  0.58429679  0.60792314  1
  H+  H357  1  0.02544560  0.65022780  0.15030066  1
  H+  H358  1  0.58188589  0.27625702  0.95728451  1
  H+  H359  1  0.64262995  0.73811220  0.67656315  1
  H+  H360  1  0.17202890  0.33301433  0.93473426  1
  H+  H361  1  0.31369535  0.68358766  0.45010663  1
  H+  H362  1  0.90736484  0.53722494  0.61689301  1
  H+  H363  1  0.33423724  0.93317532  0.43565505  1
  H+  H364  1  0.83145899  0.70280545  0.42213102  1
  H+  H365  1  0.38488309  0.06416186  0.24824974  1
  H+  H366  1  0.97982526  0.11209467  0.17125471  1
  H+  H367  1  0.08197516  0.41479196  0.05331472  1
  H+  H368  1  0.13799115  0.45362628  0.41652547  1
  H+  H369  1  0.32972986  0.16078359  0.73353307  1
  H+  H370  1  0.16496299  0.08570736  0.93735569  1
  H+  H371  1  0.36703407  0.81591973  0.28671178  1
  H+  H372  1  0.68075024  0.35936458  0.90633928  1
  H+  H373  1  0.60345027  0.37501834  0.34432572  1
  H+  H374  1  0.92214192  0.89016689  0.31986539  1
  H+  H375  1  0.05063712  0.35065350  0.75435023  1
  H+  H376  1  0.83009085  0.15575765  0.06354235  1
  H+  H377  1  0.41367927  0.33218920  0.24190580  1
  H+  H378  1  0.65677165  0.83105021  0.22268308  1
  H+  H379  1  0.45654238  0.85932059  0.23449294  1
  H+  H380  1  0.57197250  0.91825658  0.42266609  1
  H+  H381  1  0.39676580  0.34486604  0.51270844  1
  H+  H382  1  0.29735554  0.65040826  0.16714000  1
  H+  H383  1  0.17103265  0.34166640  0.57145518  1
  O2-  O384  1  0.07737872  0.16349248  0.14332223  1
  O2-  O385  1  0.08936840  0.13873120  0.49007365  1
  O2-  O386  1  0.07242158  0.15795852  0.80887286  1
  O2-  O387  1  0.09250771  0.42034269  0.12990997  1
  O2-  O388  1  0.09109633  0.43518219  0.48945698  1
  O2-  O389  1  0.03620393  0.31613645  0.79229589  1
  O2-  O390  1  0.06160518  0.69564613  0.12107158  1
  O2-  O391  1  0.08158371  0.68349176  0.48628218  1
  O2-  O392  1  0.04673042  0.64722451  0.80376622  1
  O2-  O393  1  0.10107671  0.91431999  0.14421637  1
  O2-  O394  1  0.09627598  0.91933995  0.47824506  1
  O2-  O395  1  0.08185950  0.91871394  0.81728036  1
  O2-  O396  1  0.33757481  0.17416745  0.14715994  1
  O2-  O397  1  0.35074104  0.14072551  0.50007625  1
  O2-  O398  1  0.33622949  0.16661632  0.81160444  1
  O2-  O399  1  0.33670554  0.41409840  0.14822346  1
  O2-  O400  1  0.35796426  0.41149843  0.49526993  1
  O2-  O401  1  0.32636232  0.41268593  0.82124545  1
  O2-  O402  1  0.35759993  0.68155860  0.15354073  1
  O2-  O403  1  0.31051323  0.68671966  0.49543720  1
  O2-  O404  1  0.31298262  0.62743361  0.79503425  1
  O2-  O405  1  0.34209934  0.91362786  0.14562622  1
  O2-  O406  1  0.33712375  0.94273166  0.48189366  1
  O2-  O407  1  0.35825517  0.93131567  0.80618557  1
  O2-  O408  1  0.58376305  0.16362129  0.15196102  1
  O2-  O409  1  0.57102767  0.15954837  0.48227863  1
  O2-  O410  1  0.59643687  0.15220972  0.79505535  1
  O2-  O411  1  0.57763653  0.41383562  0.15013651  1
  O2-  O412  1  0.59446296  0.41561702  0.48640762  1
  O2-  O413  1  0.57080102  0.42421932  0.83845805  1
  O2-  O414  1  0.58840218  0.66687564  0.13700593  1
  O2-  O415  1  0.58185660  0.67263480  0.46797428  1
  O2-  O416  1  0.58634516  0.67405172  0.81259665  1
  O2-  O417  1  0.58637387  0.92074853  0.13210956  1
  O2-  O418  1  0.58135743  0.92163106  0.46792308  1
  O2-  O419  1  0.57951572  0.90895370  0.81311928  1
  O2-  O420  1  0.83595653  0.15934995  0.14256991  1
  O2-  O421  1  0.84801424  0.15743487  0.48945290  1
  O2-  O422  1  0.82649757  0.15174594  0.80962720  1
  O2-  O423  1  0.85339230  0.41784731  0.15397318  1
  O2-  O424  1  0.79090455  0.33111392  0.46462077  1
  O2-  O425  1  0.85804532  0.45226840  0.83462754  1
  O2-  O426  1  0.90349011  0.69550137  0.12369073  1
  O2-  O427  1  0.82284933  0.70183259  0.46720340  1
  O2-  O428  1  0.82115049  0.65543396  0.81178339  1
  O2-  O429  1  0.82901377  0.91476247  0.14468207  1
  O2-  O430  1  0.80755739  0.90332229  0.45740124  1
  O2-  O431  1  0.84033413  0.91834458  0.81483399  1
  O2-  O432  1  0.16700271  0.07789576  0.17774781  1
  O2-  O433  1  0.18403070  0.07246680  0.52857007  1
  O2-  O434  1  0.17028853  0.08766299  0.85506973  1
  O2-  O435  1  0.16772339  0.33179367  0.18201418  1
  O2-  O436  1  0.18433677  0.36146210  0.52747935  1
  O2-  O437  1  0.17939111  0.36616476  0.85946517  1
  O2-  O438  1  0.19535637  0.56001012  0.20141978  1
  O2-  O439  1  0.15672268  0.59669908  0.53642193  1
  O2-  O440  1  0.19266236  0.66076203  0.85699106  1
  O2-  O441  1  0.17418986  0.83318362  0.18734938  1
  O2-  O442  1  0.18081495  0.84487709  0.52879095  1
  O2-  O443  1  0.17500146  0.79854696  0.85383494  1
  O2-  O444  1  0.35353453  0.04949150  0.20800795  1
  O2-  O445  1  0.39376063  0.09313788  0.52174694  1
  O2-  O446  1  0.43175699  0.09322476  0.84639472  1
  O2-  O447  1  0.41679823  0.33343087  0.19650905  1
  O2-  O448  1  0.43042539  0.31793604  0.52815252  1
  O2-  O449  1  0.40369188  0.32672908  0.86245396  1
  O2-  O450  1  0.43348936  0.58620963  0.18075897  1
  O2-  O451  1  0.44020300  0.58578984  0.52385878  1
  O2-  O452  1  0.42046812  0.58325689  0.85183038  1
  O2-  O453  1  0.44234535  0.84938148  0.19117289  1
  O2-  O454  1  0.42503970  0.86099367  0.52116007  1
  O2-  O455  1  0.43914402  0.84737036  0.87724118  1
  O2-  O456  1  0.67466902  0.08043072  0.18540340  1
  O2-  O457  1  0.67438564  0.08604074  0.51291582  1
  O2-  O458  1  0.66530471  0.08318511  0.84842385  1
  O2-  O459  1  0.64796956  0.32063157  0.19678801  1
  O2-  O460  1  0.66211942  0.31975005  0.53151858  1
  O2-  O461  1  0.70735569  0.38453622  0.86484002  1
  O2-  O462  1  0.64123342  0.57331695  0.20153106  1
  O2-  O463  1  0.66375391  0.59090436  0.50930700  1
  O2-  O464  1  0.66304748  0.59188176  0.85783441  1
  O2-  O465  1  0.66272835  0.83534015  0.17793533  1
  O2-  O466  1  0.66151956  0.83585952  0.49404111  1
  O2-  O467  1  0.67645230  0.83825973  0.85222776  1
  O2-  O468  1  0.92018030  0.08109651  0.18960481  1
  O2-  O469  1  0.90796852  0.04134138  0.51766453  1
  O2-  O470  1  0.91562628  0.07971300  0.85450709  1
  O2-  O471  1  0.93217167  0.33175422  0.17624452  1
  O2-  O472  1  0.91919670  0.32446329  0.52982495  1
  O2-  O473  1  0.91489481  0.31543190  0.85572538  1
  O2-  O474  1  0.91970297  0.57891344  0.19134080  1
  O2-  O475  1  0.92020722  0.64977581  0.52978432  1
  O2-  O476  1  0.88773939  0.54333252  0.84898738  1
  O2-  O477  1  0.87592867  0.79957218  0.19008621  1
  O2-  O478  1  0.94328876  0.86480715  0.52035796  1
  O2-  O479  1  0.91122760  0.82318494  0.85348460  1
  O2-  O480  1  0.18697959  0.08534543  0.33511875  1
  O2-  O481  1  0.16021026  0.07932944  0.64881162  1
  O2-  O482  1  0.15893413  0.08245618  0.98227724  1
  O2-  O483  1  0.12554911  0.32099325  0.29898585  1
  O2-  O484  1  0.15408072  0.32416366  0.64344140  1
  O2-  O485  1  0.16786917  0.32728485  0.97996983  1
  O2-  O486  1  0.16384473  0.59657674  0.31333036  1
  O2-  O487  1  0.14850439  0.57458927  0.65406642  1
  O2-  O488  1  0.14157453  0.56453308  0.95897935  1
  O2-  O489  1  0.17758643  0.83802157  0.31173286  1
  O2-  O490  1  0.16542896  0.84289328  0.65127059  1
  O2-  O491  1  0.18651518  0.85715657  0.97942089  1
  O2-  O492  1  0.41928524  0.07764932  0.31914724  1
  O2-  O493  1  0.37775456  0.06320813  0.63038494  1
  O2-  O494  1  0.44292961  0.08779888  0.97407192  1
  O2-  O495  1  0.41150703  0.32770618  0.32209374  1
  O2-  O496  1  0.41991248  0.33468796  0.65012614  1
  O2-  O497  1  0.42121083  0.33786161  0.98414338  1
  O2-  O498  1  0.37247765  0.56722686  0.34096909  1
  O2-  O499  1  0.44413173  0.60767018  0.64834290  1
  O2-  O500  1  0.42518237  0.57899219  0.97705536  1
  O2-  O501  1  0.39930636  0.83393280  0.32461542  1
  O2-  O502  1  0.45087807  0.86833770  0.64496056  1
  O2-  O503  1  0.49810481  0.90641163  0.98771874  1
  O2-  O504  1  0.66872478  0.07389462  0.31292690  1
  O2-  O505  1  0.69705097  0.10329918  0.63437962  1
  O2-  O506  1  0.67550132  0.09723124  0.96240545  1
  O2-  O507  1  0.64397513  0.31686892  0.31223100  1
  O2-  O508  1  0.66772111  0.31986702  0.65292637  1
  O2-  O509  1  0.63621790  0.32601010  0.96952554  1
  O2-  O510  1  0.69507425  0.56555467  0.30609593  1
  O2-  O511  1  0.68214235  0.59195100  0.63353293  1
  O2-  O512  1  0.67277647  0.58049863  0.97876605  1
  O2-  O513  1  0.63485343  0.81492468  0.30517569  1
  O2-  O514  1  0.69957818  0.83159310  0.65013431  1
  O2-  O515  1  0.66167173  0.83006012  0.97647315  1
  O2-  O516  1  0.93548235  0.09761559  0.31048628  1
  O2-  O517  1  0.96955299  0.11045454  0.66597677  1
  O2-  O518  1  0.91293420  0.07409423  0.97640098  1
  O2-  O519  1  0.81111627  0.35074518  0.26834025  1
  O2-  O520  1  0.89943377  0.32854056  0.65441437  1
  O2-  O521  1  0.90448563  0.32358175  0.98016723  1
  O2-  O522  1  0.92586868  0.60944501  0.31429203  1
  O2-  O523  1  0.91051725  0.55537077  0.65907560  1
  O2-  O524  1  0.89279000  0.55930897  0.96349566  1
  O2-  O525  1  0.94584888  0.85419800  0.30549375  1
  O2-  O526  1  0.92835544  0.84352714  0.64512792  1
  O2-  O527  1  0.91617549  0.82946512  0.97607525  1
  O2-  O528  1  0.07499750  0.16031034  0.01941234  1
  O2-  O529  1  0.09988360  0.17549186  0.36310874  1
  O2-  O530  1  0.05909453  0.15062647  0.68660505  1
  O2-  O531  1  0.07256595  0.40336456  0.00851922  1
  O2-  O532  1  0.16471039  0.46619064  0.37507395  1
  O2-  O533  1  0.06638223  0.40032087  0.68292063  1
  O2-  O534  1  0.06404796  0.63440756  0.00810569  1
  O2-  O535  1  0.08712418  0.68119369  0.36171832  1
  O2-  O536  1  0.07109814  0.66619313  0.68427237  1
  O2-  O537  1  0.07967679  0.91360159  0.01680761  1
  O2-  O538  1  0.10096228  0.92159517  0.35421480  1
  O2-  O539  1  0.08586501  0.91997925  0.69764625  1
  O2-  O540  1  0.31420537  0.16770609  0.02465793  1
  O2-  O541  1  0.35383570  0.16645801  0.37711844  1
  O2-  O542  1  0.32767764  0.16070219  0.68797718  1
  O2-  O543  1  0.33633746  0.41820024  0.02302471  1
  O2-  O544  1  0.32652644  0.40586317  0.37957698  1
  O2-  O545  1  0.34588910  0.43734362  0.66593361  1
  O2-  O546  1  0.40278665  0.69742331  0.02977391  1
  O2-  O547  1  0.32165589  0.68102921  0.37299008  1
  O2-  O548  1  0.37052300  0.69766321  0.67174875  1
  O2-  O549  1  0.35626846  0.92406290  0.02171879  1
  O2-  O550  1  0.33561992  0.92136955  0.36549924  1
  O2-  O551  1  0.31956028  0.91445553  0.69064836  1
  O2-  O552  1  0.58854807  0.15744839  0.02735409  1
  O2-  O553  1  0.58682907  0.15639033  0.35635803  1
  O2-  O554  1  0.60647031  0.15985990  0.68141044  1
  O2-  O555  1  0.58360359  0.41845641  0.02032855  1
  O2-  O556  1  0.57937772  0.40972134  0.36260763  1
  O2-  O557  1  0.59375237  0.43061385  0.67493671  1
  O2-  O558  1  0.59176038  0.66606137  0.01545350  1
  O2-  O559  1  0.55705176  0.65671043  0.35061138  1
  O2-  O560  1  0.60499436  0.67598012  0.69094960  1
  O2-  O561  1  0.53222043  0.85857495  0.02085946  1
  O2-  O562  1  0.56048370  0.90971205  0.34523259  1
  O2-  O563  1  0.62614433  0.92798065  0.66340043  1
  O2-  O564  1  0.83154579  0.15619595  0.01812894  1
  O2-  O565  1  0.82776192  0.15032502  0.36045526  1
  O2-  O566  1  0.85233221  0.16738684  0.68849007  1
  O2-  O567  1  0.82434108  0.40642395  0.02432203  1
  O2-  O568  1  0.87878391  0.45160883  0.36707869  1
  O2-  O569  1  0.83223234  0.41157760  0.72108770  1
  O2-  O570  1  0.84227801  0.66250867  0.01012735  1
  O2-  O571  1  0.84862918  0.69717320  0.34677752  1
  O2-  O572  1  0.85161041  0.66832963  0.63273579  1
  O2-  O573  1  0.82786802  0.90887852  0.02019284  1
  O2-  O574  1  0.85421607  0.93567143  0.33678308  1
  O2-  O575  1  0.87452638  0.94666048  0.69399591  1
