# generated using pymatgen
data_H2O
_symmetry_space_group_name_H-M   'P 1'
_cell_length_a   17.98770945
_cell_length_b   17.99721413
_cell_length_c   22.00215891
_cell_angle_alpha   89.98441525
_cell_angle_beta   90.00978922
_cell_angle_gamma   120.02641378
_symmetry_Int_Tables_number   1
_chemical_formula_structural   H2O
_chemical_formula_sum   'H384 O192'
_cell_volume   6166.82189354
_cell_formula_units_Z   192
loop_
 _symmetry_equiv_pos_site_id
 _symmetry_equiv_pos_as_xyz
  1  'x, y, z'
loop_
 _atom_type_symbol
 _atom_type_oxidation_number
  H+  1.0
  O2-  -2.0
loop_
 _atom_site_type_symbol
 _atom_site_label
 _atom_site_symmetry_multiplicity
 _atom_site_fract_x
 _atom_site_fract_y
 _atom_site_fract_z
 _atom_site_occupancy
  H+  H0  1  0.21897072  0.82225794  0.27463588  1
  H+  H1  1  0.59824856  0.95763668  0.00964398  1
  H+  H2  1  0.63128173  0.01291661  0.51711429  1
  H+  H3  1  0.86941110  0.61198951  0.16296383  1
  H+  H4  1  0.51346117  0.65371189  0.47550397  1
  H+  H5  1  0.57294538  0.40868632  0.11574766  1
  H+  H6  1  1.11110130  0.38587468  1.00160549  1
  H+  H7  1  0.26328832  0.13954463  0.66786814  1
  H+  H8  1  0.27535883  0.63194155  0.15116096  1
  H+  H9  1  0.04192853  0.37500133  0.32308960  1
  H+  H10  1  0.42257558  0.81996110  0.22584315  1
  H+  H11  1  0.28786386  0.13798146  0.34730721  1
  H+  H12  1  0.26595485  0.72167710  0.37656777  1
  H+  H13  1  0.21904094  0.85713754  0.67035885  1
  H+  H14  1  0.13592231  0.86775127  0.66489699  1
  H+  H15  1  0.81633848  0.59721050  0.65835057  1
  H+  H16  1  0.72431854  0.10948692  0.17000456  1
  H+  H17  1  0.84684447  0.92062582  0.42581660  1
  H+  H18  1  0.13933750  0.87298490  0.00076540  1
  H+  H19  1  0.12213118  0.63414207  -0.01471173  1
  H+  H20  1  0.47357226  0.60775706  0.00273668  1
  H+  H21  1  0.82650947  0.65058353  0.54643898  1
  H+  H22  1  0.36508698  0.47691571  0.15279530  1
  H+  H23  1  0.73406324  0.61303627  1.00973006  1
  H+  H24  1  0.21173237  0.43893437  0.21979638  1
  H+  H25  1  0.71121161  0.36476493  0.67457079  1
  H+  H26  1  0.24051809  0.61118930  0.51183834  1
  H+  H27  1  0.72702099  0.36557705  -0.00496386  1
  H+  H28  1  0.61224924  0.63726250  0.02153618  1
  H+  H29  1  0.85312519  -0.03970216  0.65798291  1
  H+  H30  1  0.36460113  0.38405536  0.48049731  1
  H+  H31  1  0.46970925  0.61107247  0.17027299  1
  H+  H32  1  0.34050890  0.54954379  0.63167368  1
  H+  H33  1  0.62927926  0.62587934  0.82957409  1
  H+  H34  1  0.52016793  0.88522564  0.15997210  1
  H+  H35  1  0.20885399  0.51247222  0.67079605  1
  H+  H36  1  0.85061464  0.20294788  0.52982825  1
  H+  H37  1  1.03562997  0.39761857  0.47470292  1
  H+  H38  1  0.10284126  0.67169791  0.89901763  1
  H+  H39  1  0.52314349  0.87173845  0.67371207  1
  H+  H40  1  0.82126292  0.48215606  0.68011686  1
  H+  H41  1  0.77375903  0.64359935  0.81401723  1
  H+  H42  1  0.12196232  0.13432646  0.48295586  1
  H+  H43  1  1.07112169  0.65505577  0.22149972  1
  H+  H44  1  0.28079604  0.38973081  0.84412995  1
  H+  H45  1  0.39045062  0.35714201  0.99663885  1
  H+  H46  1  0.62456855  0.49256952  0.82229314  1
  H+  H47  1  0.60605000  0.64095349  0.16961624  1
  H+  H48  1  0.97908565  0.36774154  0.99078095  1
  H+  H49  1  0.17292172  0.83376895  0.57532583  1
  H+  H50  1  0.37946532  0.14297423  0.81506111  1
  H+  H51  1  0.12648825  0.15061139  -0.02868299  1
  H+  H52  1  0.61813063  0.22688289  0.33814750  1
  H+  H53  1  0.62210294  0.55270786  0.48643891  1
  H+  H54  1  0.87351775  0.19302496  0.67859837  1
  H+  H55  1  0.22061482  0.33668660  0.66803997  1
  H+  H56  1  0.97043025  0.09394423  0.64968358  1
  H+  H57  1  0.63329708  0.02192984  0.16864118  1
  H+  H58  1  0.89170548  0.77820408  0.50611925  1
  H+  H59  1  0.47216715  0.36658149  0.50020350  1
  H+  H60  1  0.87791073  0.60953652  0.83483828  1
  H+  H61  1  0.87635792  0.08360359  0.64946827  1
  H+  H62  1  0.23831145  0.10681169  0.50590857  1
  H+  H63  1  0.61504495  0.38274757  0.02087387  1
  H+  H64  1  0.62756962  0.25126675  0.67411992  1
  H+  H65  1  0.36508984  0.75347743  0.00292464  1
  H+  H66  1  -0.02241932  0.10376953  0.32713166  1
  H+  H67  1  0.39349804  0.78239306  0.67304190  1
  H+  H68  1  0.37292785  0.39678143  0.83731705  1
  H+  H69  1  0.88746339  0.00484174  0.98193698  1
  H+  H70  1  0.57714280  0.90618362  0.07112865  1
  H+  H71  1  0.73266530  0.53747031  0.69273271  1
  H+  H72  1  0.96156664  0.09185915  0.18723332  1
  H+  H73  1  0.62481891  0.52157608  0.17815035  1
  H+  H74  1  0.30529153  0.89439243  0.34598568  1
  H+  H75  1  0.34516736  0.67310477  0.75829332  1
  H+  H76  1  0.36770840  0.88899274  0.99988878  1
  H+  H77  1  0.45868627  0.84087176  -0.00131710  1
  H+  H78  1  0.90250488  0.28912916  0.44969731  1
  H+  H79  1  0.88341668  0.99167831  0.49046517  1
  H+  H80  1  0.75716789  0.12856281  0.82858449  1
  H+  H81  1  -0.01101050  0.11406747  0.49580429  1
  H+  H82  1  0.38579657  0.35388264  0.66063387  1
  H+  H83  1  0.61123074  0.95592045  0.67256527  1
  H+  H84  1  0.86989350  0.27963259  0.18319448  1
  H+  H85  1  0.28680565  0.60906751  0.67247639  1
  H+  H86  1  0.24386812  0.39348971  0.17394323  1
  H+  H87  1  0.93431081  0.32329048  0.64455868  1
  H+  H88  1  0.87000801  0.08404956  0.18101802  1
  H+  H89  1  0.97755432  0.85991699  0.99136183  1
  H+  H90  1  0.85560049  0.87458530  0.66776705  1
  H+  H91  1  0.14375674  0.02760268  0.83472107  1
  H+  H92  1  0.65353139  0.33453447  0.90444401  1
  H+  H93  1  0.86863011  0.25995814  0.83870654  1
  H+  H94  1  0.39244476  0.76038829  0.16516980  1
  H+  H95  1  0.28802122  0.90420155  1.00211263  1
  H+  H96  1  0.10658286  0.97865043  0.16047460  1
  H+  H97  1  0.87665238  0.09911060  0.83247924  1
  H+  H98  1  0.71469386  0.35960619  0.17013986  1
  H+  H99  1  0.09181040  0.88386560  0.14996056  1
  H+  H100  1  0.62405848  0.35737105  0.17757580  1
  H+  H101  1  0.61493771  0.43083835  0.47752996  1
  H+  H102  1  0.23417004  0.11247823  -0.01171881  1
  H+  H103  1  0.85106744  0.46849959  0.32313788  1
  H+  H104  1  0.62461035  1.01790107  0.84217296  1
  H+  H105  1  0.48037292  0.35960846  1.00344009  1
  H+  H106  1  0.23637219  0.86445277  0.51692096  1
  H+  H107  1  0.88548707  0.85370421  0.98931981  1
  H+  H108  1  0.61575524  0.47095660  0.03072600  1
  H+  H109  1  0.61182520  0.72486693  0.01037752  1
  H+  H110  1  0.88762563  0.52276305  -0.00600121  1
  H+  H111  1  0.89636141  0.77470864  0.65350758  1
  H+  H112  1  0.52267991  0.86594507  0.50683991  1
  H+  H113  1  0.95665245  0.60440726  0.16771327  1
  H+  H114  1  -0.03947971  0.84329727  0.33427016  1
  H+  H115  1  0.85290683  0.86528254  0.15555517  1
  H+  H116  1  0.59507413  0.62406525  0.32971845  1
  H+  H117  1  0.48777569  0.11932363  0.32785626  1
  H+  H118  1  0.38176129  0.13610240  0.50300220  1
  H+  H119  1  0.34881994  0.16530836  0.40633000  1
  H+  H120  1  1.00575737  0.31326417  0.67623880  1
  H+  H121  1  1.01826431  0.12553526  0.83696063  1
  H+  H122  1  0.14580602  0.78714925  -0.01038122  1
  H+  H123  1  0.89266846  0.37215184  0.44427304  1
  H+  H124  1  0.39061827  0.51782346  0.48514658  1
  H+  H125  1  0.63082983  0.51568285  0.32504566  1
  H+  H126  1  0.77477024  0.12267427  0.67072090  1
  H+  H127  1  0.61172878  0.89190806  0.83267383  1
  H+  H128  1  0.35750794  0.83622932  0.84954783  1
  H+  H129  1  0.90268066  0.61094929  0.49803068  1
  H+  H130  1  0.07427146  0.44712183  0.70714069  1
  H+  H131  1  0.39723519  0.11888832  0.33242920  1
  H+  H132  1  0.12297513  0.57768718  0.85801929  1
  H+  H133  1  0.09298360  0.20633173  0.66954556  1
  H+  H134  1  0.60921091  0.89570653  0.36979494  1
  H+  H135  1  0.57877169  0.71921953  0.67625734  1
  H+  H136  1  0.35481296  0.45077197  0.67544567  1
  H+  H137  1  0.07843788  0.73756694  0.68362800  1
  H+  H138  1  0.38529547  0.98890351  0.34147645  1
  H+  H139  1  0.78908557  0.14875197  0.01796376  1
  H+  H140  1  0.71868820  0.35975522  0.32328585  1
  H+  H141  1  0.62302911  0.77315304  0.84090832  1
  H+  H142  1  0.86482690  0.47525357  0.48457595  1
  H+  H143  1  0.92566247  0.08160188  0.55533222  1
  H+  H144  1  0.63043964  0.84168958  0.65137862  1
  H+  H145  1  0.37977033  0.88794648  0.15183321  1
  H+  H146  1  0.27221807  0.89049148  0.83491335  1
  H+  H147  1  0.83362507  0.90057844  0.06078611  1
  H+  H148  1  0.35890734  0.88869404  0.67774392  1
  H+  H149  1  0.95914667  0.36430205  0.17728803  1
  H+  H150  1  0.85349563  0.72526120  0.16088451  1
  H+  H151  1  0.12104335  0.87730160  0.50256962  1
  H+  H152  1  0.64118458  0.25198458  0.51031489  1
  H+  H153  1  0.80270086  0.90338093  0.75665302  1
  H+  H154  1  0.13374938  0.35533168  0.88059725  1
  H+  H155  1  1.01087283  0.62073885  0.30998947  1
  H+  H156  1  0.58353090  0.12223624  0.68669860  1
  H+  H157  1  0.68338098  0.70985262  0.62414294  1
  H+  H158  1  0.41906909  0.87924532  0.32164495  1
  H+  H159  1  0.67838803  0.10637173  0.92780729  1
  H+  H160  1  0.07882602  0.56917724  0.63712361  1
  H+  H161  1  0.38465548  0.26651390  0.65410215  1
  H+  H162  1  0.84649761  0.46603100  0.83161150  1
  H+  H163  1  0.37890371  0.60691869  0.16041072  1
  H+  H164  1  0.14271849  0.35109135  0.67276204  1
  H+  H165  1  0.27878416  0.13147327  0.15596303  1
  H+  H166  1  0.11466337  0.89904932  0.82490285  1
  H+  H167  1  0.35369820  0.74863505  0.34286248  1
  H+  H168  1  0.98721887  0.86200855  0.50370747  1
  H+  H169  1  0.61096290  0.13732979  0.16051009  1
  H+  H170  1  0.23745290  0.11240699  0.83568301  1
  H+  H171  1  0.86694007  0.72731119  0.00375112  1
  H+  H172  1  0.89694523  0.77773409  0.83186200  1
  H+  H173  1  0.10143707  0.61724267  0.31011299  1
  H+  H174  1  0.86560935  0.63678850  1.00838517  1
  H+  H175  1  0.35255830  0.97425036  0.67789138  1
  H+  H176  1  0.62888457  0.77371996  0.18784522  1
  H+  H177  1  0.41590382  0.33243137  0.56156692  1
  H+  H178  1  0.17831538  0.08243292  0.92686630  1
  H+  H179  1  0.41336736  0.82776001  0.60694526  1
  H+  H180  1  0.62245254  0.15143392  1.00703322  1
  H+  H181  1  0.13905647  0.27060148  0.96375864  1
  H+  H182  1  0.38666160  0.51644358  -0.00109239  1
  H+  H183  1  0.63519813  0.85422465  0.99568161  1
  H+  H184  1  1.12256276  0.63097920  0.51445315  1
  H+  H185  1  0.13364636  0.35327722  0.48254700  1
  H+  H186  1  1.03264689  0.63624647  0.98067651  1
  H+  H187  1  0.39516745  0.28038774  0.32308466  1
  H+  H188  1  0.12635067  0.51309531  0.15929510  1
  H+  H189  1  0.08490682  0.15308775  0.39048705  1
  H+  H190  1  0.57599901  0.48369266  0.67777211  1
  H+  H191  1  0.50855056  0.62994949  0.83621969  1
  H+  H192  1  0.61564263  0.10355543  0.84561304  1
  H+  H193  1  0.51623076  0.38550559  0.67180161  1
  H+  H194  1  0.48757776  0.11833408  0.98616001  1
  H+  H195  1  0.53301611  0.00002716  0.64351546  1
  H+  H196  1  0.87158851  0.75630756  0.33028234  1
  H+  H197  1  0.15425199  0.88448440  0.33854862  1
  H+  H198  1  0.35777255  0.38382739  0.16160903  1
  H+  H199  1  0.02725660  0.89210733  0.67151327  1
  H+  H200  1  0.61087163  0.67985949  0.47087972  1
  H+  H201  1  0.76098201  0.62110346  0.33510386  1
  H+  H202  1  0.52491566  0.13210775  0.49549576  1
  H+  H203  1  0.10480311  0.76146765  0.15820036  1
  H+  H204  1  0.61128185  0.22786676  0.16130582  1
  H+  H205  1  0.10487207  0.22050827  0.17778759  1
  H+  H206  1  0.13571916  0.02263274  0.65659805  1
  H+  H207  1  0.14352387  0.51322018  0.31062303  1
  H+  H208  1  0.48694408  0.12741688  0.17592895  1
  H+  H209  1  0.08752728  0.18205372  0.24332188  1
  H+  H210  1  0.34712081  0.62211717  0.84116870  1
  H+  H211  1  0.41915573  0.68132855  0.71414598  1
  H+  H212  1  0.97074536  0.86305333  0.17572216  1
  H+  H213  1  0.88349155  0.89829541  0.49420180  1
  H+  H214  1  0.08620899  0.17307586  -0.08683981  1
  H+  H215  1  0.40187726  0.02846546  0.97662653  1
  H+  H216  1  0.64105986  0.33786309  0.52569314  1
  H+  H217  1  0.15905204  0.02257368  0.33236789  1
  H+  H218  1  0.96387400  0.60595882  0.84451449  1
  H+  H219  1  0.27453318  0.38164989  -0.00132416  1
  H+  H220  1  0.37369982  0.13513886  -0.00133189  1
  H+  H221  1  0.91476936  0.33197307  0.93274045  1
  H+  H222  1  0.21422748  0.58332920  0.84836026  1
  H+  H223  1  0.09022348  0.39978961  0.76252362  1
  H+  H224  1  0.11486854  0.47635218  0.01125799  1
  H+  H225  1  0.11454939  -0.01791111  1.00213305  1
  H+  H226  1  0.85866950  0.87679013  0.34922573  1
  H+  H227  1  0.62845530  0.10039530  0.51031835  1
  H+  H228  1  0.85942134  0.11433765  0.33006745  1
  H+  H229  1  0.77869033  0.38234194  0.48889876  1
  H+  H230  1  0.23446304  0.61242700  1.00656740  1
  H+  H231  1  0.57016236  0.63095275  0.67355315  1
  H+  H232  1  0.94608424  0.61625517  0.65791315  1
  H+  H233  1  0.91785518  0.20654040  0.15825248  1
  H+  H234  1  0.45342194  0.59354760  0.31639229  1
  H+  H235  1  0.44035571  0.58906716  0.65022948  1
  H+  H236  1  0.13318400  0.38261126  0.32907013  1
  H+  H237  1  0.84289526  0.47255443  0.15256897  1
  H+  H238  1  0.36014083  0.46578905  0.32680448  1
  H+  H239  1  0.63038247  0.88404920  0.29999011  1
  H+  H240  1  0.37586818  0.22211004  0.49910011  1
  H+  H241  1  0.11004297  0.61605963  0.63240158  1
  H+  H242  1  0.93046972  0.42734333  0.68441644  1
  H+  H243  1  0.64435265  0.01467413  0.31507699  1
  H+  H244  1  0.12898413  0.75129115  0.30296479  1
  H+  H245  1  0.60028619  0.38193083  0.33694852  1
  H+  H246  1  0.34887140  0.13324361  0.66681249  1
  H+  H247  1  0.38087080  0.27549772  0.17688662  1
  H+  H248  1  0.73498155  0.19692690  0.95620159  1
  H+  H249  1  0.37222887  0.22279407  0.00453520  1
  H+  H250  1  0.87384545  0.23875689  0.01762248  1
  H+  H251  1  0.47481972  0.05075575  0.55325405  1
  H+  H252  1  1.00753530  0.36000889  0.84049936  1
  H+  H253  1  0.87206160  0.35119741  0.83713993  1
  H+  H254  1  0.49128349  0.38736682  0.84302031  1
  H+  H255  1  0.11215417  0.13460086  0.83860137  1
  H+  H256  1  0.12168822  0.71883832  0.50882073  1
  H+  H257  1  0.24321180  0.35174024  0.32620760  1
  H+  H258  1  0.86654924  0.97053696  0.34746226  1
  H+  H259  1  0.37799701  -0.02012426  0.50584719  1
  H+  H260  1  0.14573446  0.11430456  0.18700255  1
  H+  H261  1  0.14842579  0.01843934  0.50382810  1
  H+  H262  1  0.38711654  0.76546846  0.51106324  1
  H+  H263  1  0.09589224  0.12050909  0.66589581  1
  H+  H264  1  0.12398277  0.78844930  0.85611575  1
  H+  H265  1  1.02356925  0.89349311  0.82271326  1
  H+  H266  1  0.51133806  0.38357965  0.17403104  1
  H+  H267  1  0.35906692  -0.06871628  0.09831266  1
  H+  H268  1  0.09912128  0.44623074  0.84834821  1
  H+  H269  1  0.63613135  0.27733960  0.99843942  1
  H+  H270  1  0.70788104  0.63851736  0.64446128  1
  H+  H271  1  0.88407744  0.39255176  0.68138834  1
  H+  H272  1  0.39052505  0.12897296  0.17393505  1
  H+  H273  1  0.49437754  0.85747316  0.31597922  1
  H+  H274  1  0.38305342  0.52055843  0.84964922  1
  H+  H275  1  0.09987078  0.61884053  0.16810231  1
  H+  H276  1  0.08483444  0.92363656  0.73242426  1
  H+  H277  1  0.86401704  0.38611735  0.00210667  1
  H+  H278  1  0.97089098  0.09644994  0.97044307  1
  H+  H279  1  0.86606848  0.21296066  0.32638060  1
  H+  H280  1  0.61258957  0.89476171  0.16545521  1
  H+  H281  1  0.62808828  0.36688318  0.84310894  1
  H+  H282  1  0.87828027  0.60342327  0.31418355  1
  H+  H283  1  0.15381746  0.69858933  0.83399477  1
  H+  H284  1  0.33526047  0.70731215  0.84408705  1
  H+  H285  1  0.36945078  0.63333889  0.48399720  1
  H+  H286  1  0.10316912  0.38707620  0.16003807  1
  H+  H287  1  0.77357615  0.87397914  0.00197219  1
  H+  H288  1  0.91111081  0.82607142  0.23598888  1
  H+  H289  1  0.35033103  0.63421828  0.00780449  1
  H+  H290  1  0.38330147  0.80407804  0.91087900  1
  H+  H291  1  0.83021812  0.41239067  0.06195776  1
  H+  H292  1  0.75631957  0.37771541  0.83287878  1
  H+  H293  1  0.55539251  0.65947060  0.77118402  1
  H+  H294  1  0.76341576  0.64401712  0.49605605  1
  H+  H295  1  0.22375645  0.35651107  0.47154331  1
  H+  H296  1  0.16950229  0.56561966  0.94715628  1
  H+  H297  1  0.84153033  0.96341315  0.81472547  1
  H+  H298  1  0.79164893  0.42947191  0.74455838  1
  H+  H299  1  0.37400020  0.38019116  0.32830250  1
  H+  H300  1  0.22186590  0.61150750  0.31632320  1
  H+  H301  1  0.34241326  0.41408978  0.41701767  1
  H+  H302  1  0.41409113  0.57959357  0.91034118  1
  H+  H303  1  0.92388571  0.82951752  0.89425434  1
  H+  H304  1  0.88684128  0.15642414  0.49075832  1
  H+  H305  1  0.82436286  0.64974202  0.75521511  1
  H+  H306  1  0.82444731  0.66986201  0.09910656  1
  H+  H307  1  0.71758534  0.84188054  0.65626744  1
  H+  H308  1  0.10006857  0.90574139  0.43942814  1
  H+  H309  1  0.84772205  0.17607779  0.10648604  1
  H+  H310  1  0.99101967  0.60866256  0.50762346  1
  H+  H311  1  0.65851037  0.55913342  0.96234481  1
  H+  H312  1  0.71362783  0.86099500  0.83524717  1
  H+  H313  1  0.11627609  0.47001826  0.51054471  1
  H+  H314  1  0.82741064  0.64509884  0.39128649  1
  H+  H315  1  0.32597143  0.40524324  0.06243462  1
  H+  H316  1  0.11054409  0.24072210  0.08350751  1
  H+  H317  1  0.18266475  0.33145595  0.26765778  1
  H+  H318  1  0.46277757  0.11014834  0.88788927  1
  H+  H319  1  0.39431392  0.56501962  0.25858123  1
  H+  H320  1  0.13483501  0.82490900  0.21224015  1
  H+  H321  1  0.61518680  0.05765537  0.60247848  1
  H+  H322  1  0.84329815  -0.05319484  0.15540233  1
  H+  H323  1  0.45767242  0.11409373  0.66646775  1
  H+  H324  1  0.58227364  0.67667238  0.11067279  1
  H+  H325  1  0.06794582  0.40256883  0.09702823  1
  H+  H326  1  0.90564920  0.57229388  0.59245074  1
  H+  H327  1  0.33340485  0.40473721  0.74127027  1
  H+  H328  1  0.56487769  0.16357394  0.74716941  1
  H+  H329  1  0.11859676  0.22263936  0.46997990  1
  H+  H330  1  0.41139335  0.33277776  0.24145946  1
  H+  H331  1  0.15408953  0.27719100  0.09231312  1
  H+  H332  1  0.33154988  0.91220529  0.77743266  1
  H+  H333  1  0.58758129  0.42902785  0.76504914  1
  H+  H334  1  0.76354612  0.11700741  0.32207778  1
  H+  H335  1  0.41413859  0.56737248  0.54822359  1
  H+  H336  1  0.41103679  0.08039705  0.60178679  1
  H+  H337  1  0.66843597  0.08026286  0.25922088  1
  H+  H338  1  0.32992218  0.66189583  0.08804232  1
  H+  H339  1  0.68629648  0.62592519  0.88376492  1
  H+  H340  1  0.16468097  0.07999616  0.59565997  1
  H+  H341  1  0.58285328  0.16880588  0.06788604  1
  H+  H342  1  0.88485462  0.37699199  0.55845202  1
  H+  H343  1  0.89783259  0.57202367  0.25110598  1
  H+  H344  1  0.50633225  0.38031435  0.32801445  1
  H+  H345  1  0.65327387  0.61755963  0.54391862  1
  H+  H346  1  0.33310547  0.16260659  0.76099413  1
  H+  H347  1  0.42636558  0.10203837  0.24163095  1
  H+  H348  1  0.84731463  0.38684660  0.16193279  1
  H+  H349  1  0.92334014  0.83545025  0.59510009  1
  H+  H350  1  0.18262551  0.08088103  0.23774142  1
  H+  H351  1  0.20315819  0.57426246  0.57619248  1
  H+  H352  1  0.04601146  0.66237877  0.73170474  1
  H+  H353  1  0.61986243  0.13764695  0.33836151  1
  H+  H354  1  0.58645064  0.91905076  0.77134834  1
  H+  H355  1  0.58472381  0.22568454  0.84077161  1
  H+  H356  1  0.07755693  0.92711938  0.06379759  1
  H+  H357  1  0.65443264  0.32405348  0.26680868  1
  H+  H358  1  0.90673019  0.58095563  0.93520395  1
  H+  H359  1  0.34083968  0.16002553  0.09635768  1
  H+  H360  1  0.16766574  0.85573985  0.90905458  1
  H+  H361  1  0.16675252  0.57166672  0.21834933  1
  H+  H362  1  0.81759551  0.14977709  0.77018614  1
  H+  H363  1  0.58668763  0.16556958  0.43415753  1
  H+  H364  1  0.66205754  0.82779631  0.93353634  1
  H+  H365  1  0.67195404  0.30547578  0.60623501  1
  H+  H366  1  0.90686848  0.32656862  0.28125780  1
  H+  H367  1  0.43432528  0.35147663  0.90374864  1
  H+  H368  1  0.66446573  0.58066000  0.26804425  1
  H+  H369  1  0.92869618  0.38558930  0.56779655  1
  H+  H370  1  0.59275541  0.80233340  0.45919351  1
  H+  H371  1  0.14631913  0.10568429  0.32986329  1
  H+  H372  1  0.21254691  0.95812163  0.38312185  1
  H+  H373  1  0.34946053  0.92172010  0.44528657  1
  H+  H374  1  0.90206262  0.05904745  0.88756099  1
  H+  H375  1  0.91797236  0.32911732  0.35713190  1
  H+  H376  1  0.56843578  0.42951029  0.41586346  1
  H+  H377  1  0.71341132  0.61171211  0.17208104  1
  H+  H378  1  0.56419683  0.66932004  0.37684780  1
  H+  H379  1  0.90918392  0.06072843  0.27184001  1
  H+  H380  1  0.12372633  0.21852175  0.33473091  1
  H+  H381  1  0.33226538  0.67384548  0.43429471  1
  H+  H382  1  0.82232814  0.41743233  0.38526128  1
  H+  H383  1  0.38970046  0.85677506  0.51340752  1
  O2-  O384  1  0.07751172  0.16631095  0.20024185  1
  O2-  O385  1  0.08671585  0.15657537  0.46422126  1
  O2-  O386  1  0.08016642  0.16555765  0.84561864  1
  O2-  O387  1  0.06205162  0.40288472  0.14257329  1
  O2-  O388  1  0.08120012  0.40728919  0.50379299  1
  O2-  O389  1  0.07075629  0.38500829  0.83368782  1
  O2-  O390  1  0.06604845  0.64857661  0.17684594  1
  O2-  O391  1  0.09043447  0.65748992  0.49689849  1
  O2-  O392  1  0.09674915  0.66727438  0.85228949  1
  O2-  O393  1  0.06685306  0.92243957  0.14141992  1
  O2-  O394  1  0.09002446  0.90576027  0.48359697  1
  O2-  O395  1  0.08436212  0.92660225  0.80555044  1
  O2-  O396  1  0.33990709  0.16214119  0.14225380  1
  O2-  O397  1  0.34843454  0.16056887  0.48534977  1
  O2-  O398  1  0.33471886  0.15721753  0.80585376  1
  O2-  O399  1  0.32945817  0.41377868  0.14142260  1
  O2-  O400  1  0.34067029  0.41850786  0.46310311  1
  O2-  O401  1  0.33495965  0.42000589  0.82111370  1
  O2-  O402  1  0.33562202  0.66124956  0.13687758  1
  O2-  O403  1  0.33987856  0.66777451  0.47841347  1
  O2-  O404  1  0.31126464  0.64561699  0.82429837  1
  O2-  O405  1  0.36067696  0.92942260  0.14299756  1
  O2-  O406  1  0.34261415  0.91724230  0.48986976  1
  O2-  O407  1  0.33108624  0.90716639  0.82218649  1
  O2-  O408  1  0.57864058  0.16607563  0.14663056  1
  O2-  O409  1  0.58735262  0.16494012  0.47957613  1
  O2-  O410  1  0.55843740  0.16391543  0.82611314  1
  O2-  O411  1  0.57367034  0.41281778  0.16113150  1
  O2-  O412  1  0.57086863  0.44229550  0.46245272  1
  O2-  O413  1  0.59604869  0.43142962  0.81026056  1
  O2-  O414  1  0.57939891  0.67549025  0.15607765  1
  O2-  O415  1  0.56985069  0.69784832  0.45760260  1
  O2-  O416  1  0.56696748  0.66094556  0.81551959  1
  O2-  O417  1  0.58258240  0.92284969  0.14633952  1
  O2-  O418  1  0.58720510  0.89515313  0.50472538  1
  O2-  O419  1  0.58745813  0.92694532  0.81566141  1
  O2-  O420  1  0.85545534  0.17426230  0.15351749  1
  O2-  O421  1  0.86080504  0.19370104  0.48778536  1
  O2-  O422  1  0.81832572  0.15836502  0.81492829  1
  O2-  O423  1  0.81525825  0.41067082  0.13994602  1
  O2-  O424  1  0.83033974  0.41833608  0.46432325  1
  O2-  O425  1  0.81465984  0.40747375  0.81351061  1
  O2-  O426  1  0.81956346  0.66530043  0.14440795  1
  O2-  O427  1  0.82665446  0.66455469  0.50349946  1
  O2-  O428  1  0.83285750  0.66201216  0.79922126  1
  O2-  O429  1  0.82395525  0.89227189  0.13406788  1
  O2-  O430  1  0.85249155  0.92743666  0.47757978  1
  O2-  O431  1  0.80014350  0.90354861  0.80151369  1
  O2-  O432  1  0.17766706  0.08343086  0.19246694  1
  O2-  O433  1  0.17613381  0.07961036  0.51635000  1
  O2-  O434  1  0.17754704  0.08610379  0.85293974  1
  O2-  O435  1  0.19075265  0.38487959  0.19787199  1
  O2-  O436  1  0.16075692  0.31963140  0.46821097  1
  O2-  O437  1  0.18719357  0.35953697  0.89755300  1
  O2-  O438  1  0.16202957  0.57371533  0.17305433  1
  O2-  O439  1  0.18531130  0.58089479  0.53492833  1
  O2-  O440  1  0.15487572  0.54772237  0.86719609  1
  O2-  O441  1  0.12791995  0.82279107  0.16786932  1
  O2-  O442  1  0.17469885  0.83309238  0.52968688  1
  O2-  O443  1  0.16125553  0.85019232  0.86318061  1
  O2-  O444  1  0.42760040  0.10629851  0.19504685  1
  O2-  O445  1  0.43984133  0.07083424  0.53291387  1
  O2-  O446  1  0.46689091  0.12130351  0.84242651  1
  O2-  O447  1  0.40710794  0.33457777  0.19250456  1
  O2-  O448  1  0.41361990  0.32717714  0.51608622  1
  O2-  O449  1  0.43304261  0.36447250  0.86010339  1
  O2-  O450  1  0.40671164  0.57402399  0.17745761  1
  O2-  O451  1  0.41815809  0.57754985  0.50361095  1
  O2-  O452  1  0.41217866  0.58175577  0.86438305  1
  O2-  O453  1  0.42526878  0.82124047  0.18082858  1
  O2-  O454  1  0.41793391  0.82475465  0.52924173  1
  O2-  O455  1  0.37219290  0.79334589  0.86625205  1
  O2-  O456  1  0.66473377  0.08380274  0.18391106  1
  O2-  O457  1  0.64874667  0.06897539  0.53636486  1
  O2-  O458  1  0.65282413  0.08027718  0.85786194  1
  O2-  O459  1  0.65525749  0.32542404  0.18756581  1
  O2-  O460  1  0.67576690  0.31092460  0.53218009  1
  O2-  O461  1  0.65023924  0.32924014  0.85902782  1
  O2-  O462  1  0.65514991  0.58335350  0.19092948  1
  O2-  O463  1  0.66030186  0.61352492  0.49925728  1
  O2-  O464  1  0.67077845  0.60499723  0.84231781  1
  O2-  O465  1  0.65489420  0.83716078  0.19766733  1
  O2-  O466  1  0.60584371  0.86237323  0.44907374  1
  O2-  O467  1  0.65520410  0.83217478  0.85729205  1
  O2-  O468  1  0.90006538  0.05461821  0.19697497  1
  O2-  O469  1  0.92722345  0.08530864  0.50946698  1
  O2-  O470  1  0.90474339  0.06522175  0.84157031  1
  O2-  O471  1  0.90116769  0.34029172  0.19636116  1
  O2-  O472  1  0.92666078  0.34624557  0.42911135  1
  O2-  O473  1  0.90096568  0.32097288  0.85405122  1
  O2-  O474  1  0.89364772  0.57462894  0.17622403  1
  O2-  O475  1  0.92564775  0.57662416  0.51589143  1
  O2-  O476  1  0.90258983  0.57632914  0.85482979  1
  O2-  O477  1  0.91088962  0.82407913  0.19106885  1
  O2-  O478  1  0.92648235  0.83952710  0.51852976  1
  O2-  O479  1  0.93005318  0.83542762  0.84938176  1
  O2-  O480  1  0.18318094  0.08152297  0.31606463  1
  O2-  O481  1  0.16274273  0.08278889  0.64082570  1
  O2-  O482  1  0.17415879  0.08420283  0.97282208  1
  O2-  O483  1  0.17985090  0.31798593  0.31153984  1
  O2-  O484  1  0.16147672  0.31485990  0.65259302  1
  O2-  O485  1  0.17037666  0.34036007  0.96299783  1
  O2-  O486  1  0.16647861  0.57440884  0.29563893  1
  O2-  O487  1  0.25093590  0.55914234  0.64504469  1
  O2-  O488  1  0.16675994  0.57466317  0.99142979  1
  O2-  O489  1  0.16758149  0.81621156  0.29419315  1
  O2-  O490  1  0.15976422  0.82982504  0.65260720  1
  O2-  O491  1  0.17513293  0.84986080  0.98287133  1
  O2-  O492  1  0.42660925  0.08912960  0.31253347  1
  O2-  O493  1  0.40053568  0.07973646  0.64755772  1
  O2-  O494  1  0.43300974  0.09028390  0.96248677  1
  O2-  O495  1  0.42328685  0.33823501  0.30542318  1
  O2-  O496  1  0.41789438  0.32842926  0.64033023  1
  O2-  O497  1  0.42326065  0.32875590  0.98314406  1
  O2-  O498  1  0.39165058  0.55975179  0.30351485  1
  O2-  O499  1  0.39205248  0.54260927  0.62729696  1
  O2-  O500  1  0.41489282  0.57723812  0.98484857  1
  O2-  O501  1  0.43169809  0.83466419  0.30720772  1
  O2-  O502  1  0.41848187  0.83877232  0.65194969  1
  O2-  O503  1  0.39823863  0.81623546  0.98619861  1
  O2-  O504  1  0.67269451  0.07785480  0.30479722  1
  O2-  O505  1  0.59270923  0.04614487  0.64669020  1
  O2-  O506  1  0.69887406  0.13714355  0.96848827  1
  O2-  O507  1  0.65526423  0.32464890  0.31219270  1
  O2-  O508  1  0.66297854  0.30950047  0.65131475  1
  O2-  O509  1  0.66497347  0.33791883  0.98283976  1
  O2-  O510  1  0.66740052  0.57822572  0.31354606  1
  O2-  O511  1  0.66580825  0.64860826  0.62160412  1
  O2-  O512  1  0.66876160  0.57750508  1.00458864  1
  O2-  O513  1  0.68022774  0.85056988  0.25730445  1
  O2-  O514  1  0.65675382  0.80564751  0.64187692  1
  O2-  O515  1  0.66468673  0.82428624  0.97917183  1
  O2-  O516  1  0.91462272  0.06998357  0.31724077  1
  O2-  O517  1  0.90989196  0.06049701  0.62968550  1
  O2-  O518  1  0.90950327  0.06075698  0.96067199  1
  O2-  O519  1  0.92145487  0.30279455  0.31684306  1
  O2-  O520  1  0.95224342  0.28131486  0.65268062  1
  O2-  O521  1  0.91706634  0.33635234  0.97806478  1
  O2-  O522  1  0.90637150  0.57282521  0.29649348  1
  O2-  O523  1  0.89162247  0.57463599  0.63629002  1
  O2-  O524  1  0.91673668  0.58395230  0.97988128  1
  O2-  O525  1  0.90233828  0.81909485  0.31850890  1
  O2-  O526  1  0.92189260  0.83436774  0.64088781  1
  O2-  O527  1  0.91775655  0.82390216  0.97554492  1
  O2-  O528  1  0.09371446  0.18005138  -0.03950136  1
  O2-  O529  1  0.08679729  0.15503143  0.34411415  1
  O2-  O530  1  0.05849007  0.14371339  0.67880198  1
  O2-  O531  1  0.07954000  0.41200075  0.02066650  1
  O2-  O532  1  0.10306341  0.41614972  0.32997802  1
  O2-  O533  1  0.10015392  0.41216156  0.71675767  1
  O2-  O534  1  0.09508648  0.66918184  -0.02906131  1
  O2-  O535  1  0.07543737  0.65509379  0.30921019  1
  O2-  O536  1  0.02572917  0.68811587  0.70193099  1
  O2-  O537  1  0.08259508  0.92205691  0.01887302  1
  O2-  O538  1  0.15454407  0.92889659  0.36633552  1
  O2-  O539  1  0.08740189  0.92198987  0.68625904  1
  O2-  O540  1  0.34282514  0.16162173  0.01891554  1
  O2-  O541  1  0.34869430  0.16564191  0.36087125  1
  O2-  O542  1  0.32483155  0.16938818  0.68168244  1
  O2-  O543  1  0.33265294  0.40716071  0.01724640  1
  O2-  O544  1  0.33700178  0.40563086  0.34474467  1
  O2-  O545  1  0.33048980  0.39448638  0.69646829  1
  O2-  O546  1  0.31875885  0.66129784  0.02424818  1
  O2-  O547  1  0.30287411  0.69931807  0.36376415  1
  O2-  O548  1  0.36784030  0.68684465  0.71422793  1
  O2-  O549  1  0.35058870  0.93286077  0.01011315  1
  O2-  O550  1  0.36434928  0.93024973  0.35969981  1
  O2-  O551  1  0.32507219  0.91429370  0.69381246  1
  O2-  O552  1  0.58566574  0.17421290  0.02260987  1
  O2-  O553  1  0.58871957  0.16580252  0.35449804  1
  O2-  O554  1  0.56936686  0.16637750  0.70169100  1
  O2-  O555  1  0.58190821  0.40842434  0.03937254  1
  O2-  O556  1  0.57105149  0.41456446  0.34801234  1
  O2-  O557  1  0.57396783  0.43018719  0.68832691  1
  O2-  O558  1  0.58048690  0.66741104  0.03129333  1
  O2-  O559  1  0.55757807  0.64904895  0.33444707  1
  O2-  O560  1  0.53934194  0.65842260  0.69126307  1
  O2-  O561  1  0.57468788  0.89966320  0.02548090  1
  O2-  O562  1  0.60195606  0.90893202  0.32734964  1
  O2-  O563  1  0.58450591  0.89571394  0.68606310  1
  O2-  O564  1  0.84427679  0.18253159  0.03920982  1
  O2-  O565  1  0.82735874  0.14687854  0.33789155  1
  O2-  O566  1  0.82663170  0.13459499  0.69263172  1
  O2-  O567  1  0.83271089  0.41607590  0.01650440  1
  O2-  O568  1  0.81871388  0.40961228  0.34054082  1
  O2-  O569  1  0.77093244  0.44075789  0.70474808  1
  O2-  O570  1  0.83446641  0.66715871  0.02167148  1
  O2-  O571  1  0.82543303  0.65318174  0.34761825  1
  O2-  O572  1  0.76775170  0.59799424  0.68059888  1
  O2-  O573  1  0.83483478  0.90173571  0.01467704  1
  O2-  O574  1  0.83752086  0.91316726  0.36811493  1
  O2-  O575  1  0.82024776  0.90134589  0.67643342  1
