# generated using pymatgen
data_H2O
_symmetry_space_group_name_H-M   'P 1'
_cell_length_a   17.99153240
_cell_length_b   17.98706889
_cell_length_c   22.00948730
_cell_angle_alpha   89.99592851
_cell_angle_beta   90.01388195
_cell_angle_gamma   119.99113883
_symmetry_Int_Tables_number   1
_chemical_formula_structural   H2O
_chemical_formula_sum   'H384 O192'
_cell_volume   6168.90197428
_cell_formula_units_Z   192
loop_
 _symmetry_equiv_pos_site_id
 _symmetry_equiv_pos_as_xyz
  1  'x, y, z'
loop_
 _atom_type_symbol
 _atom_type_oxidation_number
  H+  1.0
  O2-  -2.0
loop_
 _atom_site_type_symbol
 _atom_site_label
 _atom_site_symmetry_multiplicity
 _atom_site_fract_x
 _atom_site_fract_y
 _atom_site_fract_z
 _atom_site_occupancy
  H+  H0  1  0.10087099  -0.00433116  0.62437646  1
  H+  H1  1  0.03147983  0.88591519  -0.00136961  1
  H+  H2  1  0.14360289  0.28025104  0.16559909  1
  H+  H3  1  0.11846672  0.09050956  0.40812739  1
  H+  H4  1  0.89942181  0.81777750  0.76355926  1
  H+  H5  1  0.89768275  0.14321750  0.81250658  1
  H+  H6  1  0.84370377  0.62268230  0.82761565  1
  H+  H7  1  0.14963763  0.86408270  0.99280295  1
  H+  H8  1  0.40685314  0.61612139  0.66727313  1
  H+  H9  1  0.02656870  0.39462733  0.15352307  1
  H+  H10  1  0.86349452  0.48241907  0.34329568  1
  H+  H11  1  0.83828478  -0.07073797  0.20672591  1
  H+  H12  1  0.52566098  0.88925113  0.15464325  1
  H+  H13  1  0.36902368  0.17507068  0.82889331  1
  H+  H14  1  0.17184764  0.82823247  0.93285092  1
  H+  H15  1  0.00887901  0.90022355  0.49676482  1
  H+  H16  1  0.39357272  0.78178417  0.51210813  1
  H+  H17  1  0.29465077  0.87708323  0.66388074  1
  H+  H18  1  0.11771606  0.13552934  -0.00019538  1
  H+  H19  1  0.61843245  -0.02806890  0.14447142  1
  H+  H20  1  0.61949745  0.12722564  0.66529119  1
  H+  H21  1  0.64135647  0.11731932  0.99079278  1
  H+  H22  1  0.60214336  -0.03785965  0.81500876  1
  H+  H23  1  0.37239703  0.26812838  0.52498416  1
  H+  H24  1  0.63720401  0.34064386  0.62444653  1
  H+  H25  1  0.88825737  0.15541290  0.53688990  1
  H+  H26  1  0.75680962  0.37841293  0.81992010  1
  H+  H27  1  0.64171032  0.77445169  0.83319422  1
  H+  H28  1  0.36413145  0.48196906  0.15979213  1
  H+  H29  1  0.80766296  0.12474674  0.78849390  1
  H+  H30  1  0.13794039  0.36681033  0.16212122  1
  H+  H31  1  0.86919669  0.12884250  0.99404443  1
  H+  H32  1  0.13984127  0.77894627  0.49739810  1
  H+  H33  1  0.70584546  0.09705311  0.84439438  1
  H+  H34  1  0.12480804  0.13494042  0.82148190  1
  H+  H35  1  0.20183850  0.35178096  0.51129245  1
  H+  H36  1  0.54365960  0.07276340  0.05205261  1
  H+  H37  1  0.84625191  0.22869177  0.31659662  1
  H+  H38  1  0.12921738  0.85039130  0.33572705  1
  H+  H39  1  0.85782785  0.49710815  0.49612730  1
  H+  H40  1  0.87420097  0.25948817  0.66963016  1
  H+  H41  1  0.16186723  0.58888389  0.42761088  1
  H+  H42  1  0.17133868  0.14542508  0.62566315  1
  H+  H43  1  0.64761668  0.36599404  0.36042051  1
  H+  H44  1  0.84712553  0.37992420  0.81506217  1
  H+  H45  1  0.84187771  0.42981559  0.40741885  1
  H+  H46  1  0.26149622  0.63408669  0.00648535  1
  H+  H47  1  0.88657396  0.15500366  0.14464291  1
  H+  H48  1  0.22120900  0.38204143  0.32118412  1
  H+  H49  1  0.61004404  0.72650998  0.15718842  1
  H+  H50  1  0.73366170  0.60664290  0.65868697  1
  H+  H51  1  0.11935061  0.73218277  0.00270983  1
  H+  H52  1  -0.01783289  0.37346485  0.51881219  1
  H+  H53  1  0.47122205  0.12931105  0.16933012  1
  H+  H54  1  0.87112821  0.51461559  0.83483495  1
  H+  H55  1  0.59833080  -0.01809445  0.35452570  1
  H+  H56  1  0.08620056  0.91449489  0.06038315  1
  H+  H57  1  0.88783736  0.46612483  -0.03221806  1
  H+  H58  1  0.22754004  0.11303804  -0.00950031  1
  H+  H59  1  0.71058780  0.11918932  0.32388214  1
  H+  H60  1  0.60363921  0.87511808  0.81755201  1
  H+  H61  1  0.11002274  0.24043883  0.32030340  1
  H+  H62  1  0.59985506  0.21251838  0.81901618  1
  H+  H63  1  0.87824373  0.36670472  0.32361319  1
  H+  H64  1  0.38753893  0.21395356  0.35893659  1
  H+  H65  1  0.95882288  0.35214885  0.32107994  1
  H+  H66  1  0.38303598  0.47222930  0.84415947  1
  H+  H67  1  0.89551357  0.77141012  0.16684264  1
  H+  H68  1  0.59096402  0.16384774  0.72122498  1
  H+  H69  1  0.35780426  0.22983058  0.00800881  1
  H+  H70  1  0.88227311  0.25206716  -0.00983338  1
  H+  H71  1  0.62211204  0.91307546  0.33791902  1
  H+  H72  1  0.84878467  0.17428353  0.59531826  1
  H+  H73  1  0.38946234  0.77832472  0.33043068  1
  H+  H74  1  0.87705936  0.01824426  0.66103769  1
  H+  H75  1  0.61401809  0.64020536  0.15104565  1
  H+  H76  1  0.18040070  0.82495655  0.59242795  1
  H+  H77  1  0.62665086  0.60455219  0.84015519  1
  H+  H78  1  0.12110600  0.14092804  0.15615680  1
  H+  H79  1  0.40481611  0.78430099  0.16969514  1
  H+  H80  1  0.74467461  0.91907446  0.31308149  1
  H+  H81  1  0.37165880  0.65202894  0.50772413  1
  H+  H82  1  0.89651875  0.27415543  0.54060824  1
  H+  H83  1  0.36916910  0.98401536  0.49824228  1
  H+  H84  1  0.48427435  0.35880060  0.66359477  1
  H+  H85  1  0.27391749  0.39355788  0.15448065  1
  H+  H86  1  0.72702366  0.11078915  0.52149340  1
  H+  H87  1  0.22933107  0.86151697  0.17588234  1
  H+  H88  1  0.06248174  0.78734699  0.71681084  1
  H+  H89  1  0.60735808  0.46323824  -0.00025952  1
  H+  H90  1  0.13557619  0.35469396  0.83728891  1
  H+  H91  1  0.61941004  0.64225227  0.51777550  1
  H+  H92  1  0.38353577  0.11428924  0.99713027  1
  H+  H93  1  0.73327487  0.37266859  0.53272130  1
  H+  H94  1  0.98545279  0.86159715  0.16718525  1
  H+  H95  1  0.83389504  0.91229644  0.04983771  1
  H+  H96  1  0.89319638  1.00284592  0.32795386  1
  H+  H97  1  0.39625357  0.62910931  0.83599007  1
  H+  H98  1  0.13609841  0.58871214  0.32124370  1
  H+  H99  1  0.87948125  0.63327223  0.50383857  1
  H+  H100  1  0.00254192  0.65862498  0.67136097  1
  H+  H101  1  0.09968908  0.37915362  0.99729083  1
  H+  H102  1  0.87290956  0.88366968  0.16550071  1
  H+  H103  1  0.46684269  0.86821258  0.80925790  1
  H+  H104  1  0.63624917  0.86176789  0.15995229  1
  H+  H105  1  0.61412351  0.35024967  0.83907537  1
  H+  H106  1  0.29298618  0.64444684  0.80397040  1
  H+  H107  1  0.11424764  0.38429974  0.67756702  1
  H+  H108  1  0.59549822  0.47369770  0.83235166  1
  H+  H109  1  0.87882974  0.60958762  0.32659943  1
  H+  H110  1  0.11959409  0.36229697  0.51160191  1
  H+  H111  1  0.01841941  0.87508157  0.33653505  1
  H+  H112  1  0.45759797  0.38976236  0.84608896  1
  H+  H113  1  0.74329893  0.33235106  1.01342998  1
  H+  H114  1  0.34732911  0.13654026  0.52071314  1
  H+  H115  1  0.99635369  0.12679916  0.15587855  1
  H+  H116  1  0.52660623  0.63962166  0.82457019  1
  H+  H117  1  0.10550788  0.72130904  0.66607352  1
  H+  H118  1  0.28044743  0.88399799  0.00160157  1
  H+  H119  1  0.85316379  0.73703691  -0.00037503  1
  H+  H120  1  0.37569079  0.34140161  0.29854200  1
  H+  H121  1  0.87729203  0.72218790  0.66964548  1
  H+  H122  1  0.38609702  0.37250673  0.15919735  1
  H+  H123  1  0.63270554  0.75963207  0.29578163  1
  H+  H124  1  0.36294047  0.60782956  0.98697350  1
  H+  H125  1  0.49321126  0.85805173  -0.00458275  1
  H+  H126  1  0.96711268  0.36820616  0.83217922  1
  H+  H127  1  0.71256186  0.60166758  -0.01154877  1
  H+  H128  1  0.42137982  0.37735165  0.30568604  1
  H+  H129  1  0.58090842  0.40995107  0.06148753  1
  H+  H130  1  0.19303262  0.55555504  0.59367594  1
  H+  H131  1  0.39198265  0.62209331  0.33794016  1
  H+  H132  1  0.62110056  0.34384138  0.99180468  1
  H+  H133  1  0.12436520  0.50197331  0.34566882  1
  H+  H134  1  1.00476697  0.64499910  0.48678401  1
  H+  H135  1  -0.02655347  0.05759847  0.68270013  1
  H+  H136  1  0.77026683  0.88182331  0.99294864  1
  H+  H137  1  0.60391666  0.12561079  0.82038242  1
  H+  H138  1  0.86318383  0.33197719  0.00455195  1
  H+  H139  1  0.86184601  0.89649627  0.80814192  1
  H+  H140  1  0.56128086  0.18382937  0.09305159  1
  H+  H141  1  0.17369498  0.58825828  0.08074968  1
  H+  H142  1  0.46463881  0.11677819  0.52113205  1
  H+  H143  1  0.26169829  0.15521144  0.64181615  1
  H+  H144  1  0.39516252  0.65071595  0.15302936  1
  H+  H145  1  0.36446390  -0.02188822  0.16077809  1
  H+  H146  1  0.42949976  0.05018657  0.33155846  1
  H+  H147  1  0.46860870  0.36375642  -0.00416849  1
  H+  H148  1  0.87575779  0.11617901  0.29812418  1
  H+  H149  1  0.08273036  0.71896751  0.38341370  1
  H+  H150  1  0.52729976  0.24548518  0.11409344  1
  H+  H151  1  0.87028022  0.63455647  0.15326148  1
  H+  H152  1  0.01724912  0.83713484  0.69388055  1
  H+  H153  1  0.47267412  0.60763216  0.34357491  1
  H+  H154  1  0.77480324  0.39295694  0.66088996  1
  H+  H155  1  0.19836346  0.82089739  0.34660318  1
  H+  H156  1  0.72606042  0.87485909  0.52274923  1
  H+  H157  1  0.22206074  0.11071820  0.17815449  1
  H+  H158  1  0.64077697  0.11239901  0.51341377  1
  H+  H159  1  0.11796165  0.88618386  0.15928774  1
  H+  H160  1  0.88785247  0.27685830  0.82001782  1
  H+  H161  1  0.06328218  0.96173171  0.64172275  1
  H+  H162  1  0.45647673  0.72169379  0.10821014  1
  H+  H163  1  0.93515217  0.48537270  0.96241545  1
  H+  H164  1  0.41970659  0.58543253  0.23833905  1
  H+  H165  1  0.22776631  0.09227441  0.83434659  1
  H+  H166  1  0.67711396  0.76560302  0.30073113  1
  H+  H167  1  0.74813127  0.37677182  0.35031496  1
  H+  H168  1  0.52720078  0.39415712  0.15718823  1
  H+  H169  1  0.34548562  0.38746052  0.50582221  1
  H+  H170  1  0.11892010  0.12255812  0.32119856  1
  H+  H171  1  0.44921630  0.14886600  0.32406715  1
  H+  H172  1  0.83977746  0.70944647  0.82112775  1
  H+  H173  1  0.93812346  0.97939159  0.37812019  1
  H+  H174  1  0.75710013  0.38930251  0.16745429  1
  H+  H175  1  0.55033158  0.16082072  0.36941101  1
  H+  H176  1  0.60890878  0.69822794  0.36303267  1
  H+  H177  1  0.61688109  0.98128204  0.49587127  1
  H+  H178  1  0.90167949  0.03218058  0.83485013  1
  H+  H179  1  0.31362736  0.92819130  0.32527055  1
  H+  H180  1  0.36763200  0.89111585  0.16126268  1
  H+  H181  1  0.16627526  0.82528170  0.23367849  1
  H+  H182  1  0.85821876  0.55415225  0.66184512  1
  H+  H183  1  0.64801275  0.61559608  0.66817267  1
  H+  H184  1  0.38067450  0.02322458  0.99085035  1
  H+  H185  1  0.71366009  0.59897815  0.84001685  1
  H+  H186  1  0.40370322  0.07327483  0.57653113  1
  H+  H187  1  0.60825922  0.22265252  0.54301376  1
  H+  H188  1  0.09482696  0.36417642  0.33512053  1
  H+  H189  1  0.35281101  0.48859664  0.35047777  1
  H+  H190  1  0.39616127  0.26821806  0.66799646  1
  H+  H191  1  0.90534220  0.03792715  0.15363027  1
  H+  H192  1  0.35562622  0.33417529  0.84317620  1
  H+  H193  1  0.89646682  0.86658030  0.31889012  1
  H+  H194  1  0.91674983  0.05501094  0.50719134  1
  H+  H195  1  0.76827093  0.63178727  0.34585717  1
  H+  H196  1  0.64486453  0.25849681  0.63990881  1
  H+  H197  1  0.35760712  0.22771003  0.16179248  1
  H+  H198  1  0.37147231  0.74344128  0.81070226  1
  H+  H199  1  0.21853005  0.66401138  0.86202896  1
  H+  H200  1  0.89133746  0.02130365  0.98200485  1
  H+  H201  1  0.82785289  0.16043729  0.36870977  1
  H+  H202  1  0.09619115  0.62992698  0.82492716  1
  H+  H203  1  0.62004620  0.58624703  0.36414393  1
  H+  H204  1  0.72541540  0.86864769  0.82963726  1
  H+  H205  1  0.86260073  0.39097409  0.16270903  1
  H+  H206  1  0.38392780  0.90022892  0.33519738  1
  H+  H207  1  0.72789878  0.11375300  0.98550917  1
  H+  H208  1  0.27159981  0.15448206  0.54327578  1
  H+  H209  1  0.37425506  0.13134384  0.67148572  1
  H+  H210  1  0.35294145  0.37922326  0.67188781  1
  H+  H211  1  0.96576366  0.86015416  0.81660470  1
  H+  H212  1  0.64660183  0.06751114  0.90086738  1
  H+  H213  1  0.29079250  0.08837763  0.39018557  1
  H+  H214  1  0.11761109  0.47931768  0.13695618  1
  H+  H215  1  0.39524931  0.87746270  0.50515849  1
  H+  H216  1  -0.03135015  0.35418052  -0.00516756  1
  H+  H217  1  0.36037074  0.89556653  0.71800211  1
  H+  H218  1  1.02795494  0.13413805  1.00162437  1
  H+  H219  1  0.64480108  0.29680986  0.16462891  1
  H+  H220  1  0.60267003  0.86375291  0.99475488  1
  H+  H221  1  0.47665211  0.36541566  0.52080466  1
  H+  H222  1  0.38723030  -0.02485899  0.81806304  1
  H+  H223  1  0.07506294  0.11014908  0.46445147  1
  H+  H224  1  0.11476580  0.97378863  0.15930824  1
  H+  H225  1  0.73891643  0.61935193  0.15699370  1
  H+  H226  1  0.27903602  0.63700534  0.35561803  1
  H+  H227  1  0.60923810  0.63038420  -0.00005811  1
  H+  H228  1  0.86742819  0.48601387  0.16339169  1
  H+  H229  1  0.01814131  0.15398100  0.31660242  1
  H+  H230  1  0.58950837  0.46292655  0.51789400  1
  H+  H231  1  0.21705568  0.36398591  0.99219334  1
  H+  H232  1  0.52531536  0.34439751  0.36784528  1
  H+  H233  1  0.33723171  0.66799035  0.05814254  1
  H+  H234  1  0.10320063  0.96654080  0.34025858  1
  H+  H235  1  0.34273709  0.67814768  0.41122317  1
  H+  H236  1  0.65888958  0.10959696  0.17739907  1
  H+  H237  1  0.65225438  0.38733849  0.17188474  1
  H+  H238  1  0.89328208  0.86762616  0.97475616  1
  H+  H239  1  0.09213548  0.20281338  0.66763555  1
  H+  H240  1  0.20307115  0.11599199  0.33750219  1
  H+  H241  1  0.11957710  0.61045256  -0.00135440  1
  H+  H242  1  0.15715360  0.84825043  0.65679868  1
  H+  H243  1  0.88252582  0.59480387  0.98741584  1
  H+  H244  1  1.02304132  0.65391526  0.99628606  1
  H+  H245  1  0.88919013  0.79510123  0.50728181  1
  H+  H246  1  -0.01012733  0.39831823  0.67142722  1
  H+  H247  1  0.11644586  0.47851950  0.83310906  1
  H+  H248  1  0.65506839  0.27914376  0.36236729  1
  H+  H249  1  0.64079267  0.76934901  -0.01565323  1
  H+  H250  1  0.35957710  0.39494124  0.00526909  1
  H+  H251  1  0.38117084  0.76959459  0.98867851  1
  H+  H252  1  0.11800593  0.51723429  -0.00427688  1
  H+  H253  1  0.98204884  0.61459861  0.17003447  1
  H+  H254  1  0.12464407  0.61654142  0.48118425  1
  H+  H255  1  0.13251555  0.27136942  0.99244942  1
  H+  H256  1  0.14012079  0.02250758  0.98924794  1
  H+  H257  1  0.39156615  0.86540583  0.99326760  1
  H+  H258  1  0.35556576  0.46782892  0.67015763  1
  H+  H259  1  0.48027727  0.61054904  0.17897847  1
  H+  H260  1  0.48048928  0.10295468  0.65796490  1
  H+  H261  1  0.91338233  0.85055069  0.56956772  1
  H+  H262  1  0.08921393  0.15212641  0.72590816  1
  H+  H263  1  0.10444251  0.48686732  0.48630553  1
  H+  H264  1  0.38352836  0.53066776  0.51468380  1
  H+  H265  1  0.89096758  0.28514828  0.16207511  1
  H+  H266  1  0.10637536  0.96707801  0.82850251  1
  H+  H267  1  0.62594780  0.47386714  0.66930674  1
  H+  H268  1  0.02109821  0.30822769  0.38041265  1
  H+  H269  1  0.86606422  0.90918841  0.50005188  1
  H+  H270  1  0.85555946  0.72299998  0.33270900  1
  H+  H271  1  0.60909878  0.25036844  -0.01513364  1
  H+  H272  1  0.61646147  0.48363340  0.15208387  1
  H+  H273  1  0.06082629  0.21453683  0.49919103  1
  H+  H274  1  0.53678518  0.64213310  0.67488665  1
  H+  H275  1  0.12260779  0.76339209  0.84595949  1
  H+  H276  1  0.35437861  0.08196423  0.81453999  1
  H+  H277  1  0.63436446  0.86616051  0.51968760  1
  H+  H278  1  0.59674209  0.44748923  0.37097961  1
  H+  H279  1  0.11211320  0.72618500  0.15609914  1
  H+  H280  1  0.49463777  0.11128501  1.01215266  1
  H+  H281  1  0.14344103  0.61339275  0.13886670  1
  H+  H282  1  0.47741304  0.61638086  0.51629421  1
  H+  H283  1  0.90229834  0.60549801  0.56592630  1
  H+  H284  1  0.46402766  0.07358251  0.81712188  1
  H+  H285  1  0.08514748  0.00119404  0.46902515  1
  H+  H286  1  0.49043247  0.87638648  0.50814563  1
  H+  H287  1  0.48101599  0.86469765  0.32996230  1
  H+  H288  1  0.68760514  0.88939188  0.25409466  1
  H+  H289  1  0.16979359  0.35230780  0.25596922  1
  H+  H290  1  0.16238036  0.32308506  0.89477664  1
  H+  H291  1  0.71244195  0.56599247  0.52509683  1
  H+  H292  1  0.33808377  0.91615882  0.06182974  1
  H+  H293  1  0.66820801  0.83168136  0.92481250  1
  H+  H294  1  0.36602723  0.51313485  -0.01148472  1
  H+  H295  1  0.58891402  0.66725997  0.76656382  1
  H+  H296  1  0.12254568  0.22418027  0.82085857  1
  H+  H297  1  0.08822410  0.42189713  0.77376166  1
  H+  H298  1  0.58510217  0.66813176  0.05766179  1
  H+  H299  1  0.41453925  0.35014748  0.22045284  1
  H+  H300  1  0.43274769  0.09158573  0.23387742  1
  H+  H301  1  0.64904563  0.31927384  0.89405150  1
  H+  H302  1  0.80839030  0.37939189  0.06859015  1
  H+  H303  1  0.90199424  0.90186792  0.66144381  1
  H+  H304  1  0.35272857  0.93232966  0.43497881  1
  H+  H305  1  0.65722907  0.01689699  0.65789005  1
  H+  H306  1  0.20002474  0.65865396  0.23983443  1
  H+  H307  1  0.14517443  0.32331483  0.60468333  1
  H+  H308  1  0.91972277  0.60941781  0.92127907  1
  H+  H309  1  0.92365967  0.83154157  0.92018898  1
  H+  H310  1  0.83823035  0.68819724  0.42817475  1
  H+  H311  1  0.33058088  0.42924457  0.06256388  1
  H+  H312  1  0.33792703  0.15210899  0.73079565  1
  H+  H313  1  0.13625879  0.48172848  0.68440126  1
  H+  H314  1  0.42458278  0.83732228  0.23246118  1
  H+  H315  1  0.79472943  0.14680851  0.14717071  1
  H+  H316  1  0.87865156  0.15021560  0.43303040  1
  H+  H317  1  0.66305459  0.85355462  0.61946112  1
  H+  H318  1  0.36102809  0.69099454  0.72089008  1
  H+  H319  1  0.72414442  0.85884330  0.16398847  1
  H+  H320  1  0.06605701  0.91241569  0.43238496  1
  H+  H321  1  0.84259635  0.16315649  0.05405879  1
  H+  H322  1  0.07065780  0.40601624  0.05838540  1
  H+  H323  1  0.35744400  0.13836738  0.16684631  1
  H+  H324  1  0.40911589  0.33084566  0.58546302  1
  H+  H325  1  0.96076895  0.60418696  0.83161866  1
  H+  H326  1  0.73492576  0.11312299  0.65956934  1
  H+  H327  1  0.81857954  0.42495296  0.72662773  1
  H+  H328  1  0.61880851  0.09826032  0.29506022  1
  H+  H329  1  0.09690816  0.17127232  0.09318118  1
  H+  H330  1  0.57973561  0.65584917  0.42874839  1
  H+  H331  1  0.92303654  0.58630956  0.23114171  1
  H+  H332  1  0.17097268  0.07801002  0.89407133  1
  H+  H333  1  0.61996677  0.73567268  0.68086898  1
  H+  H334  1  0.43084026  0.25713264  0.29630045  1
  H+  H335  1  0.39239822  0.01061260  0.66254076  1
  H+  H336  1  0.99699278  0.11719423  0.83446450  1
  H+  H337  1  0.92000739  0.09338525  0.24309760  1
  H+  H338  1  0.63132825  0.40236354  0.70848029  1
  H+  H339  1  0.68012537  0.60104404  0.21380181  1
  H+  H340  1  0.63092708  0.54443485  0.30491134  1
  H+  H341  1  0.55087785  0.41124117  0.77575714  1
  H+  H342  1  0.25815673  0.63952004  0.62668261  1
  H+  H343  1  0.06360511  0.40738138  0.44131082  1
  H+  H344  1  0.56415185  0.39454256  0.46232698  1
  H+  H345  1  0.12477147  0.85230838  0.85115399  1
  H+  H346  1  0.59233793  0.19141313  0.47370385  1
  H+  H347  1  0.40112791  0.58133512  0.92472162  1
  H+  H348  1  0.21147688  0.35235945  0.65982587  1
  H+  H349  1  0.91253859  0.33942546  0.22445852  1
  H+  H350  1  0.92915748  0.08695237  0.92573882  1
  H+  H351  1  0.83946077  0.67116168  0.09555823  1
  H+  H352  1  0.08126587  0.89242360  0.77767089  1
  H+  H353  1  0.58251466  0.91314053  0.44177061  1
  H+  H354  1  0.31724629  0.41926581  0.44686664  1
  H+  H355  1  0.66146846  0.57097719  0.58195205  1
  H+  H356  1  0.07589604  0.67160374  0.09419086  1
  H+  H357  1  0.23311846  0.86095367  0.50067414  1
  H+  H358  1  0.91988689  0.82843601  0.26036352  1
  H+  H359  1  0.06698776  0.66378841  0.76643751  1
  H+  H360  1  0.96283574  0.60763651  0.34020068  1
  H+  H361  1  0.29555440  0.15533931  0.43734237  1
  H+  H362  1  0.89974149  0.40261572  0.66667926  1
  H+  H363  1  0.83148566  0.93812302  0.44393184  1
  H+  H364  1  0.59921386  0.89312024  0.71797590  1
  H+  H365  1  0.34344138  0.39678525  0.34998567  1
  H+  H366  1  0.42933989  0.58616332  0.60751023  1
  H+  H367  1  0.32809334  0.16879033  0.06679429  1
  H+  H368  1  0.84374242  0.10351701  0.43141019  1
  H+  H369  1  0.77454536  0.72105454  0.03857490  1
  H+  H370  1  0.57453653  0.89642109  0.05661656  1
  H+  H371  1  0.69452278  0.06662790  0.22128242  1
  H+  H372  1  0.16267627  0.59322816  0.90881134  1
  H+  H373  1  0.15678598  0.07957077  0.23447366  1
  H+  H374  1  0.15820299  0.65588608  0.24875701  1
  H+  H375  1  0.62042056  0.73312187  0.51587283  1
  H+  H376  1  0.86887477  0.18410717  0.70981474  1
  H+  H377  1  0.63247317  0.15766355  0.38299563  1
  H+  H378  1  0.93061677  0.36002565  0.58691963  1
  H+  H379  1  0.40533660  0.34705881  0.93983406  1
  H+  H380  1  0.65327563  0.56707346  0.92890299  1
  H+  H381  1  0.28566318  0.65641284  0.50874719  1
  H+  H382  1  0.84954687  0.95400974  0.76001309  1
  H+  H383  1  0.77712577  0.67638774  0.48349582  1
  O2-  O384  1  0.09617635  0.17519264  0.13891180  1
  O2-  O385  1  0.01990184  0.15923796  0.47840927  1
  O2-  O386  1  0.09300395  0.16296998  0.80527322  1
  O2-  O387  1  0.08327779  0.41427766  0.13423574  1
  O2-  O388  1  0.07111728  0.42095620  0.48511689  1
  O2-  O389  1  0.08317661  0.41902304  0.81891004  1
  O2-  O390  1  0.07814684  0.66674567  0.13961965  1
  O2-  O391  1  0.06242139  0.67090187  0.46576832  1
  O2-  O392  1  0.06431929  0.65860731  0.81185162  1
  O2-  O393  1  0.08628205  0.91416512  0.14262576  1
  O2-  O394  1  0.06773425  0.93431589  0.47497942  1
  O2-  O395  1  0.07168006  0.90391806  0.82088197  1
  O2-  O396  1  0.32596753  0.16622320  0.14981321  1
  O2-  O397  1  0.31664960  0.16905211  0.51069512  1
  O2-  O398  1  0.32952093  0.12277371  0.80722706  1
  O2-  O399  1  0.33513906  0.42433248  0.13957763  1
  O2-  O400  1  0.31615905  0.41844656  0.49203802  1
  O2-  O401  1  0.35857765  0.50830465  0.83041875  1
  O2-  O402  1  0.39880056  0.69700429  0.12539182  1
  O2-  O403  1  0.34445321  0.68508372  0.49134979  1
  O2-  O404  1  0.35487387  0.68082757  0.79872856  1
  O2-  O405  1  0.33435580  0.91795273  0.14583817  1
  O2-  O406  1  0.34885449  0.92541439  0.47961390  1
  O2-  O407  1  0.35965457  0.87314816  0.79789778  1
  O2-  O408  1  0.55636295  0.21588685  0.12992322  1
  O2-  O409  1  0.57804423  0.17218587  0.51649881  1
  O2-  O410  1  0.57685841  0.15530770  0.79967098  1
  O2-  O411  1  0.58787244  0.42098187  0.14258274  1
  O2-  O412  1  0.55394339  0.40052197  0.50640366  1
  O2-  O413  1  0.55557442  0.41067851  0.81998723  1
  O2-  O414  1  0.57739553  0.66578839  0.14229187  1
  O2-  O415  1  0.58991037  0.67173412  0.50124547  1
  O2-  O416  1  0.58765594  0.66689703  0.81238716  1
  O2-  O417  1  0.58219462  0.91081777  0.13307008  1
  O2-  O418  1  0.58209873  0.91685794  0.48707185  1
  O2-  O419  1  0.57604419  0.90423175  0.79636146  1
  O2-  O420  1  0.85350716  0.18368595  0.13129173  1
  O2-  O421  1  0.85129667  0.17959791  0.55000026  1
  O2-  O422  1  0.86776671  0.16939881  0.78885744  1
  O2-  O423  1  0.83100147  0.42298876  0.15041244  1
  O2-  O424  1  0.83239408  0.43636336  0.48075556  1
  O2-  O425  1  0.81574401  0.41116363  0.80290997  1
  O2-  O426  1  0.83997020  0.66612554  0.14072391  1
  O2-  O427  1  0.83682444  0.69484457  0.47367483  1
  O2-  O428  1  0.80604800  0.64662878  0.81628954  1
  O2-  O429  1  0.84150033  0.91734296  0.16373998  1
  O2-  O430  1  0.83805035  0.94314663  0.48826476  1
  O2-  O431  1  0.83679050  0.93531325  0.80286634  1
  O2-  O432  1  0.15984946  0.07883668  0.18952918  1
  O2-  O433  1  0.11220291  0.08502845  0.45252162  1
  O2-  O434  1  0.16840795  0.07403769  0.84881108  1
  O2-  O435  1  0.17162281  0.34125177  0.17985757  1
  O2-  O436  1  0.14031155  0.32235452  0.52335543  1
  O2-  O437  1  0.16368680  0.32192137  0.84989819  1
  O2-  O438  1  0.17397388  0.58324517  0.12506691  1
  O2-  O439  1  0.15732311  0.58696852  0.47238512  1
  O2-  O440  1  0.17248911  0.60427057  0.86427745  1
  O2-  O441  1  0.16775575  0.83050102  0.18894344  1
  O2-  O442  1  0.17410575  0.83560339  0.51652448  1
  O2-  O443  1  0.15493779  0.82139204  0.86422945  1
  O2-  O444  1  0.41687474  0.08855521  0.19040673  1
  O2-  O445  1  0.40217314  0.08097518  0.53051973  1
  O2-  O446  1  0.40340074  0.03596309  0.82863942  1
  O2-  O447  1  0.41734329  0.34313396  0.17642211  1
  O2-  O448  1  0.40499969  0.33166881  0.53796112  1
  O2-  O449  1  0.40293614  0.38114466  0.86517505  1
  O2-  O450  1  0.41914854  0.58288396  0.19319383  1
  O2-  O451  1  0.41641556  0.59128055  0.52875647  1
  O2-  O452  1  0.41831410  0.59305281  0.85670765  1
  O2-  O453  1  0.42689212  0.84269696  0.18714125  1
  O2-  O454  1  0.42618960  0.84664321  0.52166678  1
  O2-  O455  1  0.40720289  0.83728997  0.82670178  1
  O2-  O456  1  0.68875788  0.07680013  0.17832071  1
  O2-  O457  1  0.67296168  0.08489302  0.49833131  1
  O2-  O458  1  0.64522922  0.06427089  0.85467979  1
  O2-  O459  1  0.68252103  0.35474812  0.18348206  1
  O2-  O460  1  0.73979966  0.40102592  0.49311790  1
  O2-  O461  1  0.64715089  0.32130928  0.84895896  1
  O2-  O462  1  0.67634792  0.59192153  0.17000980  1
  O2-  O463  1  0.65923756  0.56546709  0.53507694  1
  O2-  O464  1  0.65097433  0.56845264  0.85525339  1
  O2-  O465  1  0.66506903  0.83315669  0.18041463  1
  O2-  O466  1  0.66631565  0.83901017  0.53734982  1
  O2-  O467  1  0.66734778  0.83500886  0.84807188  1
  O2-  O468  1  0.93301164  0.09826605  0.16731909  1
  O2-  O469  1  0.95406244  0.11328471  0.52537258  1
  O2-  O470  1  0.93610918  0.09272472  0.85046154  1
  O2-  O471  1  0.91532407  0.34456933  0.17915252  1
  O2-  O472  1  0.92458847  0.34151711  0.54127148  1
  O2-  O473  1  0.90382327  0.33406052  0.83598611  1
  O2-  O474  1  0.92063248  0.58314329  0.18593145  1
  O2-  O475  1  0.90620614  0.60104081  0.52075898  1
  O2-  O476  1  0.90112848  0.57559310  0.84879385  1
  O2-  O477  1  0.92430204  0.83149076  0.18271691  1
  O2-  O478  1  0.91911756  0.85488402  0.52358658  1
  O2-  O479  1  0.90189804  0.82981371  0.80841089  1
  O2-  O480  1  0.14464581  0.08273920  0.32037810  1
  O2-  O481  1  0.22686072  0.15856513  0.60806883  1
  O2-  O482  1  0.16800717  0.08277999  0.97362217  1
  O2-  O483  1  0.16353806  0.35129427  0.30149252  1
  O2-  O484  1  0.14837779  0.32410298  0.64983723  1
  O2-  O485  1  0.15666679  0.33192189  0.97797299  1
  O2-  O486  1  0.16027484  0.56429842  0.34935139  1
  O2-  O487  1  0.21480464  0.61695556  0.59410786  1
  O2-  O488  1  0.15400221  0.58074438  0.98926530  1
  O2-  O489  1  0.14919130  0.81037924  0.32168734  1
  O2-  O490  1  0.18502206  0.81884013  0.63744977  1
  O2-  O491  1  0.17901210  0.83244084  0.97958444  1
  O2-  O492  1  0.46989984  0.10814203  0.31465959  1
  O2-  O493  1  0.41803173  0.07316343  0.64813379  1
  O2-  O494  1  0.41606891  0.08607688  0.98305315  1
  O2-  O495  1  0.44408968  0.24377877  0.33646555  1
  O2-  O496  1  0.42261534  0.32938403  0.65261150  1
  O2-  O497  1  0.40666717  0.33807068  0.98451653  1
  O2-  O498  1  0.41662486  0.58626770  0.32275824  1
  O2-  O499  1  0.43452545  0.58355237  0.65243703  1
  O2-  O500  1  0.39286120  0.57577903  0.97147186  1
  O2-  O501  1  0.42115238  0.83721516  0.31260209  1
  O2-  O502  1  0.41618144  0.74955626  0.64601487  1
  O2-  O503  1  0.41943003  0.83143872  0.97855546  1
  O2-  O504  1  0.64636553  0.08863591  0.32995477  1
  O2-  O505  1  0.67484350  0.07660803  0.64662438  1
  O2-  O506  1  0.66694113  0.08536507  0.97280282  1
  O2-  O507  1  0.68049625  0.33881495  0.34183590  1
  O2-  O508  1  0.67147976  0.31333046  0.61502038  1
  O2-  O509  1  0.64858928  0.31085463  0.97580816  1
  O2-  O510  1  0.64830892  0.55376264  0.34749103  1
  O2-  O511  1  0.66936884  0.57783504  0.65159455  1
  O2-  O512  1  0.65263926  0.56436499  0.97503893  1
  O2-  O513  1  0.70500820  0.92945672  0.28922061  1
  O2-  O514  1  0.66180685  0.85496186  0.66478920  1
  O2-  O515  1  0.66849933  0.83152680  0.97067116  1
  O2-  O516  1  0.91306670  0.09166800  0.28847720  1
  O2-  O517  1  0.91427197  0.00549269  0.68572920  1
  O2-  O518  1  0.92384561  0.08339781  0.97155138  1
  O2-  O519  1  0.90130320  0.33304225  0.30259000  1
  O2-  O520  1  0.93101271  0.37185210  0.65347380  1
  O2-  O521  1  0.90533070  0.31718361  0.98234487  1
  O2-  O522  1  0.91090228  0.57982506  0.31422900  1
  O2-  O523  1  0.88930054  0.61215342  0.64265303  1
  O2-  O524  1  0.93181859  0.63461785  0.96334725  1
  O2-  O525  1  0.91673350  0.82668306  0.30602944  1
  O2-  O526  1  0.91443704  0.80318303  0.68652611  1
  O2-  O527  1  0.92260392  0.83446492  0.96451932  1
  O2-  O528  1  0.08824170  0.16582771  0.01714028  1
  O2-  O529  1  0.07709919  0.17955891  0.33349749  1
  O2-  O530  1  0.07734509  0.14451999  0.68123025  1
  O2-  O531  1  0.06665271  0.40724623  0.01270413  1
  O2-  O532  1  0.04757051  0.36477167  0.36100773  1
  O2-  O533  1  0.09243181  0.42313880  0.69455194  1
  O2-  O534  1  0.07973559  0.67100855  0.01662297  1
  O2-  O535  1  0.03988120  0.66277750  0.40051402  1
  O2-  O536  1  0.05746389  0.68025828  0.69300343  1
  O2-  O537  1  0.09058851  0.91681713  0.01526660  1
  O2-  O538  1  0.07669245  0.90697059  0.35616586  1
  O2-  O539  1  0.07416597  0.84646802  0.70966463  1
  O2-  O540  1  0.33040612  0.16876358  0.02171148  1
  O2-  O541  1  0.29488850  0.14456325  0.39195877  1
  O2-  O542  1  0.34833956  0.16621332  0.68668040  1
  O2-  O543  1  0.32852540  0.42656638  0.01691661  1
  O2-  O544  1  0.31484884  0.42749645  0.36497002  1
  O2-  O545  1  0.31700297  0.40569670  0.67705462  1
  O2-  O546  1  0.32507641  0.66320247  0.01352307  1
  O2-  O547  1  0.34043542  0.67385890  0.36572072  1
  O2-  O548  1  0.35545594  0.67672759  0.67617727  1
  O2-  O549  1  0.34186953  0.91599612  0.01679447  1
  O2-  O550  1  0.36359975  0.94067654  0.35001252  1
  O2-  O551  1  0.35552367  0.91343921  0.67616093  1
  O2-  O552  1  0.55405720  0.12766529  0.03566598  1
  O2-  O553  1  0.60482991  0.19200963  0.39325770  1
  O2-  O554  1  0.59260359  0.16293159  0.67578523  1
  O2-  O555  1  0.57595327  0.40290853  0.01661643  1
  O2-  O556  1  0.57939634  0.38910061  0.38726042  1
  O2-  O557  1  0.59801290  0.41009384  0.67667889  1
  O2-  O558  1  0.59267117  0.67288786  0.01315472  1
  O2-  O559  1  0.57465388  0.64268701  0.38342000  1
  O2-  O560  1  0.59772566  0.67431220  0.69062399  1
  O2-  O561  1  0.56646353  0.88781876  0.01166384  1
  O2-  O562  1  0.57886430  0.92027389  0.36195330  1
  O2-  O563  1  0.61071696  0.89830351  0.67320005  1
  O2-  O564  1  0.83862110  0.15998950  0.00869052  1
  O2-  O565  1  0.81628786  0.16481542  0.32551454  1
  O2-  O566  1  0.85111057  0.19650231  0.67013130  1
  O2-  O567  1  0.79090125  0.33415176  0.03786652  1
  O2-  O568  1  0.83735523  0.42280590  0.36139605  1
  O2-  O569  1  0.82809242  0.43566958  0.68152528  1
  O2-  O570  1  0.80682631  0.69309751  0.02634268  1
  O2-  O571  1  0.83076521  0.66590858  0.35368011  1
  O2-  O572  1  0.83610875  0.65062822  0.65923231  1
  O2-  O573  1  0.83313302  0.91174657  0.00549610  1
  O2-  O574  1  0.88575739  0.95331506  0.35375024  1
  O2-  O575  1  0.88612906  0.84583854  0.64172159  1
