# generated using pymatgen
data_H2O
_symmetry_space_group_name_H-M   'P 1'
_cell_length_a   17.96808010
_cell_length_b   17.96424337
_cell_length_c   21.98302297
_cell_angle_alpha   90.00337576
_cell_angle_beta   89.98805147
_cell_angle_gamma   120.03852590
_symmetry_Int_Tables_number   1
_chemical_formula_structural   H2O
_chemical_formula_sum   'H384 O192'
_cell_volume   6142.70855997
_cell_formula_units_Z   192
loop_
 _symmetry_equiv_pos_site_id
 _symmetry_equiv_pos_as_xyz
  1  'x, y, z'
loop_
 _atom_type_symbol
 _atom_type_oxidation_number
  H+  1.0
  O2-  -2.0
loop_
 _atom_site_type_symbol
 _atom_site_label
 _atom_site_symmetry_multiplicity
 _atom_site_fract_x
 _atom_site_fract_y
 _atom_site_fract_z
 _atom_site_occupancy
  H+  H0  1  0.85496363  0.46189930  0.49656770  1
  H+  H1  1  0.35505550  0.63570967  0.16201321  1
  H+  H2  1  0.72711126  0.11679376  0.00054864  1
  H+  H3  1  0.39435532  0.76774617  0.17495294  1
  H+  H4  1  0.38071659  1.01856925  0.32889621  1
  H+  H5  1  0.13082665  0.35843958  0.51285395  1
  H+  H6  1  0.53470134  0.64248628  0.50249106  1
  H+  H7  1  0.77670765  0.38442335  0.66275883  1
  H+  H8  1  0.08369957  0.83444242  0.51538308  1
  H+  H9  1  0.87662727  0.34796957  0.00335512  1
  H+  H10  1  0.60557183  0.62458499  0.82999112  1
  H+  H11  1  0.35112076  0.38490292  0.30106761  1
  H+  H12  1  0.41460958  0.32404436  0.26346082  1
  H+  H13  1  0.66560471  0.08660166  0.59973165  1
  H+  H14  1  0.86144110  0.22903215  0.67760622  1
  H+  H15  1  0.63552479  0.73245200  0.15649517  1
  H+  H16  1  0.85869073  0.62727920  0.83235358  1
  H+  H17  1  0.32219141  0.41418807  0.20939367  1
  H+  H18  1  0.58427458  0.16007846  0.41560501  1
  H+  H19  1  0.36377664  0.39262236  0.52222494  1
  H+  H20  1  0.38195239  0.86242980  0.83247825  1
  H+  H21  1  0.58779060  0.66016854  0.73373159  1
  H+  H22  1  0.38516034  0.11513171  0.84189117  1
  H+  H23  1  0.60884743  0.68044032  1.09354486  1
  H+  H24  1  0.96617120  0.58840047  0.50641961  1
  H+  H25  1  0.64605402  0.27920295  0.62497638  1
  H+  H26  1  0.76466526  0.36283249  1.01834014  1
  H+  H27  1  1.01911789  0.39480672  0.83001381  1
  H+  H28  1  0.74975826  0.10690520  0.17251860  1
  H+  H29  1  0.27264273  0.62790206  0.66905818  1
  H+  H30  1  0.38645424  0.12055117  0.67002461  1
  H+  H31  1  0.63390703  0.59490770  0.49276911  1
  H+  H32  1  1.01970889  0.65824778  1.01250944  1
  H+  H33  1  0.85994195  0.88028756  0.00895438  1
  H+  H34  1  0.91813860  0.33273212  0.56524134  1
  H+  H35  1  0.28926903  0.79263228  0.10186511  1
  H+  H36  1  0.11623115  0.64670738  0.82837586  1
  H+  H37  1  0.99986871  0.96544568  0.21028097  1
  H+  H38  1  0.20046243  0.83820706  0.35212841  1
  H+  H39  1  0.10527741  0.48510644  0.82756534  1
  H+  H40  1  0.60370058  0.89561281  0.48572475  1
  H+  H41  1  0.26076315  0.84799689  0.14184482  1
  H+  H42  1  0.61070013  0.46679687  0.83898825  1
  H+  H43  1  0.10677864  0.48097695  0.16735638  1
  H+  H44  1  0.98939922  0.12922973  0.84353427  1
  H+  H45  1  -0.01759598  0.12040538  0.18080023  1
  H+  H46  1  0.85773315  0.13812878  0.67940057  1
  H+  H47  1  0.67319163  0.83323342  0.27241836  1
  H+  H48  1  0.19121519  0.86938052  0.66523202  1
  H+  H49  1  0.47846645  0.86295459  0.32482276  1
  H+  H50  1  0.15114012  0.06982411  0.89954640  1
  H+  H51  1  0.67454183  0.34590361  0.23087136  1
  H+  H52  1  0.13288944  0.61906130  0.18032881  1
  H+  H53  1  0.14648639  0.52816489  0.32839256  1
  H+  H54  1  0.01704161  0.14129117  0.34819835  1
  H+  H55  1  0.16282534  0.58925346  0.24032866  1
  H+  H56  1  0.62169453  0.84661925  0.84316284  1
  H+  H57  1  0.27886166  0.15054532  0.67912175  1
  H+  H58  1  0.87077536  0.98120411  0.49592853  1
  H+  H59  1  0.86653263  0.39465116  0.16957110  1
  H+  H60  1  0.76713518  0.13620416  0.49519768  1
  H+  H61  1  1.02606399  0.64752298  0.16939355  1
  H+  H62  1  0.08782303  0.79358553  1.00971126  1
  H+  H63  1  0.27451383  0.63836495  0.34279564  1
  H+  H64  1  0.10353680  0.23178050  0.68520381  1
  H+  H65  1  0.88792333  0.36218040  0.66103304  1
  H+  H66  1  0.47540583  0.35692145  0.50855423  1
  H+  H67  1  0.61136308  0.97088922  0.82646293  1
  H+  H68  1  0.83285587  0.16708283  0.77197421  1
  H+  H69  1  0.60681722  0.37321770  0.49799463  1
  H+  H70  1  0.11471166  0.22088995  0.83864575  1
  H+  H71  1  0.64740114  0.00664944  0.17134487  1
  H+  H72  1  0.72767150  0.11322259  0.32433139  1
  H+  H73  1  0.63898922  0.27603907  0.32002205  1
  H+  H74  1  0.53083938  0.63005774  0.67364685  1
  H+  H75  1  0.94721394  0.87873520  0.24471686  1
  H+  H76  1  0.36007384  0.72410071  0.82239260  1
  H+  H77  1  0.11020625  0.47300587  0.48878993  1
  H+  H78  1  0.67920725  0.07150943  0.23637682  1
  H+  H79  1  0.11115124  0.25625876  0.17172136  1
  H+  H80  1  0.73630477  0.86747249  0.17773996  1
  H+  H81  1  0.88076202  0.76013657  0.84365199  1
  H+  H82  1  0.62736396  0.52081194  0.99555223  1
  H+  H83  1  0.16254268  0.57687253  0.59912299  1
  H+  H84  1  0.39645887  0.14508461  0.51145733  1
  H+  H85  1  0.97098032  0.83534480  0.99126849  1
  H+  H86  1  0.11528820  0.67474162  0.00973473  1
  H+  H87  1  0.77246642  0.13353163  0.83161146  1
  H+  H88  1  0.35116596  -0.02226026  0.82966472  1
  H+  H89  1  0.37148994  0.48062299  0.67776658  1
  H+  H90  1  0.41551042  0.58913193  0.93532757  1
  H+  H91  1  0.13345091  0.01284500  0.99754941  1
  H+  H92  1  0.97338842  0.36442231  0.17917395  1
  H+  H93  1  0.71902166  0.58745311  0.48401880  1
  H+  H94  1  0.26616224  0.13241742  0.83450633  1
  H+  H95  1  0.88483457  0.27416411  0.18215087  1
  H+  H96  1  0.47623418  0.61310348  0.32514301  1
  H+  H97  1  0.53119135  0.65519736  0.99988049  1
  H+  H98  1  0.36145461  0.37642782  0.16537427  1
  H+  H99  1  0.36005650  0.13892408  0.00429000  1
  H+  H100  1  0.11623895  0.41719226  0.00884587  1
  H+  H101  1  0.53088678  0.14078162  0.47656478  1
  H+  H102  1  0.91178034  0.33029706  0.90829873  1
  H+  H103  1  0.10277697  0.38899575  0.16033897  1
  H+  H104  1  0.61322134  0.72377029  0.34207340  1
  H+  H105  1  0.78850816  0.64391580  0.67715011  1
  H+  H106  1  0.62334514  0.74050821  0.99610900  1
  H+  H107  1  0.84738448  0.86868054  0.83704644  1
  H+  H108  1  0.85843878  0.22996812  0.34499563  1
  H+  H109  1  0.40883102  0.75015940  0.64885975  1
  H+  H110  1  0.86298177  0.97673554  0.34370505  1
  H+  H111  1  0.34922535  0.13009530  0.33832117  1
  H+  H112  1  0.12820339  0.26836293  0.51502090  1
  H+  H113  1  0.83373976  0.65946316  0.77191398  1
  H+  H114  1  0.11062557  0.47422364  0.67487942  1
  H+  H115  1  0.39448476  0.53853347  0.99800585  1
  H+  H116  1  0.61144992  0.47515107  0.15831531  1
  H+  H117  1  0.87754881  0.90797150  0.16436500  1
  H+  H118  1  0.51821775  0.38415285  0.00836388  1
  H+  H119  1  0.61371129  0.22452244  0.82876039  1
  H+  H120  1  0.86692875  0.71912157  0.33146045  1
  H+  H121  1  0.21744942  0.86735861  0.83326876  1
  H+  H122  1  0.09844400  0.72039176  0.67579554  1
  H+  H123  1  0.51185874  0.88703493  0.48582478  1
  H+  H124  1  0.32519865  0.89216109  0.67223457  1
  H+  H125  1  0.87011510  0.48923071  0.33521990  1
  H+  H126  1  0.23406268  0.38771231  1.00103852  1
  H+  H127  1  0.82931543  0.41045466  0.77294680  1
  H+  H128  1  0.63426792  0.52068271  0.32715483  1
  H+  H129  1  0.57667959  0.40980677  0.78009978  1
  H+  H130  1  0.22376898  0.62061813  0.84037821  1
  H+  H131  1  0.88176716  0.73025384  0.68432093  1
  H+  H132  1  0.86954686  0.79230613  0.52990076  1
  H+  H133  1  0.20480268  0.85225493  0.46196194  1
  H+  H134  1  0.10336149  0.23088511  0.34560299  1
  H+  H135  1  0.47191999  0.86342749  0.83087996  1
  H+  H136  1  0.13250405  0.02721017  0.50633858  1
  H+  H137  1  0.13978367  0.30822753  1.00250748  1
  H+  H138  1  0.96786623  0.11504209  0.67004392  1
  H+  H139  1  0.65933482  0.62399667  0.66345208  1
  H+  H140  1  0.38079877  1.02940552  -0.00650333  1
  H+  H141  1  0.76100252  0.63097962  1.01031430  1
  H+  H142  1  0.21432882  0.36994269  0.30549754  1
  H+  H143  1  0.08086467  0.69770391  0.49999157  1
  H+  H144  1  0.76473526  0.62762268  0.16651853  1
  H+  H145  1  0.51417350  0.16136919  0.18061313  1
  H+  H146  1  0.39665277  0.88563990  -0.01691226  1
  H+  H147  1  0.12704211  -0.00913049  0.15241649  1
  H+  H148  1  0.36145885  0.47291036  0.82710566  1
  H+  H149  1  0.33052995  0.11490102  0.16150507  1
  H+  H150  1  0.51742768  0.38085806  0.33858443  1
  H+  H151  1  0.38531903  0.77308369  0.50028028  1
  H+  H152  1  0.48024094  0.35739941  0.16877488  1
  H+  H153  1  0.39191537  0.27640049  0.66936994  1
  H+  H154  1  0.13116208  0.60224602  0.50742788  1
  H+  H155  1  0.75650671  0.86529725  0.83605657  1
  H+  H156  1  0.60297065  0.71274480  0.83183769  1
  H+  H157  1  0.87642109  0.58744909  0.49808796  1
  H+  H158  1  0.87000913  0.13441745  0.16897570  1
  H+  H159  1  0.10633422  0.14619086  0.68115308  1
  H+  H160  1  0.73987580  0.38528062  0.17456224  1
  H+  H161  1  0.39073856  0.84226466  0.71962623  1
  H+  H162  1  0.66094160  0.53774732  0.66330045  1
  H+  H163  1  0.25134267  0.92292566  0.01233516  1
  H+  H164  1  0.13465114  0.36378496  0.67073964  1
  H+  H165  1  0.38757424  0.61503097  0.32606402  1
  H+  H166  1  0.09094355  0.91826900  0.43024469  1
  H+  H167  1  0.66108136  0.16559278  0.14976440  1
  H+  H168  1  0.72433029  0.11659506  0.66010939  1
  H+  H169  1  0.38635637  0.36309168  0.66309627  1
  H+  H170  1  0.67147689  0.88672828  0.54362499  1
  H+  H171  1  0.81229817  0.87798878  0.50012919  1
  H+  H172  1  0.87977533  0.11160899  0.33179967  1
  H+  H173  1  0.27814535  0.38845252  0.67555397  1
  H+  H174  1  0.36201979  0.39343516  1.01447684  1
  H+  H175  1  0.35237882  0.64212306  0.00763571  1
  H+  H176  1  0.51479765  0.39798893  0.68334333  1
  H+  H177  1  0.14574659  0.78398598  0.17826450  1
  H+  H178  1  0.40339254  0.91418627  0.49277288  1
  H+  H179  1  0.72630218  0.35814645  0.84673693  1
  H+  H180  1  0.13559054  0.61071162  0.65831364  1
  H+  H181  1  0.36497033  0.72607184  0.34216024  1
  H+  H182  1  0.61129225  0.63386088  0.34062666  1
  H+  H183  1  0.88799119  0.12627929  0.84471038  1
  H+  H184  1  0.74008294  0.85984554  0.67448739  1
  H+  H185  1  0.33472571  0.66092916  0.43734267  1
  H+  H186  1  0.87998432  0.11236412  0.51293883  1
  H+  H187  1  0.62478532  0.35089813  -0.00158026  1
  H+  H188  1  0.51795046  0.13290947  0.32356974  1
  H+  H189  1  0.63501268  0.88789326  0.67289874  1
  H+  H190  1  0.53725491  0.90207121  1.00656017  1
  H+  H191  1  0.88053500  0.02526031  0.67388462  1
  H+  H192  1  0.50932273  0.17600141  0.14958964  1
  H+  H193  1  0.00943077  0.87295490  0.83183078  1
  H+  H194  1  0.35693777  0.23032831  0.49380422  1
  H+  H195  1  0.39531087  0.85368119  0.16679428  1
  H+  H196  1  0.35796508  0.47834057  0.29914943  1
  H+  H197  1  0.11943199  0.11657817  0.17328372  1
  H+  H198  1  0.64391454  0.61455701  0.16810862  1
  H+  H199  1  0.72470567  0.60881911  0.32211091  1
  H+  H200  1  0.72546465  0.35169453  0.52301061  1
  H+  H201  1  0.85874294  0.22409446  0.49566689  1
  H+  H202  1  0.53044528  0.14889291  0.67093032  1
  H+  H203  1  0.38949394  0.26689439  0.16972108  1
  H+  H204  1  0.38842347  0.53355484  0.16914574  1
  H+  H205  1  0.23421337  0.89532719  0.47589772  1
  H+  H206  1  0.87476680  0.76077064  -0.00188062  1
  H+  H207  1  0.27411091  0.39093149  0.52718704  1
  H+  H208  1  0.11888135  0.74742898  0.35891658  1
  H+  H209  1  0.89202173  0.37746831  0.33224642  1
  H+  H210  1  0.87644376  0.48888689  0.16569597  1
  H+  H211  1  0.93835603  0.86127824  0.62732865  1
  H+  H212  1  0.01982651  0.58105828  0.36642812  1
  H+  H213  1  1.00787608  0.37955289  0.34095340  1
  H+  H214  1  0.19399761  0.06889529  0.32453766  1
  H+  H215  1  0.89079797  0.61377063  0.17724491  1
  H+  H216  1  0.07602786  0.17087392  0.44057803  1
  H+  H217  1  0.64007398  1.02013101  0.32185168  1
  H+  H218  1  0.01704866  0.89101852  0.47722226  1
  H+  H219  1  0.20233718  0.34684944  0.16962055  1
  H+  H220  1  0.42975699  0.88602356  0.71595658  1
  H+  H221  1  0.88654759  0.62151105  -0.00218453  1
  H+  H222  1  -0.02547883  0.61133758  0.84133034  1
  H+  H223  1  0.63593990  0.11776919  0.49847219  1
  H+  H224  1  0.60814822  0.46237744  0.48737791  1
  H+  H225  1  0.15450845  0.87516506  0.16635125  1
  H+  H226  1  0.47382913  0.11279289  0.83789880  1
  H+  H227  1  0.42814670  0.59029329  0.71477119  1
  H+  H228  1  0.63725248  0.36372700  0.32592100  1
  H+  H229  1  0.53244396  0.88512121  0.16121772  1
  H+  H230  1  0.10568637  0.37698728  0.33510052  1
  H+  H231  1  0.86175994  0.47259387  0.67301239  1
  H+  H232  1  0.87526412  0.90087187  0.69674352  1
  H+  H233  1  0.65076471  0.76937583  0.66742834  1
  H+  H234  1  0.01751693  0.13668543  0.50133227  1
  H+  H235  1  0.62672936  0.89736878  0.00697088  1
  H+  H236  1  0.88716249  0.52000851  0.84399943  1
  H+  H237  1  0.88870852  0.60867235  0.66029108  1
  H+  H238  1  0.21985634  0.63063331  0.99555720  1
  H+  H239  1  0.95394957  0.78022942  0.53288350  1
  H+  H240  1  0.61854542  0.38991010  0.15837907  1
  H+  H241  1  0.26721329  0.64002081  0.16714036  1
  H+  H242  1  0.11867221  0.86198119  0.82985899  1
  H+  H243  1  0.12360039  0.91720612  0.06712405  1
  H+  H244  1  0.60748637  0.13245978  0.32068886  1
  H+  H245  1  0.01863374  0.38374104  0.49038045  1
  H+  H246  1  0.86020687  0.38299930  0.83334953  1
  H+  H247  1  0.13071687  0.11547043  0.50580539  1
  H+  H248  1  0.26835079  0.13321670  0.00474767  1
  H+  H249  1  0.46953915  0.60697755  0.83990501  1
  H+  H250  1  0.98215099  0.08828601  0.98840071  1
  H+  H251  1  0.59198409  0.91717198  0.10042850  1
  H+  H252  1  0.36525089  0.63911760  0.50112017  1
  H+  H253  1  0.63606028  0.11099484  0.84124986  1
  H+  H254  1  0.69656684  0.74425179  0.52218090  1
  H+  H255  1  0.37822144  0.27615659  0.99818672  1
  H+  H256  1  -0.02277196  0.36238616  0.66221326  1
  H+  H257  1  0.35903913  0.61976404  0.67420984  1
  H+  H258  1  0.41725403  0.09840342  0.60803051  1
  H+  H259  1  0.72146097  0.60313610  0.84141371  1
  H+  H260  1  0.85820177  0.69225108  0.47386308  1
  H+  H261  1  0.97175462  0.36182224  0.99978975  1
  H+  H262  1  0.63206391  0.84251138  0.54147507  1
  H+  H263  1  0.86501646  0.62567734  0.32361013  1
  H+  H264  1  0.51471255  0.12781266  -0.00193659  1
  H+  H265  1  0.88669112  1.01106802  -0.00626873  1
  H+  H266  1  0.61301773  0.13068957  0.00281381  1
  H+  H267  1  0.63038100  0.02736016  0.50303983  1
  H+  H268  1  0.38584488  0.36172516  0.84230192  1
  H+  H269  1  0.36435603  0.88903834  0.33859447  1
  H+  H270  1  0.28188836  -0.03409818  0.19893218  1
  H+  H271  1  0.63582438  0.35608986  0.84731846  1
  H+  H272  1  0.34338468  0.98772080  0.67221948  1
  H+  H273  1  0.04521361  0.90029418  0.15442023  1
  H+  H274  1  0.43156387  0.60724819  0.58370065  1
  H+  H275  1  0.22044229  0.20535221  0.62420696  1
  H+  H276  1  0.62407957  0.97218567  0.67013426  1
  H+  H277  1  0.85222941  0.71806342  0.16613467  1
  H+  H278  1  0.12518906  0.76734380  0.82983061  1
  H+  H279  1  0.88437269  0.27349469  0.84766445  1
  H+  H280  1  0.26927575  0.13882156  0.49436196  1
  H+  H281  1  0.37343238  0.26765690  0.32343473  1
  H+  H282  1  0.72944598  0.86224146  0.33350118  1
  H+  H283  1  0.35502552  0.22387488  0.83684838  1
  H+  H284  1  0.64519473  0.86192114  0.17633323  1
  H+  H285  1  0.23580710  0.34682980  0.84348303  1
  H+  H286  1  0.57588753  0.40422000  0.39816825  1
  H+  H287  1  0.86834280  0.22350485  0.01401261  1
  H+  H288  1  0.61733746  0.88752764  0.33727542  1
  H+  H289  1  0.13207706  0.60973037  0.34246266  1
  H+  H290  1  0.91239958  0.08360856  0.27300251  1
  H+  H291  1  0.15809591  0.32897437  0.61117639  1
  H+  H292  1  0.91022495  0.81922883  0.90379134  1
  H+  H293  1  0.58784397  0.17176496  0.76649407  1
  H+  H294  1  0.82813905  0.63672605  0.41385862  1
  H+  H295  1  0.77227552  0.88768568  0.00687252  1
  H+  H296  1  0.72817120  0.80133532  0.58123897  1
  H+  H297  1  0.43206083  0.82261819  0.56094477  1
  H+  H298  1  0.39415883  0.53589155  0.53384137  1
  H+  H299  1  0.12391715  0.10155042  0.84100511  1
  H+  H300  1  0.05072497  0.94040906  0.32755920  1
  H+  H301  1  0.42047764  0.32881755  0.57082572  1
  H+  H302  1  0.63996327  0.02566056  1.00105810  1
  H+  H303  1  0.32032584  0.66361371  0.06884824  1
  H+  H304  1  0.06163405  0.15764230  0.11473829  1
  H+  H305  1  0.54676486  0.48317420  0.71907595  1
  H+  H306  1  0.84056204  0.91935420  0.40456992  1
  H+  H307  1  0.08002428  0.66758552  0.76663212  1
  H+  H308  1  0.32346802  0.16030739  0.10091045  1
  H+  H309  1  0.07830965  0.41930633  0.73686466  1
  H+  H310  1  0.33656951  0.41383336  0.76661251  1
  H+  H311  1  0.89257245  0.87688326  0.33601685  1
  H+  H312  1  0.58886947  0.91386372  0.76585054  1
  H+  H313  1  0.40861565  0.33580692  0.93940444  1
  H+  H314  1  0.82538739  0.40685128  0.43570544  1
  H+  H315  1  0.91983004  0.33997181  0.27404139  1
  H+  H316  1  0.13639724  0.15650844  0.01857876  1
  H+  H317  1  0.33005165  0.16767595  0.74304006  1
  H+  H318  1  0.92236324  0.59440449  0.94083639  1
  H+  H319  1  0.07829377  0.43489682  0.06895090  1
  H+  H320  1  0.78241743  0.39619632  0.33672981  1
  H+  H321  1  0.37104576  0.00860639  0.16776976  1
  H+  H322  1  0.13940192  0.32896231  0.25780899  1
  H+  H323  1  0.33492345  0.42612638  0.07359621  1
  H+  H324  1  0.91793050  0.58412642  0.24013028  1
  H+  H325  1  0.08339971  0.68229014  0.10905328  1
  H+  H326  1  0.12590453  0.54945428  0.99490035  1
  H+  H327  1  0.41642141  0.08714082  0.93282516  1
  H+  H328  1  0.22308022  0.60537201  0.50542574  1
  H+  H329  1  0.65939056  0.32317599  0.93942227  1
  H+  H330  1  0.90840665  0.08350214  0.57395482  1
  H+  H331  1  0.01699894  0.62656860  0.67252459  1
  H+  H332  1  0.31956154  0.16153334  0.39581886  1
  H+  H333  1  0.09584431  0.85490845  0.66873118  1
  H+  H334  1  0.34692666  0.47918913  0.39837930  1
  H+  H335  1  0.61692520  0.14530539  0.66781854  1
  H+  H336  1  0.32852883  0.66072773  0.76462717  1
  H+  H337  1  0.47267104  0.35675043  0.84843213  1
  H+  H338  1  0.17784755  0.11376075  0.59586036  1
  H+  H339  1  0.48906891  0.19615005  0.54051024  1
  H+  H340  1  0.41846004  0.83099935  0.26670981  1
  H+  H341  1  0.40289761  1.00227553  0.49747647  1
  H+  H342  1  0.07309312  0.16471941  0.77607947  1
  H+  H343  1  0.43140704  0.85962045  0.92609786  1
  H+  H344  1  0.67703125  0.25881757  0.14759925  1
  H+  H345  1  0.09862494  0.96464210  0.82791604  1
  H+  H346  1  0.82993161  0.91762725  0.75339521  1
  H+  H347  1  0.14725901  0.05313125  0.26129702  1
  H+  H348  1  0.66167888  0.57850465  0.23154838  1
  H+  H349  1  0.66497383  0.08221089  0.90165916  1
  H+  H350  1  0.82059833  0.66101408  0.07068024  1
  H+  H351  1  0.83609022  0.16252117  0.10811093  1
  H+  H352  1  0.82594312  0.16714801  0.40275613  1
  H+  H353  1  0.08899174  0.79954070  0.58017556  1
  H+  H354  1  0.66276771  0.57719498  0.90161415  1
  H+  H355  1  0.03264562  0.90506144  0.73017972  1
  H+  H356  1  0.96826621  0.62028904  0.31981111  1
  H+  H357  1  0.41618839  0.59298655  0.22754837  1
  H+  H358  1  0.88382028  0.35811981  0.50546195  1
  H+  H359  1  0.83726993  0.92029563  0.10203667  1
  H+  H360  1  0.07502674  0.64082070  0.43722026  1
  H+  H361  1  0.65416682  0.82401953  0.90514636  1
  H+  H362  1  0.71787206  0.92080459  0.95083469  1
  H+  H363  1  0.21237662  0.11978850  0.17096438  1
  H+  H364  1  0.86651553  0.13333094  0.01404842  1
  H+  H365  1  0.31495763  0.92399949  0.76804363  1
  H+  H366  1  0.58431985  0.66538452  0.43852152  1
  H+  H367  1  0.50122791  0.83841503  0.64994934  1
  H+  H368  1  0.07635976  0.40706040  0.40457912  1
  H+  H369  1  0.31419836  0.90728287  0.05339838  1
  H+  H370  1  0.60896490  0.22602563  0.00199008  1
  H+  H371  1  0.39025695  0.06779321  0.26760392  1
  H+  H372  1  0.38096196  0.60936834  0.83873009  1
  H+  H373  1  0.83099641  0.40426754  0.07275594  1
  H+  H374  1  0.34190006  0.46931435  0.43196958  1
  H+  H375  1  0.16510122  0.60066171  0.90077145  1
  H+  H376  1  0.58235906  0.92102499  0.39250785  1
  H+  H377  1  0.17740907  0.33137427  0.90271413  1
  H+  H378  1  0.35466749  0.93174920  0.39862245  1
  H+  H379  1  0.91955883  0.08911265  0.90632107  1
  H+  H380  1  0.88738734  0.03053665  0.17757635  1
  H+  H381  1  0.58116893  0.41396130  0.06607902  1
  H+  H382  1  0.63193577  0.61374089  0.99171626  1
  H+  H383  1  0.90990709  0.57193625  0.59935359  1
  O2-  O384  1  0.06929474  0.16271162  0.15864184  1
  O2-  O385  1  0.07841185  0.16776246  0.48663156  1
  O2-  O386  1  0.07219909  0.15990439  0.82183122  1
  O2-  O387  1  0.07377410  0.42215095  0.14872234  1
  O2-  O388  1  0.07835538  0.41207700  0.47233847  1
  O2-  O389  1  0.07664998  0.42601763  0.81081786  1
  O2-  O390  1  0.08754719  0.67982665  0.15429217  1
  O2-  O391  1  0.06866261  0.64049361  0.48610199  1
  O2-  O392  1  0.08398496  0.67587037  0.81213834  1
  O2-  O393  1  0.10444716  0.92936332  0.13797993  1
  O2-  O394  1  0.08039571  0.92415368  0.47320112  1
  O2-  O395  1  0.06829826  0.90453351  0.81132763  1
  O2-  O396  1  0.32086666  0.16123062  0.14619323  1
  O2-  O397  1  0.32948201  0.16941333  0.47840320  1
  O2-  O398  1  0.32716499  0.16353866  0.82053074  1
  O2-  O399  1  0.32670366  0.40616197  0.16447184  1
  O2-  O400  1  0.33705817  0.42912080  0.52521892  1
  O2-  O401  1  0.33646956  0.41230710  0.81246033  1
  O2-  O402  1  0.32630576  0.66989631  0.14925172  1
  O2-  O403  1  0.33062233  0.66295079  0.48264450  1
  O2-  O404  1  0.32833322  0.66222134  0.81037071  1
  O2-  O405  1  0.31049805  0.85089350  0.11722190  1
  O2-  O406  1  0.40282645  0.96084804  0.46887408  1
  O2-  O407  1  0.31578221  0.91782554  0.81314593  1
  O2-  O408  1  0.68667702  0.21705536  0.12463912  1
  O2-  O409  1  0.58896045  0.16130271  0.46077735  1
  O2-  O410  1  0.58234568  0.16474254  0.81148751  1
  O2-  O411  1  0.58256711  0.41468229  0.14245430  1
  O2-  O412  1  0.57446983  0.39720936  0.47772599  1
  O2-  O413  1  0.57963850  0.40491216  0.82521813  1
  O2-  O414  1  0.61573194  0.67542073  0.13767750  1
  O2-  O415  1  0.59210563  0.66462751  0.48333248  1
  O2-  O416  1  0.57425379  0.65326578  0.81379271  1
  O2-  O417  1  0.59374678  0.91693507  0.14673474  1
  O2-  O418  1  0.57312964  0.92324646  0.46907876  1
  O2-  O419  1  0.57960859  0.91086942  0.81101150  1
  O2-  O420  1  0.83358486  0.16058456  0.15386225  1
  O2-  O421  1  0.82799279  0.16382744  0.47976382  1
  O2-  O422  1  0.83400446  0.16476620  0.81785589  1
  O2-  O423  1  0.84138086  0.42746984  0.15118726  1
  O2-  O424  1  0.82334697  0.40052262  0.48077661  1
  O2-  O425  1  0.82945870  0.41323088  0.81804038  1
  O2-  O426  1  0.82633328  0.65995986  0.14989702  1
  O2-  O427  1  0.82608222  0.63149264  0.45957961  1
  O2-  O428  1  0.82724979  0.65682268  0.81729145  1
  O2-  O429  1  0.83710208  0.92538043  0.14751644  1
  O2-  O430  1  0.85482330  0.92644357  0.47475287  1
  O2-  O431  1  0.81770461  0.89966924  0.82321654  1
  O2-  O432  1  0.15128095  0.08298200  0.18322500  1
  O2-  O433  1  0.16352413  0.08752129  0.52169393  1
  O2-  O434  1  0.15413381  0.07035622  0.85434260  1
  O2-  O435  1  0.14198065  0.32232972  0.18287742  1
  O2-  O436  1  0.15673245  0.32775110  0.53328542  1
  O2-  O437  1  0.17997045  0.30654681  0.86334818  1
  O2-  O438  1  0.16071390  0.58586666  0.19458650  1
  O2-  O439  1  0.16229578  0.57087141  0.52015620  1
  O2-  O440  1  0.16338084  0.59677120  0.85509365  1
  O2-  O441  1  0.18716483  0.84771397  0.18164560  1
  O2-  O442  1  0.05776705  0.78199018  0.54087622  1
  O2-  O443  1  0.15321268  0.83214064  0.84398564  1
  O2-  O444  1  0.33428170  0.02192720  0.19268059  1
  O2-  O445  1  0.44246424  0.13754740  0.53292404  1
  O2-  O446  1  0.41435284  0.08274096  0.85532814  1
  O2-  O447  1  0.41957583  0.32740061  0.18466511  1
  O2-  O448  1  0.41532502  0.32820768  0.52558175  1
  O2-  O449  1  0.41102377  0.32837661  0.86160522  1
  O2-  O450  1  0.40963577  0.59294133  0.18254489  1
  O2-  O451  1  0.42736669  0.60022320  0.53918032  1
  O2-  O452  1  0.40897808  0.57758168  0.85550765  1
  O2-  O453  1  0.42856870  0.83053893  0.18724239  1
  O2-  O454  1  0.42082511  0.83248918  0.51692553  1
  O2-  O455  1  0.41173354  0.83227684  0.84722632  1
  O2-  O456  1  0.68387158  0.06862225  0.18914023  1
  O2-  O457  1  0.66320512  0.08694581  0.51933936  1
  O2-  O458  1  0.66677984  0.08119292  0.85640513  1
  O2-  O459  1  0.67709300  0.35062933  0.18550958  1
  O2-  O460  1  0.66657394  0.32520964  0.54181415  1
  O2-  O461  1  0.66561798  0.32489200  0.86218093  1
  O2-  O462  1  0.66693256  0.57758618  0.18624195  1
  O2-  O463  1  0.65939493  0.55788113  0.50028688  1
  O2-  O464  1  0.66036515  0.57258722  0.85605869  1
  O2-  O465  1  0.67618405  0.83404701  0.19389617  1
  O2-  O466  1  0.74924068  0.78573878  0.54433270  1
  O2-  O467  1  0.64751377  0.81294607  0.85952762  1
  O2-  O468  1  0.91666855  0.08934070  0.19564934  1
  O2-  O469  1  0.91244468  0.08473441  0.52868349  1
  O2-  O470  1  0.92406473  0.10037796  0.86066185  1
  O2-  O471  1  0.91486875  0.33351303  0.19863186  1
  O2-  O472  1  0.91830080  0.33118782  0.51967479  1
  O2-  O473  1  0.91146351  0.33359219  0.86263069  1
  O2-  O474  1  0.92512013  0.58826921  0.19209838  1
  O2-  O475  1  0.90460688  0.55994437  0.52132021  1
  O2-  O476  1  0.91515491  0.58115264  0.85784107  1
  O2-  O477  1  0.96157606  0.90423005  0.20237160  1
  O2-  O478  1  0.91602087  0.79193169  0.50666438  1
  O2-  O479  1  0.91234060  0.82140401  0.85816053  1
  O2-  O480  1  0.14097210  0.02877144  0.30268086  1
  O2-  O481  1  0.19322527  0.14498366  0.63622508  1
  O2-  O482  1  0.15236163  0.07095684  0.97933070  1
  O2-  O483  1  0.14967949  0.33887058  0.30337305  1
  O2-  O484  1  0.16255546  0.33020095  0.65665405  1
  O2-  O485  1  0.17477471  0.36385161  0.98310482  1
  O2-  O486  1  0.17177931  0.58897169  0.31770718  1
  O2-  O487  1  0.16485343  0.57906086  0.64464479  1
  O2-  O488  1  0.16000546  0.60889721  0.97867947  1
  O2-  O489  1  0.13783737  0.80930731  0.35654811  1
  O2-  O490  1  0.12998370  0.82818380  0.65564555  1
  O2-  O491  1  0.07787162  0.84165585  0.99498739  1
  O2-  O492  1  0.40734616  0.07878518  0.31073537  1
  O2-  O493  1  0.41267200  0.08704324  0.65271832  1
  O2-  O494  1  0.41858649  0.09048579  0.97852056  1
  O2-  O495  1  0.40793693  0.32820332  0.30832127  1
  O2-  O496  1  0.42012048  0.33436988  0.64997150  1
  O2-  O497  1  0.40887349  0.33743752  0.98509354  1
  O2-  O498  1  0.41759685  0.58683482  0.30659765  1
  O2-  O499  1  0.42106153  0.57606704  0.67152371  1
  O2-  O500  1  0.42212512  0.59713223  0.98039733  1
  O2-  O501  1  0.41690902  0.83152414  0.31206449  1
  O2-  O502  1  0.45303119  0.79786007  0.62374591  1
  O2-  O503  1  0.44679929  0.88420841  0.96770313  1
  O2-  O504  1  0.67048911  0.07971175  0.30327146  1
  O2-  O505  1  0.66375153  0.08416282  0.64519588  1
  O2-  O506  1  0.66705934  0.08677257  0.98460904  1
  O2-  O507  1  0.67181132  0.33845836  0.30975416  1
  O2-  O508  1  0.68280449  0.33796613  0.60776677  1
  O2-  O509  1  0.65182273  0.31642016  0.98476855  1
  O2-  O510  1  0.66222013  0.58036601  0.31062583  1
  O2-  O511  1  0.69551784  0.59859788  0.65171191  1
  O2-  O512  1  0.66040460  0.58049516  0.97887973  1
  O2-  O513  1  0.66891457  0.83284473  0.31790417  1
  O2-  O514  1  0.68513028  0.82917271  0.65105392  1
  O2-  O515  1  0.68554949  0.86777076  0.97422416  1
  O2-  O516  1  0.91033665  0.08102746  0.31864194  1
  O2-  O517  1  0.90745000  0.08371380  0.65474854  1
  O2-  O518  1  0.92267510  0.07273291  0.97842798  1
  O2-  O519  1  0.92183601  0.34343417  0.32001280  1
  O2-  O520  1  0.91706258  0.33098002  0.64541296  1
  O2-  O521  1  0.91169298  0.32184011  0.98610607  1
  O2-  O522  1  0.90938054  0.58034873  0.30676006  1
  O2-  O523  1  0.91489394  0.57445776  0.64492308  1
  O2-  O524  1  0.92749198  0.60253758  0.98541945  1
  O2-  O525  1  0.92664427  0.84994580  0.31696329  1
  O2-  O526  1  0.93840273  0.85089499  0.67125036  1
  O2-  O527  1  0.91153285  0.82108449  0.98157491  1
  O2-  O528  1  0.09392620  0.09772405  0.00641525  1
  O2-  O529  1  0.07503845  0.17517380  0.36671956  1
  O2-  O530  1  0.07249923  0.16993397  0.69997500  1
  O2-  O531  1  0.07787409  0.43815720  0.02356479  1
  O2-  O532  1  0.07313045  0.40565783  0.35666320  1
  O2-  O533  1  0.07961189  0.41413174  0.69086281  1
  O2-  O534  1  0.08084067  0.69805127  0.02873578  1
  O2-  O535  1  0.07694648  0.63043785  0.37310591  1
  O2-  O536  1  0.07692234  0.66028964  0.68959873  1
  O2-  O537  1  0.14476102  0.92127098  0.02353036  1
  O2-  O538  1  0.00693691  0.88979321  0.35223932  1
  O2-  O539  1  0.03097222  0.90455081  0.68468912  1
  O2-  O540  1  0.32743540  0.16606987  0.02101164  1
  O2-  O541  1  0.31583935  0.15828653  0.35067859  1
  O2-  O542  1  0.33656009  0.17106471  0.69758997  1
  O2-  O543  1  0.33473267  0.42734019  0.02885818  1
  O2-  O544  1  0.32078886  0.41613593  0.28775051  1
  O2-  O545  1  0.33862705  0.41431397  0.68947970  1
  O2-  O546  1  0.31671651  0.66527770  0.02378941  1
  O2-  O547  1  0.33578188  0.66563240  0.35760219  1
  O2-  O548  1  0.33189600  0.65570267  0.68629963  1
  O2-  O549  1  0.31004936  0.93140362  0.01345721  1
  O2-  O550  1  0.33710774  0.92129352  0.35495548  1
  O2-  O551  1  0.30244874  0.92752274  0.68813167  1
  O2-  O552  1  0.57738731  0.15964828  0.01274882  1
  O2-  O553  1  0.57982682  0.16449364  0.33625112  1
  O2-  O554  1  0.59270039  0.18255747  0.68047507  1
  O2-  O555  1  0.58007106  0.41263609  0.02017279  1
  O2-  O556  1  0.57822698  0.41055684  0.35285759  1
  O2-  O557  1  0.56534669  0.44253271  0.70756225  1
  O2-  O558  1  0.59321425  0.68103224  0.01138781  1
  O2-  O559  1  0.58006683  0.66295442  0.35645559  1
  O2-  O560  1  0.59265660  0.66210334  0.68843018  1
  O2-  O561  1  0.59470168  0.92608174  0.02667673  1
  O2-  O562  1  0.58681937  0.92020459  0.34704258  1
  O2-  O563  1  0.59999145  0.91355398  0.68776360  1
  O2-  O564  1  0.83633305  0.16233831  0.03016752  1
  O2-  O565  1  0.82637418  0.16845411  0.35688850  1
  O2-  O566  1  0.82825189  0.16937805  0.69485176  1
  O2-  O567  1  0.82611939  0.39107717  0.02850797  1
  O2-  O568  1  0.84245772  0.42674855  0.35247506  1
  O2-  O569  1  0.82999058  0.41112998  0.68716245  1
  O2-  O570  1  0.82167731  0.66337014  0.02536511  1
  O2-  O571  1  0.83135442  0.65713600  0.33946219  1
  O2-  O572  1  0.84949901  0.66867601  0.69458767  1
  O2-  O573  1  0.83441622  0.91487349  0.02383920  1
  O2-  O574  1  0.83617922  0.91565718  0.35799305  1
  O2-  O575  1  0.83826148  0.92505585  0.70708583  1
