# generated using pymatgen
data_H2O
_symmetry_space_group_name_H-M   'P 1'
_cell_length_a   17.98680588
_cell_length_b   17.98338362
_cell_length_c   21.99151229
_cell_angle_alpha   89.99799674
_cell_angle_beta   89.98897170
_cell_angle_gamma   119.99112903
_symmetry_Int_Tables_number   1
_chemical_formula_structural   H2O
_chemical_formula_sum   'H384 O192'
_cell_volume   6160.98264113
_cell_formula_units_Z   192
loop_
 _symmetry_equiv_pos_site_id
 _symmetry_equiv_pos_as_xyz
  1  'x, y, z'
loop_
 _atom_type_symbol
 _atom_type_oxidation_number
  H+  1.0
  O2-  -2.0
loop_
 _atom_site_type_symbol
 _atom_site_label
 _atom_site_symmetry_multiplicity
 _atom_site_fract_x
 _atom_site_fract_y
 _atom_site_fract_z
 _atom_site_occupancy
  H+  H0  1  0.93184081  0.08874775  0.53392882  1
  H+  H1  1  0.50764448  0.35475271  0.55615089  1
  H+  H2  1  0.84238393  0.85358623  0.18353582  1
  H+  H3  1  0.10839875  0.73250963  0.34396274  1
  H+  H4  1  0.84980529  0.50667305  0.85006999  1
  H+  H5  1  0.86118768  0.26400357  0.83703657  1
  H+  H6  1  0.49425717  0.39067439  0.17611408  1
  H+  H7  1  0.59158724  0.41714589  0.72452588  1
  H+  H8  1  0.36475925  0.63887084  0.15201552  1
  H+  H9  1  0.36600769  0.89806188  0.81853045  1
  H+  H10  1  0.93650908  0.08108417  0.60459099  1
  H+  H11  1  0.86089461  0.19730178  0.50493590  1
  H+  H12  1  0.40632377  0.82585488  0.57123425  1
  H+  H13  1  0.38334270  0.85678651  0.66369803  1
  H+  H14  1  0.88117266  0.27735427  0.15857625  1
  H+  H15  1  0.37303399  0.18850853  0.25898569  1
  H+  H16  1  0.90305583  0.83234255  0.92491176  1
  H+  H17  1  0.65486628  0.36275670  0.65717202  1
  H+  H18  1  0.34107377  0.46765138  0.78781872  1
  H+  H19  1  0.63396574  0.27663491  0.17324829  1
  H+  H20  1  0.36562958  0.27421258  0.36066521  1
  H+  H21  1  0.94118065  -0.00878925  0.21542233  1
  H+  H22  1  0.10750771  0.40113803  0.32853772  1
  H+  H23  1  0.63628395  0.76518653  0.17273443  1
  H+  H24  1  0.74329213  0.36660289  0.50449997  1
  H+  H25  1  0.46421326  0.44710206  0.96076783  1
  H+  H26  1  0.40440429  0.38748529  0.65419444  1
  H+  H27  1  0.05101258  0.66418836  0.00679155  1
  H+  H28  1  0.14854165  0.77887630  0.84203614  1
  H+  H29  1  0.12074990  0.26611105  0.42859661  1
  H+  H30  1  0.36763812  0.88003742  0.14211288  1
  H+  H31  1  0.86849090  0.86334644  -0.00852764  1
  H+  H32  1  0.11047393  0.49221948  -0.00703802  1
  H+  H33  1  0.10558531  0.45679478  0.48450465  1
  H+  H34  1  0.00836124  0.39654948  0.64702894  1
  H+  H35  1  0.62812476  0.11049815  0.83933232  1
  H+  H36  1  0.58747510  0.41717776  0.40962634  1
  H+  H37  1  0.32638820  0.43287695  0.39101042  1
  H+  H38  1  0.63547067  0.11296912  0.99589081  1
  H+  H39  1  0.19643373  0.37190167  0.64748843  1
  H+  H40  1  0.22703924  0.11594785  0.52055695  1
  H+  H41  1  0.89007709  0.02900956  0.34150780  1
  H+  H42  1  0.60190885  0.88317380  0.50664075  1
  H+  H43  1  0.13759759  0.15092632  0.53995468  1
  H+  H44  1  0.37136331  0.73327591  0.34135030  1
  H+  H45  1  0.86306059  0.47461354  0.33704808  1
  H+  H46  1  0.13912114  0.87071528  0.33694038  1
  H+  H47  1  0.14324989  0.26888173  0.82829972  1
  H+  H48  1  0.87765958  0.77351699  -0.00767882  1
  H+  H49  1  0.89829350  0.61902859  0.67067386  1
  H+  H50  1  0.98875175  0.07860515  0.18034712  1
  H+  H51  1  0.12154248  0.12863573  0.99373826  1
  H+  H52  1  0.89071716  0.87574593  0.51347681  1
  H+  H53  1  0.15661931  0.43774110  0.64742372  1
  H+  H54  1  0.13191332  0.32270397  1.03693469  1
  H+  H55  1  0.39816180  0.10530033  0.31946367  1
  H+  H56  1  0.61729746  0.89129014  0.82499121  1
  H+  H57  1  0.87574371  0.61984087  0.49096018  1
  H+  H58  1  0.62147520  0.64008832  0.99840451  1
  H+  H59  1  0.38427394  0.09093474  0.16968319  1
  H+  H60  1  0.10979433  0.87732681  0.67588587  1
  H+  H61  1  0.47627048  0.87447017  0.82684759  1
  H+  H62  1  0.98446083  0.85071106  0.17384998  1
  H+  H63  1  0.37787687  1.02488942  0.50603140  1
  H+  H64  1  -0.01063145  0.07325126  0.69265131  1
  H+  H65  1  0.61559092  0.39193056  0.16058580  1
  H+  H66  1  0.88736820  0.86825779  0.84225494  1
  H+  H67  1  0.13347487  0.65323719  0.00459838  1
  H+  H68  1  0.55428253  0.38892028  0.65592603  1
  H+  H69  1  0.61760502  0.62581479  0.66204425  1
  H+  H70  1  0.13960033  0.12873926  0.16808887  1
  H+  H71  1  0.40579383  0.04278610  0.98431267  1
  H+  H72  1  0.37886926  0.11380544  0.51232045  1
  H+  H73  1  0.76940651  0.88857717  0.34277961  1
  H+  H74  1  0.28332398  0.40540308  0.15529056  1
  H+  H75  1  0.13702199  0.29964570  0.31519325  1
  H+  H76  1  0.37658145  -0.02818726  0.14822138  1
  H+  H77  1  0.72916200  0.36695258  -0.01846236  1
  H+  H78  1  0.88249269  0.77543428  0.84282310  1
  H+  H79  1  0.97274836  0.36370235  0.99118712  1
  H+  H80  1  0.11519168  0.88980054  0.50390311  1
  H+  H81  1  0.38615132  0.02741472  0.83224736  1
  H+  H82  1  0.62923938  0.86723083  0.99902124  1
  H+  H83  1  0.75673904  0.09238378  0.67826793  1
  H+  H84  1  0.84871911  0.13516691  0.16873883  1
  H+  H85  1  0.74648933  0.91995004  0.13860034  1
  H+  H86  1  0.59118934  0.72815029  0.79091657  1
  H+  H87  1  0.22657685  0.86622621  0.33010554  1
  H+  H88  1  0.58663483  0.66567693  0.09826586  1
  H+  H89  1  0.85347381  0.13572334  0.82977214  1
  H+  H90  1  0.10985624  0.40208995  -0.00950261  1
  H+  H91  1  0.62496882  0.26906201  0.83503856  1
  H+  H92  1  0.63096896  0.52675253  0.33240282  1
  H+  H93  1  0.08727195  0.09961151  0.68258774  1
  H+  H94  1  0.45800270  0.59522398  0.51026869  1
  H+  H95  1  0.37629759  0.75649870  0.15865301  1
  H+  H96  1  0.38326350  0.79912841  0.03118499  1
  H+  H97  1  0.62639095  0.01935825  0.17941262  1
  H+  H98  1  0.53648845  0.40133427  0.00272996  1
  H+  H99  1  0.84546082  0.43425054  -0.06705618  1
  H+  H100  1  0.48252809  0.62336077  0.17306490  1
  H+  H101  1  0.73249089  0.61737371  -0.01274660  1
  H+  H102  1  0.85678266  0.37995387  0.14324999  1
  H+  H103  1  0.88575575  0.02418846  0.99081789  1
  H+  H104  1  0.38017000  0.62468914  0.32447944  1
  H+  H105  1  0.46383146  0.89231293  0.28302884  1
  H+  H106  1  0.85678318  0.13362012  0.34899640  1
  H+  H107  1  0.38657775  0.55959444  0.56404333  1
  H+  H108  1  0.86815860  0.38794594  0.98341086  1
  H+  H109  1  0.02673252  0.89157133  0.50224778  1
  H+  H110  1  0.97825523  0.86461362  0.66377428  1
  H+  H111  1  0.37772492  0.65546982  0.83745396  1
  H+  H112  1  0.59708946  0.71097855  0.50314326  1
  H+  H113  1  0.43597019  0.36752549  0.27730767  1
  H+  H114  1  0.65179380  0.52482090  0.65902766  1
  H+  H115  1  0.14767201  0.02148597  0.83478711  1
  H+  H116  1  0.23612712  0.62538484  0.84555588  1
  H+  H117  1  0.53782437  0.14722699  0.34464083  1
  H+  H118  1  0.16911018  0.79503624  0.99349256  1
  H+  H119  1  0.76369369  0.88520839  -0.00311643  1
  H+  H120  1  0.97025342  0.36666099  0.15167254  1
  H+  H121  1  0.62493465  1.01092339  0.65744123  1
  H+  H122  1  0.52079979  0.13675982  0.82134979  1
  H+  H123  1  0.02243126  0.64125777  0.49291205  1
  H+  H124  1  0.61549044  -0.02070721  0.82367817  1
  H+  H125  1  0.46759302  0.86121088  0.51344423  1
  H+  H126  1  0.11269952  0.39486392  0.14427657  1
  H+  H127  1  0.89415693  0.51303769  0.15805441  1
  H+  H128  1  0.25621328  0.37787136  0.46677351  1
  H+  H129  1  0.18378421  0.85023604  0.89741541  1
  H+  H130  1  0.36100911  0.72342369  0.49491390  1
  H+  H131  1  0.62748802  0.77604767  0.99274973  1
  H+  H132  1  0.03034065  0.88605798  0.83315335  1
  H+  H133  1  0.36890223  0.23092023  0.81845727  1
  H+  H134  1  0.73971730  0.35645732  0.66080388  1
  H+  H135  1  0.26709515  0.37860151  0.81424741  1
  H+  H136  1  0.22019392  0.11537916  0.16990568  1
  H+  H137  1  0.87074600  0.73158320  0.67136414  1
  H+  H138  1  0.38760453  0.78779298  0.83226320  1
  H+  H139  1  0.61728092  0.39195922  0.34747837  1
  H+  H140  1  0.60989838  0.97755589  0.01029569  1
  H+  H141  1  0.27216032  0.12940229  0.67073466  1
  H+  H142  1  0.64598286  0.24884305  0.49809164  1
  H+  H143  1  0.63716566  0.14505256  0.49682057  1
  H+  H144  1  0.84649854  0.85086238  0.14952012  1
  H+  H145  1  0.27309754  0.14019208  -0.00426197  1
  H+  H146  1  0.88640284  0.34182415  0.50523086  1
  H+  H147  1  0.61244145  0.13839910  0.16222205  1
  H+  H148  1  0.72246395  0.10960947  -0.00574725  1
  H+  H149  1  0.86404365  0.47567243  0.48810238  1
  H+  H150  1  0.72283649  0.61316591  0.50172112  1
  H+  H151  1  0.89329818  0.87027458  0.32277552  1
  H+  H152  1  0.85520902  0.73151581  0.48648247  1
  H+  H153  1  0.63246309  0.61734860  0.83225886  1
  H+  H154  1  0.13107353  0.24057091  0.51542506  1
  H+  H155  1  -0.03696557  0.36091667  0.33226697  1
  H+  H156  1  0.62060261  0.23156100  0.00760956  1
  H+  H157  1  0.40647459  0.55057547  0.87534431  1
  H+  H158  1  0.38475612  0.76718048  0.66672150  1
  H+  H159  1  0.03893017  0.65290272  0.70365543  1
  H+  H160  1  0.05339200  0.65971592  0.84107269  1
  H+  H161  1  0.23770171  0.11134092  0.83023166  1
  H+  H162  1  0.27541627  0.89715009  0.82177400  1
  H+  H163  1  0.76556678  0.12901653  0.34889207  1
  H+  H164  1  0.35755292  0.88395091  0.49717508  1
  H+  H165  1  0.61379717  0.72678772  0.35191314  1
  H+  H166  1  0.12885271  0.59720872  0.49350494  1
  H+  H167  1  0.47560541  0.85092147  1.00331991  1
  H+  H168  1  0.72824951  0.10689188  0.51188105  1
  H+  H169  1  0.25820580  0.88465907  -0.01247537  1
  H+  H170  1  0.22302665  0.62121876  0.34037612  1
  H+  H171  1  1.05714929  0.16562565  0.56318489  1
  H+  H172  1  0.12556072  0.49123370  0.82072254  1
  H+  H173  1  0.76918659  0.89119578  0.67411236  1
  H+  H174  1  0.27102131  0.63255001  0.14804208  1
  H+  H175  1  0.81592857  0.97359032  0.55910312  1
  H+  H176  1  0.37233313  0.14336880  0.81691634  1
  H+  H177  1  0.66453597  0.78185073  0.85833640  1
  H+  H178  1  0.63410999  0.76675175  0.66110533  1
  H+  H179  1  0.58458392  0.16644812  0.76391088  1
  H+  H180  1  0.35483213  0.62861266  0.67960035  1
  H+  H181  1  0.89522195  0.59757701  0.18092463  1
  H+  H182  1  0.29746938  0.49669205  0.63484040  1
  H+  H183  1  0.62866511  0.85439935  0.66400949  1
  H+  H184  1  0.37611669  0.41210495  0.15995481  1
  H+  H185  1  0.90755533  0.36764050  0.65376545  1
  H+  H186  1  0.14527002  0.90737364  1.00039485  1
  H+  H187  1  0.62241797  0.38568394  0.50051490  1
  H+  H188  1  0.14234804  0.82871853  0.24345621  1
  H+  H189  1  0.61742015  0.63683723  0.15833584  1
  H+  H190  1  0.72759430  0.61093495  0.19125045  1
  H+  H191  1  0.63744939  0.11441392  0.33336977  1
  H+  H192  1  0.60894393  0.38659757  0.82177768  1
  H+  H193  1  0.13200308  0.53533431  0.33725999  1
  H+  H194  1  0.86198905  0.13656017  0.00962688  1
  H+  H195  1  0.72284053  0.36409942  0.16873840  1
  H+  H196  1  0.62466574  0.61368532  0.33190040  1
  H+  H197  1  0.60431140  0.88258338  0.16740555  1
  H+  H198  1  0.73752566  0.61809683  0.65968301  1
  H+  H199  1  0.87603409  0.64768314  0.00940223  1
  H+  H200  1  0.51275666  0.87598960  0.16280418  1
  H+  H201  1  0.82518205  0.14530650  0.44357312  1
  H+  H202  1  1.02648502  0.17220815  0.35276443  1
  H+  H203  1  0.66334659  0.58905002  0.89245306  1
  H+  H204  1  0.34995069  0.18182940  0.37438226  1
  H+  H205  1  0.35174032  0.38456043  0.00228745  1
  H+  H206  1  0.11413887  0.98889283  0.15584559  1
  H+  H207  1  0.62519544  0.23881094  0.34146912  1
  H+  H208  1  0.12460762  0.40377866  0.81128859  1
  H+  H209  1  0.73060122  0.37012430  0.32925501  1
  H+  H210  1  0.60922119  -0.02295154  0.50470438  1
  H+  H211  1  0.84351959  0.99100761  0.14771259  1
  H+  H212  1  0.14286606  0.53011441  0.15854460  1
  H+  H213  1  0.52220535  0.88461008  0.35669136  1
  H+  H214  1  0.11212638  0.64501863  0.34744040  1
  H+  H215  1  0.15141624  0.62219334  0.16587987  1
  H+  H216  1  0.38621862  0.50690763  0.65570125  1
  H+  H217  1  0.18169085  0.08776049  0.92465672  1
  H+  H218  1  0.83751295  0.04565452  0.68270786  1
  H+  H219  1  0.14870320  0.55185441  0.66504675  1
  H+  H220  1  0.36965169  -0.02552751  0.34381432  1
  H+  H221  1  0.61260753  0.47800785  0.81874129  1
  H+  H222  1  0.97693019  0.60824416  0.32331242  1
  H+  H223  1  0.51558808  0.87540406  0.67197180  1
  H+  H224  1  0.86750121  0.47071013  0.68309580  1
  H+  H225  1  0.76147377  0.13001902  0.82541907  1
  H+  H226  1  0.78250589  0.89668754  0.83191400  1
  H+  H227  1  0.15472635  0.02843103  0.98650164  1
  H+  H228  1  0.75938686  0.38168526  0.82878650  1
  H+  H229  1  0.64466601  0.52804547  -0.00983585  1
  H+  H230  1  0.26879540  0.88396569  0.49445470  1
  H+  H231  1  0.10722671  0.93538425  0.05623551  1
  H+  H232  1  0.14062167  0.77875131  0.67173674  1
  H+  H233  1  0.38953285  0.90810988  -0.00962892  1
  H+  H234  1  0.36971197  0.41298198  0.33393282  1
  H+  H235  1  0.03082520  0.88968766  0.34993584  1
  H+  H236  1  0.61817848  0.22183224  0.66882723  1
  H+  H237  1  1.03647567  0.63724756  0.15395161  1
  H+  H238  1  0.63028048  1.02128307  0.33714682  1
  H+  H239  1  0.22574467  0.60679723  -0.00902691  1
  H+  H240  1  0.92731631  0.32843597  0.56690992  1
  H+  H241  1  0.37738759  0.25062915  0.63325129  1
  H+  H242  1  0.64143747  0.36795166  0.99340285  1
  H+  H243  1  0.53020079  0.14640973  0.00432176  1
  H+  H244  1  0.82358622  0.67375325  0.42465155  1
  H+  H245  1  0.39132439  0.11144238  0.65670247  1
  H+  H246  1  0.49013651  0.62549022  0.84489088  1
  H+  H247  1  0.13103384  0.14281813  0.82477928  1
  H+  H248  1  0.34064491  0.20086848  0.24895810  1
  H+  H249  1  0.11634633  0.77052642  0.18164717  1
  H+  H250  1  0.63410044  0.86760294  0.33927175  1
  H+  H251  1  0.36132510  0.19170172  0.15080930  1
  H+  H252  1  0.90710648  0.54412566  0.99590609  1
  H+  H253  1  1.01894881  0.80299171  0.21096395  1
  H+  H254  1  0.88850848  0.03686061  0.84273323  1
  H+  H255  1  0.22530275  0.16190308  0.33493423  1
  H+  H256  1  0.57909747  0.66129261  0.40767774  1
  H+  H257  1  0.70600725  0.86051250  0.51415516  1
  H+  H258  1  0.38762949  0.87177922  0.32925570  1
  H+  H259  1  0.15898049  0.64507135  0.68285322  1
  H+  H260  1  0.62038434  0.48425078  0.16116671  1
  H+  H261  1  0.15084982  0.28918702  0.16073574  1
  H+  H262  1  0.83994955  0.63418603  0.25482223  1
  H+  H263  1  0.60207310  0.62457357  0.50100874  1
  H+  H264  1  0.85146484  0.63921753  0.82878153  1
  H+  H265  1  0.40124280  0.31161311  0.19008680  1
  H+  H266  1  0.48976303  0.62316434  0.95701532  1
  H+  H267  1  0.36005964  0.23088018  1.00693976  1
  H+  H268  1  0.22854915  0.38525180  0.31133313  1
  H+  H269  1  0.48172531  0.10997437  0.17024816  1
  H+  H270  1  0.38918958  0.36766555  0.82980920  1
  H+  H271  1  0.87677222  0.27143087  0.34313446  1
  H+  H272  1  0.03152787  0.18994569  0.12729069  1
  H+  H273  1  0.52585748  0.61999653  0.65507733  1
  H+  H274  1  0.11408743  0.33573155  0.47254677  1
  H+  H275  1  0.21681816  0.59798218  0.49082559  1
  H+  H276  1  0.13609204  0.00882031  0.67045129  1
  H+  H277  1  0.37407347  0.52462162  0.32205077  1
  H+  H278  1  0.11421505  0.90043195  0.15714366  1
  H+  H279  1  0.13455181  0.77339155  0.50873636  1
  H+  H280  1  0.37990314  0.40673536  0.71884018  1
  H+  H281  1  0.88351211  0.27182659  0.99978200  1
  H+  H282  1  0.36212299  0.68674015  0.99148497  1
  H+  H283  1  0.35368135  0.23242783  0.53480213  1
  H+  H284  1  0.11955432  0.88381380  0.83035073  1
  H+  H285  1  0.48997817  0.38911630  0.33924574  1
  H+  H286  1  0.15092204  0.63432304  0.84452066  1
  H+  H287  1  0.36682542  0.97570160  0.66739845  1
  H+  H288  1  0.07893463  0.90471900  0.73708004  1
  H+  H289  1  0.65787794  0.07884648  0.23894560  1
  H+  H290  1  0.07416786  0.41210886  0.39356558  1
  H+  H291  1  0.08168075  0.16211044  0.08219413  1
  H+  H292  1  0.83312771  0.41522227  0.42987714  1
  H+  H293  1  0.41964121  0.08224200  0.59681238  1
  H+  H294  1  0.42115887  0.09180139  0.89082005  1
  H+  H295  1  0.67101944  0.84694464  0.90706830  1
  H+  H296  1  0.83828870  0.92443259  0.77088318  1
  H+  H297  1  0.11519640  0.21559046  -0.00463457  1
  H+  H298  1  0.58251039  0.91766795  0.41549371  1
  H+  H299  1  0.79970917  0.53696326  0.89270290  1
  H+  H300  1  0.65222060  0.58037830  0.23731527  1
  H+  H301  1  0.36324843  0.93552413  0.05249537  1
  H+  H302  1  0.34468986  0.67388826  0.40224376  1
  H+  H303  1  0.34240542  0.17493678  0.72251233  1
  H+  H304  1  0.93343018  0.56469954  0.26055519  1
  H+  H305  1  0.16314153  0.07037067  0.61218676  1
  H+  H306  1  0.93698956  0.83486590  0.27374406  1
  H+  H307  1  0.81804072  0.41000715  0.08854472  1
  H+  H308  1  0.80725722  1.01993869  0.50176392  1
  H+  H309  1  0.39753053  0.12776826  -0.01413786  1
  H+  H310  1  0.83030115  0.90797999  0.39953219  1
  H+  H311  1  0.08129498  0.67355564  0.43418604  1
  H+  H312  1  0.39217466  0.53613771  0.16941921  1
  H+  H313  1  0.27427190  0.64610232  0.68526095  1
  H+  H314  1  0.87971389  0.70652188  0.20530889  1
  H+  H315  1  0.76893431  0.64721513  0.82156978  1
  H+  H316  1  0.83471876  0.67402191  0.06378994  1
  H+  H317  1  0.58566315  0.16899172  0.10103526  1
  H+  H318  1  0.89075506  0.86904268  0.66342714  1
  H+  H319  1  0.10584598  0.69292026  0.76080955  1
  H+  H320  1  0.84800125  0.37870840  0.83543299  1
  H+  H321  1  0.17141317  0.12467145  0.27335525  1
  H+  H322  1  0.09026077  0.91972350  0.40828078  1
  H+  H323  1  0.16898760  0.33570702  0.88397842  1
  H+  H324  1  0.32956012  0.64330181  0.05531556  1
  H+  H325  1  0.92262884  0.60236680  0.94090299  1
  H+  H326  1  0.65166879  0.82282963  0.57386393  1
  H+  H327  1  0.58245758  0.91916453  0.07126140  1
  H+  H328  1  0.88892478  0.58433124  0.55228534  1
  H+  H329  1  0.66851516  0.34014451  0.27027904  1
  H+  H330  1  0.81526551  0.12374506  0.74000576  1
  H+  H331  1  0.34327748  0.67035242  0.77297353  1
  H+  H332  1  0.34099697  0.46836083  0.48269259  1
  H+  H333  1  0.97832372  0.10926956  0.99178725  1
  H+  H334  1  0.83291931  0.40787234  0.73873001  1
  H+  H335  1  0.09383952  0.44702439  0.71454876  1
  H+  H336  1  0.59069769  0.42549674  0.06532550  1
  H+  H337  1  0.85544461  0.38101119  0.34261644  1
  H+  H338  1  0.85309303  0.73166885  0.33788676  1
  H+  H339  1  0.57204942  0.65148631  0.74935406  1
  H+  H340  1  0.16549162  0.83105548  0.56964514  1
  H+  H341  1  0.33111218  0.42041890  0.06247996  1
  H+  H342  1  0.43017382  0.07564394  0.26346636  1
  H+  H343  1  0.65189766  0.32718426  0.89587705  1
  H+  H344  1  0.10457327  0.68518282  0.10070480  1
  H+  H345  1  0.65653521  0.83345843  0.27830821  1
  H+  H346  1  0.08176081  0.42574822  0.08544093  1
  H+  H347  1  0.33505473  0.91353433  0.40351036  1
  H+  H348  1  0.22026051  0.35934878  1.00304046  1
  H+  H349  1  0.90939642  0.09301035  0.90250226  1
  H+  H350  1  0.60961969  0.18212325  0.43364833  1
  H+  H351  1  0.89309679  0.31806792  0.89920306  1
  H+  H352  1  0.39017772  0.80943098  0.22049880  1
  H+  H353  1  0.92432301  0.08291061  0.28180266  1
  H+  H354  1  0.68415962  0.33176541  0.56691271  1
  H+  H355  1  0.63329586  0.10470008  0.66168230  1
  H+  H356  1  0.65646707  0.07925393  0.89947850  1
  H+  H357  1  0.08147238  0.15762935  0.77022980  1
  H+  H358  1  0.67262087  0.58313070  0.56531502  1
  H+  H359  1  0.17016495  0.59394691  0.92985193  1
  H+  H360  1  0.75904002  0.13119121  0.16583075  1
  H+  H361  1  0.33372447  0.92083235  0.72857902  1
  H+  H362  1  0.13536816  0.02554440  0.51460598  1
  H+  H363  1  0.43391642  0.36429759  0.92057233  1
  H+  H364  1  0.95898658  0.59633780  0.62992361  1
  H+  H365  1  0.11806190  0.18008258  0.34452539  1
  H+  H366  1  0.66444748  0.08310443  0.57018492  1
  H+  H367  1  0.72529495  0.82780439  0.20181202  1
  H+  H368  1  0.91395299  0.83746149  0.57029919  1
  H+  H369  1  0.33184983  0.21031449  0.46364749  1
  H+  H370  1  0.01503881  0.36649231  0.48939789  1
  H+  H371  1  0.17180704  0.34949288  0.21955579  1
  H+  H372  1  0.35982994  0.63264298  0.49244447  1
  H+  H373  1  0.82524974  0.16063056  0.06816272  1
  H+  H374  1  0.47913688  0.36913455  0.82919750  1
  H+  H375  1  0.32269784  0.14512824  0.08942151  1
  H+  H376  1  0.22798878  0.86713743  0.66069301  1
  H+  H377  1  0.83941259  0.67380382  0.73125335  1
  H+  H378  1  0.75956950  0.64481653  0.33718135  1
  H+  H379  1  0.61551304  0.47120482  0.50265751  1
  H+  H380  1  0.58115102  0.91151466  0.72911376  1
  H+  H381  1  0.82100563  0.92793415  0.05449659  1
  H+  H382  1  0.41024025  0.59234439  0.25886641  1
  H+  H383  1  0.52578142  0.13492279  0.66868634  1
  O2-  O384  1  0.07380931  0.17096571  0.12759636  1
  O2-  O385  1  0.12163888  0.19681325  0.55146942  1
  O2-  O386  1  0.10326491  0.17607757  0.81241935  1
  O2-  O387  1  0.07918334  0.42197534  0.13085661  1
  O2-  O388  1  0.07353058  0.39521822  0.46983483  1
  O2-  O389  1  0.09599421  0.43565459  0.79895667  1
  O2-  O390  1  0.09850351  0.67852327  0.14583570  1
  O2-  O391  1  0.08316657  0.67148918  0.48028186  1
  O2-  O392  1  0.11185234  0.69010153  0.82573325  1
  O2-  O393  1  0.08969407  0.93222920  0.13562812  1
  O2-  O394  1  0.08782319  0.92378687  0.48967367  1
  O2-  O395  1  0.08736491  0.91354960  0.81390608  1
  O2-  O396  1  0.31991745  0.13553277  0.13493639  1
  O2-  O397  1  0.32879371  0.18535058  0.50439056  1
  O2-  O398  1  0.34100303  0.17241032  0.80051997  1
  O2-  O399  1  0.34438280  0.43828039  0.14093053  1
  O2-  O400  1  0.31787525  0.41518151  0.45747282  1
  O2-  O401  1  0.32927784  0.41019952  0.79839461  1
  O2-  O402  1  0.33414482  0.66556497  0.13214546  1
  O2-  O403  1  0.33545035  0.66689924  0.47368244  1
  O2-  O404  1  0.34269380  0.67717423  0.81875091  1
  O2-  O405  1  0.34958045  0.91872666  0.12354304  1
  O2-  O406  1  0.32906540  0.91405687  0.47838646  1
  O2-  O407  1  0.33534087  0.92987823  0.80465188  1
  O2-  O408  1  0.58263568  0.16888760  0.14670877  1
  O2-  O409  1  0.61509624  0.18415949  0.47965414  1
  O2-  O410  1  0.58327408  0.16820514  0.80946100  1
  O2-  O411  1  0.58703552  0.42409648  0.14461015  1
  O2-  O412  1  0.58356848  0.40871117  0.49154763  1
  O2-  O413  1  0.58131964  0.41816397  0.80334526  1
  O2-  O414  1  0.58761902  0.66812679  0.14335979  1
  O2-  O415  1  0.56754788  0.65121886  0.48755022  1
  O2-  O416  1  0.57618115  0.66797984  0.79381264  1
  O2-  O417  1  0.57532241  0.91266792  0.15188563  1
  O2-  O418  1  0.57591960  0.91653248  0.48943063  1
  O2-  O419  1  0.58873554  0.91985487  0.80586492  1
  O2-  O420  1  0.81870046  0.16030629  0.14807844  1
  O2-  O421  1  0.82500273  0.13734727  0.48886921  1
  O2-  O422  1  0.82056323  0.16057812  0.80815952  1
  O2-  O423  1  0.82210863  0.41036097  0.13268643  1
  O2-  O424  1  0.83547101  0.41443719  0.47600310  1
  O2-  O425  1  0.82271164  0.41707838  0.82177458  1
  O2-  O426  1  0.83581882  0.64438570  0.21120582  1
  O2-  O427  1  0.82512794  0.67177572  0.47107669  1
  O2-  O428  1  0.83135634  0.67681221  0.81049229  1
  O2-  O429  1  0.79705005  0.96512785  0.11730992  1
  O2-  O430  1  0.81484871  0.97125510  0.51445984  1
  O2-  O431  1  0.84201859  0.92167055  0.81590053  1
  O2-  O432  1  0.16318402  0.09663841  0.18863841  1
  O2-  O433  1  0.16553507  0.08387813  0.53437141  1
  O2-  O434  1  0.17972780  0.08215716  0.84967861  1
  O2-  O435  1  0.17653445  0.34950294  0.17344619  1
  O2-  O436  1  0.14206651  0.29831537  0.46772659  1
  O2-  O437  1  0.17349647  0.33383666  0.83997424  1
  O2-  O438  1  0.18163926  0.58932593  0.17327345  1
  O2-  O439  1  0.15494240  0.56065457  0.49856302  1
  O2-  O440  1  0.17544439  0.59641829  0.85960690  1
  O2-  O441  1  0.11670980  0.82073460  0.20170942  1
  O2-  O442  1  0.16539872  0.83428992  0.52411908  1
  O2-  O443  1  0.17618302  0.84559785  0.85237683  1
  O2-  O444  1  0.42257285  0.07232825  0.18801996  1
  O2-  O445  1  0.41022653  0.08373810  0.52305116  1
  O2-  O446  1  0.41907910  0.08992581  0.84544856  1
  O2-  O447  1  0.43670664  0.37316970  0.19646352  1
  O2-  O448  1  0.48933344  0.32588754  0.59675902  1
  O2-  O449  1  0.42015354  0.33994639  0.84784167  1
  O2-  O450  1  0.42194243  0.59570047  0.18762911  1
  O2-  O451  1  0.39533498  0.56777564  0.51861948  1
  O2-  O452  1  0.44621165  0.61231777  0.87703065  1
  O2-  O453  1  0.40645003  0.81738492  0.17743037  1
  O2-  O454  1  0.40608862  0.82806065  0.52552512  1
  O2-  O455  1  0.41618361  0.85055883  0.84009682  1
  O2-  O456  1  0.65807855  0.08027010  0.19333193  1
  O2-  O457  1  0.66604030  0.08474173  0.52403696  1
  O2-  O458  1  0.65638471  0.07796866  0.85416241  1
  O2-  O459  1  0.66410623  0.33764249  0.18718540  1
  O2-  O460  1  0.68158641  0.33170203  0.52082235  1
  O2-  O461  1  0.65253111  0.33008026  0.85053690  1
  O2-  O462  1  0.66375339  0.58424159  0.19186893  1
  O2-  O463  1  0.66440340  0.57877875  0.52026643  1
  O2-  O464  1  0.66418560  0.58911189  0.84697230  1
  O2-  O465  1  0.67023258  0.82399564  0.19252647  1
  O2-  O466  1  0.64687017  0.82173689  0.52815779  1
  O2-  O467  1  0.67778018  0.84129647  0.86180363  1
  O2-  O468  1  0.93570673  0.04049770  0.20314935  1
  O2-  O469  1  0.96185990  0.12144665  0.57012267  1
  O2-  O470  1  0.90496801  0.09457344  0.85772094  1
  O2-  O471  1  0.90885016  0.34004440  0.16360817  1
  O2-  O472  1  0.91558520  0.31165811  0.52069752  1
  O2-  O473  1  0.88058613  0.32129518  0.85590968  1
  O2-  O474  1  0.93200287  0.57140870  0.17523803  1
  O2-  O475  1  0.90341578  0.58788545  0.50936165  1
  O2-  O476  1  0.85589240  0.55930170  0.87352646  1
  O2-  O477  1  0.96461495  0.80692170  0.20645921  1
  O2-  O478  1  0.91411679  0.83898722  0.52447826  1
  O2-  O479  1  0.91213447  0.83428410  0.86184484  1
  O2-  O480  1  0.16733595  0.13460938  0.31700926  1
  O2-  O481  1  0.16566249  0.07065982  0.65747300  1
  O2-  O482  1  0.18152187  0.09122782  0.97054850  1
  O2-  O483  1  0.16963341  0.35630224  0.29349992  1
  O2-  O484  1  0.20554997  0.42455529  0.62849012  1
  O2-  O485  1  0.15473475  0.32708919  0.99602731  1
  O2-  O486  1  0.16302395  0.59778252  0.32787338  1
  O2-  O487  1  0.18943371  0.61865216  0.66289896  1
  O2-  O488  1  0.16575287  0.58950308  0.97660316  1
  O2-  O489  1  0.16567888  0.83780599  0.31747680  1
  O2-  O490  1  0.16599497  0.83501438  0.64832239  1
  O2-  O491  1  0.19617184  0.85407399  0.97601798  1
  O2-  O492  1  0.43222205  0.07858273  0.30952488  1
  O2-  O493  1  0.42298608  0.08218025  0.64292119  1
  O2-  O494  1  0.43319130  0.10420487  0.96984739  1
  O2-  O495  1  0.43012773  0.36561331  0.32224201  1
  O2-  O496  1  0.39772284  0.29990487  0.60208107  1
  O2-  O497  1  0.44444245  0.38569226  0.96430105  1
  O2-  O498  1  0.40499549  0.58876521  0.30523952  1
  O2-  O499  1  0.36301611  0.54219205  0.63818205  1
  O2-  O500  1  0.49963661  0.60238451  0.99640003  1
  O2-  O501  1  0.42330671  0.84736504  0.31016747  1
  O2-  O502  1  0.41426867  0.82689462  0.64863650  1
  O2-  O503  1  0.41343021  0.81748260  0.99249860  1
  O2-  O504  1  0.66167941  0.07888144  0.31734438  1
  O2-  O505  1  0.66047750  0.07225498  0.64429597  1
  O2-  O506  1  0.66127895  0.07842264  0.98056718  1
  O2-  O507  1  0.66785784  0.33838226  0.31551946  1
  O2-  O508  1  0.68060693  0.32840799  0.64187971  1
  O2-  O509  1  0.66580076  0.33362097  0.97546324  1
  O2-  O510  1  0.65383607  0.58352808  0.31216413  1
  O2-  O511  1  0.67721331  0.58586013  0.64409253  1
  O2-  O512  1  0.67257531  0.58742928  0.97198727  1
  O2-  O513  1  0.66573991  0.83914407  0.32266797  1
  O2-  O514  1  0.66437784  0.82847179  0.64947016  1
  O2-  O515  1  0.65925169  0.83752263  0.98044475  1
  O2-  O516  1  0.91884548  0.08904888  0.32581804  1
  O2-  O517  1  0.86829904  0.00942859  0.66251589  1
  O2-  O518  1  0.91646091  0.08683772  0.98248666  1
  O2-  O519  1  0.90015798  0.32861883  0.32425418  1
  O2-  O520  1  0.94587484  0.35232585  0.63243942  1
  O2-  O521  1  0.91008979  0.33016956  0.98103555  1
  O2-  O522  1  0.92051706  0.56980541  0.30346800  1
  O2-  O523  1  0.92710682  0.58351365  0.66789300  1
  O2-  O524  1  0.93305119  0.60589195  0.98549300  1
  O2-  O525  1  0.92387257  0.83792423  0.31751674  1
  O2-  O526  1  0.91757503  0.83661619  0.64708720  1
  O2-  O527  1  0.89977616  0.83244783  0.97420476  1
  O2-  O528  1  0.08710453  0.15519235  0.01044569  1
  O2-  O529  1  0.08837828  0.21206398  0.35977581  1
  O2-  O530  1  0.04878188  0.12071686  0.69687625  1
  O2-  O531  1  0.07810761  0.42917668  0.00696333  1
  O2-  O532  1  0.07336008  0.42326338  0.34891718  1
  O2-  O533  1  0.09653970  0.45686410  0.67011926  1
  O2-  O534  1  0.11059308  0.69031240  0.02159420  1
  O2-  O535  1  0.07679807  0.67254271  0.35991694  1
  O2-  O536  1  0.09965528  0.69268645  0.71251550  1
  O2-  O537  1  0.11390610  0.93831999  0.01133705  1
  O2-  O538  1  0.09139235  0.91775132  0.36325098  1
  O2-  O539  1  0.07616859  0.90480374  0.69140769  1
  O2-  O540  1  0.33325676  0.16971225  0.01597192  1
  O2-  O541  1  0.32635062  0.21909207  0.38262165  1
  O2-  O542  1  0.33583941  0.16689877  0.67734299  1
  O2-  O543  1  0.31637113  0.40754203  0.01868307  1
  O2-  O544  1  0.33250251  0.43828018  0.34347842  1
  O2-  O545  1  0.41790332  0.43387291  0.68378866  1
  O2-  O546  1  0.32340779  0.63131499  0.01070117  1
  O2-  O547  1  0.34379586  0.67357051  0.35553460  1
  O2-  O548  1  0.33948844  0.66910909  0.69860026  1
  O2-  O549  1  0.36533779  0.94303009  0.00635458  1
  O2-  O550  1  0.33752745  0.91370106  0.35734700  1
  O2-  O551  1  0.33401819  0.91537521  0.68296584  1
  O2-  O552  1  0.58883128  0.17139455  0.02326139  1
  O2-  O553  1  0.59787074  0.17883844  0.35966148  1
  O2-  O554  1  0.58596595  0.16217071  0.68530898  1
  O2-  O555  1  0.59568091  0.42729144  0.01985117  1
  O2-  O556  1  0.58827656  0.42259835  0.36441594  1
  O2-  O557  1  0.60728246  0.42328315  0.68052241  1
  O2-  O558  1  0.58812365  0.66781821  0.01352059  1
  O2-  O559  1  0.58460262  0.66540079  0.36261503  1
  O2-  O560  1  0.58182239  0.65285966  0.67478824  1
  O2-  O561  1  0.58215125  0.91689017  0.02601829  1
  O2-  O562  1  0.58312416  0.91723835  0.36932844  1
  O2-  O563  1  0.57848588  0.90619814  0.68363301  1
  O2-  O564  1  0.82883427  0.16475214  0.02304658  1
  O2-  O565  1  0.82367606  0.15839875  0.36785401  1
  O2-  O566  1  0.81001953  0.09946878  0.69750899  1
  O2-  O567  1  0.84221394  0.42695077  -0.02275752  1
  O2-  O568  1  0.82677340  0.41558537  0.35548674  1
  O2-  O569  1  0.83555214  0.40887644  0.69365136  1
  O2-  O570  1  0.83920699  0.67449461  0.01951735  1
  O2-  O571  1  0.82014567  0.67078777  0.35138440  1
  O2-  O572  1  0.84240717  0.67066006  0.68604669  1
  O2-  O573  1  0.82517989  0.91328396  0.01087628  1
  O2-  O574  1  0.83155044  0.91780275  0.35583426  1
  O2-  O575  1  0.83024665  0.92282639  0.68978600  1
