# generated using pymatgen
data_H2O
_symmetry_space_group_name_H-M   'P 1'
_cell_length_a   17.98355902
_cell_length_b   17.98560752
_cell_length_c   22.00014640
_cell_angle_alpha   90.01253780
_cell_angle_beta   89.99710962
_cell_angle_gamma   120.00479722
_symmetry_Int_Tables_number   1
_chemical_formula_structural   H2O
_chemical_formula_sum   'H384 O192'
_cell_volume   6162.20230010
_cell_formula_units_Z   192
loop_
 _symmetry_equiv_pos_site_id
 _symmetry_equiv_pos_as_xyz
  1  'x, y, z'
loop_
 _atom_type_symbol
 _atom_type_oxidation_number
  H+  1.0
  O2-  -2.0
loop_
 _atom_site_type_symbol
 _atom_site_label
 _atom_site_symmetry_multiplicity
 _atom_site_fract_x
 _atom_site_fract_y
 _atom_site_fract_z
 _atom_site_occupancy
  H+  H0  1  0.02456618  0.38923446  0.00572627  1
  H+  H1  1  0.38657024  0.02782563  0.66973135  1
  H+  H2  1  0.11151882  0.01299404  0.84251338  1
  H+  H3  1  0.78076940  0.14120988  0.85560785  1
  H+  H4  1  0.51443941  0.63718277  0.51510666  1
  H+  H5  1  0.92519752  0.35556727  0.59221289  1
  H+  H6  1  0.36325567  0.46994569  0.49678210  1
  H+  H7  1  0.63076010  0.76545552  0.31954913  1
  H+  H8  1  0.14799871  0.36364094  0.32747978  1
  H+  H9  1  0.88806134  0.11346461  0.64213007  1
  H+  H10  1  0.52153702  0.19904653  0.04080153  1
  H+  H11  1  0.89159134  0.52621085  0.32894040  1
  H+  H12  1  0.38617505  0.09085460  0.50911411  1
  H+  H13  1  0.29262455  0.16278565  0.66767318  1
  H+  H14  1  0.72888093  0.36648240  0.16150376  1
  H+  H15  1  0.63409020  0.11576317  0.65955871  1
  H+  H16  1  0.61518944  0.37932647  0.34244920  1
  H+  H17  1  0.97596415  0.86001453  0.84801875  1
  H+  H18  1  0.41933834  0.83222268  0.60213987  1
  H+  H19  1  0.72989775  0.86512855  -0.00467477  1
  H+  H20  1  0.02284152  0.30290361  0.70963802  1
  H+  H21  1  0.88975568  0.88067148  0.17156809  1
  H+  H22  1  0.13624559  0.63323921  0.49181377  1
  H+  H23  1  0.36623785  0.73147098  0.67249081  1
  H+  H24  1  0.47563331  0.11113217  0.84298156  1
  H+  H25  1  0.15594472  0.57661892  0.26144079  1
  H+  H26  1  0.35766895  0.86951665  0.00041625  1
  H+  H27  1  0.29210634  0.62052727  0.48929305  1
  H+  H28  1  0.21884752  0.61084101  0.83403709  1
  H+  H29  1  0.78594032  0.13482161  0.16078618  1
  H+  H30  1  0.03181291  0.63315373  0.66083893  1
  H+  H31  1  0.89829624  0.27498113  0.50234723  1
  H+  H32  1  0.28184511  0.39237885  0.67659729  1
  H+  H33  1  0.14396798  0.12701199  -0.01572496  1
  H+  H34  1  0.11266589  -0.04117333  0.49255359  1
  H+  H35  1  0.12242879  0.71882756  0.66528391  1
  H+  H36  1  0.86686787  0.50629426  0.84126976  1
  H+  H37  1  0.22038636  0.61242603  0.17070284  1
  H+  H38  1  0.88255021  0.61544710  0.99308154  1
  H+  H39  1  0.55326261  0.42088658  0.86319735  1
  H+  H40  1  1.01888713  0.13866772  0.81458263  1
  H+  H41  1  0.84103120  0.66690103  0.40130227  1
  H+  H42  1  0.17466549  0.34293572  0.59977220  1
  H+  H43  1  0.11406788  0.22471293  0.83199884  1
  H+  H44  1  0.38538841  1.01581514  0.32911483  1
  H+  H45  1  0.60908265  0.47291550  0.01678519  1
  H+  H46  1  0.51877276  0.63685931  0.00387820  1
  H+  H47  1  0.76136704  0.88604414  0.33102487  1
  H+  H48  1  0.07007283  0.66376888  0.81364586  1
  H+  H49  1  0.13259055  0.77141794  0.16761750  1
  H+  H50  1  0.14342762  0.76564944  0.51010240  1
  H+  H51  1  0.53043943  0.88900060  0.82999273  1
  H+  H52  1  0.22085268  0.36477560  0.50708278  1
  H+  H53  1  0.36975976  0.73084774  0.30600878  1
  H+  H54  1  0.13509684  0.85124951  0.66694033  1
  H+  H55  1  0.48354462  0.38709432  0.51164273  1
  H+  H56  1  0.48701985  0.33527867  0.83194362  1
  H+  H57  1  0.36629689  0.73333358  0.16138344  1
  H+  H58  1  0.39442957  0.60909878  0.41034159  1
  H+  H59  1  0.03826148  0.88662137  0.33337634  1
  H+  H60  1  0.55626643  0.39941948  0.06617523  1
  H+  H61  1  0.78782838  0.65393226  0.16486921  1
  H+  H62  1  0.38393308  0.84298236  0.50509345  1
  H+  H63  1  0.00684415  0.61680847  0.50213087  1
  H+  H64  1  0.37486926  0.15316582  0.67537943  1
  H+  H65  1  0.48777930  0.62359778  0.15985605  1
  H+  H66  1  -0.01672606  0.61263363  0.32813615  1
  H+  H67  1  0.36372180  0.19843883  -0.04401012  1
  H+  H68  1  0.11654636  0.63396145  0.33813361  1
  H+  H69  1  0.73680213  0.11861526  1.00015286  1
  H+  H70  1  0.63912117  1.02452549  0.84569330  1
  H+  H71  1  0.76955897  0.13900193  0.63947720  1
  H+  H72  1  0.86722996  0.73214247  0.00870835  1
  H+  H73  1  0.58474189  0.91857496  0.10121859  1
  H+  H74  1  0.60915079  0.21325020  0.34972377  1
  H+  H75  1  0.77861566  0.88963508  0.67844348  1
  H+  H76  1  0.87503090  0.64233714  0.34177210  1
  H+  H77  1  0.60934859  0.96814559  0.49335886  1
  H+  H78  1  0.58675001  0.16835836  0.73594832  1
  H+  H79  1  0.41389420  0.06982333  0.57331412  1
  H+  H80  1  0.88798523  0.36538294  0.99443427  1
  H+  H81  1  0.46800088  0.38002783  -0.01392696  1
  H+  H82  1  0.65541152  0.64403242  0.84881646  1
  H+  H83  1  0.89141056  0.12480834  0.82936802  1
  H+  H84  1  0.13157290  0.27439000  0.50676945  1
  H+  H85  1  0.36924437  0.64412974  0.15719295  1
  H+  H86  1  0.13537243  0.52590851  -0.00698039  1
  H+  H87  1  0.97878424  0.37423166  0.84073624  1
  H+  H88  1  0.52179993  0.38878492  0.67011920  1
  H+  H89  1  0.36377452  0.63607792  0.00598316  1
  H+  H90  1  0.92064249  0.33831692  0.41442774  1
  H+  H91  1  0.61868065  0.88979320  0.00672279  1
  H+  H92  1  0.89431062  0.03806290  0.83005123  1
  H+  H93  1  0.62090888  0.38859500  0.67065518  1
  H+  H94  1  0.64223421  0.78272201  0.16644375  1
  H+  H95  1  0.86203221  0.88850131  0.01130523  1
  H+  H96  1  0.63677256  0.36444637  0.99570954  1
  H+  H97  1  0.38872006  1.00012560  -0.01126358  1
  H+  H98  1  0.34082982  0.66195576  0.25377057  1
  H+  H99  1  0.40197021  0.28500994  0.66658261  1
  H+  H100  1  0.98947064  0.36711492  0.49647817  1
  H+  H101  1  0.58484652  0.67472043  0.08826354  1
  H+  H102  1  0.71714544  0.09845647  0.50912154  1
  H+  H103  1  0.27447910  0.88860048  0.67855015  1
  H+  H104  1  0.61133765  0.22102464  0.16421179  1
  H+  H105  1  0.84369352  0.64520285  0.51861072  1
  H+  H106  1  0.86677581  0.13566137  0.34334027  1
  H+  H107  1  0.35539490  0.97176584  0.15073235  1
  H+  H108  1  0.64300974  0.38009140  0.51683094  1
  H+  H109  1  0.15079961  0.13248270  0.64430629  1
  H+  H110  1  0.02567678  0.64260652  -0.00392261  1
  H+  H111  1  0.03213494  0.38648095  0.35154196  1
  H+  H112  1  0.11879936  0.47496782  0.33684086  1
  H+  H113  1  0.36409040  0.89174875  0.67971819  1
  H+  H114  1  0.61432564  0.97776765  0.16144591  1
  H+  H115  1  0.47693707  0.86495014  0.32260833  1
  H+  H116  1  0.52040571  0.12499764  0.34098623  1
  H+  H117  1  0.36401816  -0.04126723  0.49981903  1
  H+  H118  1  0.86748832  0.88737106  0.67691194  1
  H+  H119  1  0.61840099  -0.02140369  1.00947894  1
  H+  H120  1  0.11390464  0.88982532  0.15883453  1
  H+  H121  1  0.23810930  0.14886329  0.95666244  1
  H+  H122  1  0.64451831  0.87366211  0.50813061  1
  H+  H123  1  0.97921775  0.87335637  0.99665423  1
  H+  H124  1  0.76834809  0.38664036  0.82726093  1
  H+  H125  1  0.14266614  0.36256608  0.66285088  1
  H+  H126  1  0.33042145  0.66632675  0.06337710  1
  H+  H127  1  0.11146355  0.88234777  0.85838531  1
  H+  H128  1  0.01384321  0.86919422  0.68367661  1
  H+  H129  1  0.38718380  0.10576307  0.32561023  1
  H+  H130  1  0.37264331  0.39537231  0.68032544  1
  H+  H131  1  0.36665408  0.13772657  0.16786993  1
  H+  H132  1  0.14686219  0.52473370  0.65615885  1
  H+  H133  1  0.36518484  0.40331717  0.99929547  1
  H+  H134  1  0.86169299  0.38838769  0.35597250  1
  H+  H135  1  0.38308309  0.35910741  0.51139770  1
  H+  H136  1  0.28260697  0.38784150  0.33647707  1
  H+  H137  1  0.41228730  0.07315501  0.23241578  1
  H+  H138  1  0.52263616  0.37665206  0.33844117  1
  H+  H139  1  0.92648199  0.62249088  0.48145960  1
  H+  H140  1  0.87951077  0.60866796  0.83821898  1
  H+  H141  1  0.03456166  0.14183411  0.65532426  1
  H+  H142  1  0.15135728  0.51984952  0.50182208  1
  H+  H143  1  0.89134694  0.86756299  0.50191195  1
  H+  H144  1  0.13663112  0.36544841  -0.00814547  1
  H+  H145  1  0.62491130  0.35330599  0.84386681  1
  H+  H146  1  0.87744832  0.13198107  0.15865476  1
  H+  H147  1  0.67546731  0.84063314  0.89954406  1
  H+  H148  1  0.61337373  0.22960108  0.67751928  1
  H+  H149  1  0.47590738  0.84998293  0.50537036  1
  H+  H150  1  0.66790808  0.34428963  0.60633949  1
  H+  H151  1  0.11387463  0.38593448  0.82946344  1
  H+  H152  1  0.97719057  0.11670233  0.32544310  1
  H+  H153  1  0.52255362  0.12719546  0.00704543  1
  H+  H154  1  0.64458168  0.78642351  0.65830028  1
  H+  H155  1  0.47327616  0.10708345  0.17437414  1
  H+  H156  1  0.39272043  0.49661110  0.85376272  1
  H+  H157  1  0.34737521  0.34827401  0.82617595  1
  H+  H158  1  0.56277513  0.47129823  0.17847343  1
  H+  H159  1  0.77658609  0.63786564  0.66982228  1
  H+  H160  1  0.78401397  0.64653755  0.82547448  1
  H+  H161  1  0.47741398  0.11480673  0.66588306  1
  H+  H162  1  0.11366802  0.64145852  0.99703031  1
  H+  H163  1  0.53920232  0.33457210  0.16028769  1
  H+  H164  1  0.39576803  0.36510660  0.32243213  1
  H+  H165  1  0.11783654  0.38382209  0.49645259  1
  H+  H166  1  0.77415215  0.38983728  0.00472438  1
  H+  H167  1  0.22384273  0.61460638  0.98968391  1
  H+  H168  1  0.22153299  0.85946805  0.16738869  1
  H+  H169  1  0.13890656  0.36143342  0.17272546  1
  H+  H170  1  0.14054693  0.61046350  0.65029726  1
  H+  H171  1  0.22591654  0.61001730  0.31256697  1
  H+  H172  1  0.14086066  0.11699410  0.17056755  1
  H+  H173  1  0.86313587  0.38328817  0.15625756  1
  H+  H174  1  0.92070086  0.83859167  0.60181479  1
  H+  H175  1  0.63927867  0.77649735  0.99055940  1
  H+  H176  1  0.88883892  0.77001636  0.83701130  1
  H+  H177  1  0.72525922  0.37170473  0.66732630  1
  H+  H178  1  0.42595327  0.83751745  0.89903467  1
  H+  H179  1  0.22630447  0.35860899  0.17288440  1
  H+  H180  1  0.13461513  0.85004848  0.50638545  1
  H+  H181  1  0.61284158  0.98189212  0.67547555  1
  H+  H182  1  0.88974339  0.77115653  0.33892619  1
  H+  H183  1  0.35845394  0.22903919  0.80076082  1
  H+  H184  1  0.86638735  0.14027560  0.00609519  1
  H+  H185  1  0.87072640  0.13178594  0.50351854  1
  H+  H186  1  0.36767193  0.47864637  0.34966362  1
  H+  H187  1  0.13132295  0.61169682  0.16535981  1
  H+  H188  1  0.61515665  0.13699798  0.83071194  1
  H+  H189  1  0.52049913  0.63008513  0.36054603  1
  H+  H190  1  0.88554297  1.03013365  0.32297014  1
  H+  H191  1  0.61065802  0.64053160  0.14764527  1
  H+  H192  1  0.12346764  0.23156343  0.65934374  1
  H+  H193  1  0.83964652  0.17088903  1.06673015  1
  H+  H194  1  0.17504393  0.33436275  0.26671156  1
  H+  H195  1  0.73064633  0.36075332  0.34008863  1
  H+  H196  1  0.58076293  0.67217066  0.60924126  1
  H+  H197  1  0.27531035  0.13394694  0.33463462  1
  H+  H198  1  0.39233347  0.77005064  -0.00751693  1
  H+  H199  1  0.36755225  0.47259419  0.15849243  1
  H+  H200  1  0.63163994  0.62406349  0.50416754  1
  H+  H201  1  0.39361739  0.60229473  0.52498734  1
  H+  H202  1  0.67096330  0.08033136  0.23363364  1
  H+  H203  1  0.92144333  0.08838767  0.22092286  1
  H+  H204  1  0.89213193  0.61563349  0.17480695  1
  H+  H205  1  0.36320041  0.88388204  0.34100398  1
  H+  H206  1  0.23055317  0.85798796  0.32473772  1
  H+  H207  1  0.61418099  0.48804635  0.49087818  1
  H+  H208  1  0.86283845  0.39788488  0.67019638  1
  H+  H209  1  0.88518788  0.77340548  0.65844623  1
  H+  H210  1  0.64614886  0.87157063  0.83911385  1
  H+  H211  1  0.92979880  0.86014034  0.37279891  1
  H+  H212  1  0.61761249  0.59007028  0.32715197  1
  H+  H213  1  0.72271706  0.62809075  0.50196693  1
  H+  H214  1  0.11450903  0.99118433  0.00005086  1
  H+  H215  1  0.09681739  0.94891197  0.71002968  1
  H+  H216  1  1.02901387  0.89722116  0.15968975  1
  H+  H217  1  0.89168247  0.02938441  0.66226907  1
  H+  H218  1  0.78626966  0.90364285  0.16271398  1
  H+  H219  1  0.11667904  0.47870911  0.82513802  1
  H+  H220  1  0.86638918  0.47472836  0.15967285  1
  H+  H221  1  0.88791286  0.27127737  0.36128120  1
  H+  H222  1  0.86592091  0.39119681  0.49346683  1
  H+  H223  1  0.35754677  0.73081393  0.82827557  1
  H+  H224  1  0.38624254  0.52849231  0.00182503  1
  H+  H225  1  0.28011119  0.14494458  0.16222649  1
  H+  H226  1  0.63642818  0.10559795  0.32987207  1
  H+  H227  1  0.47557886  0.86938174  0.16775847  1
  H+  H228  1  0.11311408  0.22956927  1.00670250  1
  H+  H229  1  0.39422121  0.26359181  0.16715022  1
  H+  H230  1  0.08428763  0.90216873  0.43202473  1
  H+  H231  1  0.64816461  0.11855082  1.00309202  1
  H+  H232  1  0.27816884  0.64047274  0.67008046  1
  H+  H233  1  0.89247796  0.01788276  0.49801394  1
  H+  H234  1  0.77022354  0.87639495  0.82887200  1
  H+  H235  1  0.61833542  0.49331082  0.32850264  1
  H+  H236  1  0.61241840  0.97199415  0.33915833  1
  H+  H237  1  0.10246732  0.75488218  0.84060966  1
  H+  H238  1  0.40480067  0.13013158  0.01669093  1
  H+  H239  1  0.86737410  0.64120482  0.66730162  1
  H+  H240  1  0.85025237  0.88686591  0.33045201  1
  H+  H241  1  0.42043564  0.57731154  0.58900990  1
  H+  H242  1  0.47592342  0.58985514  0.84890706  1
  H+  H243  1  0.11103128  0.47336885  0.15819004  1
  H+  H244  1  0.61818779  0.89601752  0.67591237  1
  H+  H245  1  0.73192683  0.38049316  0.51828039  1
  H+  H246  1  0.38794786  0.61866754  0.67641702  1
  H+  H247  1  0.87782691  0.99933864  0.16053442  1
  H+  H248  1  0.02880675  0.14418468  0.49005673  1
  H+  H249  1  0.85795739  0.23070891  0.63744790  1
  H+  H250  1  0.96887476  0.36230867  0.65740700  1
  H+  H251  1  0.61910164  0.48259795  0.66561417  1
  H+  H252  1  0.63630393  0.27653524  0.99500428  1
  H+  H253  1  0.27296017  0.87337279  0.49696941  1
  H+  H254  1  0.64171506  0.11129914  0.17496205  1
  H+  H255  1  0.12580373  0.88464303  0.33423363  1
  H+  H256  1  -0.02578366  0.11661263  -0.00272385  1
  H+  H257  1  0.77691486  0.88872249  0.48950223  1
  H+  H258  1  0.61397181  0.73525081  0.82868411  1
  H+  H259  1  0.11798693  0.22556424  0.33483130  1
  H+  H260  1  0.83346532  0.16702054  0.55196283  1
  H+  H261  1  0.87352665  0.74389854  0.16421069  1
  H+  H262  1  0.10821593  0.21824648  0.16077200  1
  H+  H263  1  0.22554832  0.08419128  0.49497342  1
  H+  H264  1  0.88771101  0.53087145  0.65435041  1
  H+  H265  1  0.64493429  0.78661089  0.51703252  1
  H+  H266  1  0.27321672  0.88654703  0.84429946  1
  H+  H267  1  0.63828576  0.61255462  0.65439641  1
  H+  H268  1  0.47846154  0.86677991  0.66179736  1
  H+  H269  1  0.97889076  0.86163623  0.50320378  1
  H+  H270  1  0.42145792  0.06765211  0.93107928  1
  H+  H271  1  0.14533505  0.02390095  0.32323043  1
  H+  H272  1  0.16668814  0.05266205  0.64849526  1
  H+  H273  1  0.90959928  0.32195754  0.22457398  1
  H+  H274  1  0.63710216  0.86861800  0.17139458  1
  H+  H275  1  0.60940685  0.63597214  0.00660269  1
  H+  H276  1  0.14653389  0.03110048  0.17024433  1
  H+  H277  1  0.22399651  0.35134629  0.84115875  1
  H+  H278  1  0.72714199  0.61372934  1.00619990  1
  H+  H279  1  0.66322554  0.08158677  0.90628050  1
  H+  H280  1  0.86744763  0.23188331  0.85278934  1
  H+  H281  1  0.36247831  0.20124271  0.48934658  1
  H+  H282  1  0.83930243  0.66535012  0.76325643  1
  H+  H283  1  0.13770314  0.77769668  -0.04289948  1
  H+  H284  1  0.86231652  0.39249293  0.82911664  1
  H+  H285  1  0.51904058  0.11350164  0.50032907  1
  H+  H286  1  0.86497764  0.73891803  0.49931501  1
  H+  H287  1  0.01709680  0.12916669  0.15741673  1
  H+  H288  1  0.66839511  0.58446409  0.59589416  1
  H+  H289  1  0.17229599  0.08527638  0.26436148  1
  H+  H290  1  0.66902346  0.33438546  0.89968277  1
  H+  H291  1  0.86558751  0.86989931  0.82873198  1
  H+  H292  1  0.58371560  0.41984907  0.43645813  1
  H+  H293  1  0.62600582  0.09734728  0.50505511  1
  H+  H294  1  0.38376672  0.86612018  0.16516569  1
  H+  H295  1  0.36879404  0.38430152  0.15734231  1
  H+  H296  1  0.15107683  0.08289202  0.89863924  1
  H+  H297  1  0.16932649  0.83251881  0.60417429  1
  H+  H298  1  0.92266501  0.07235482  0.56025315  1
  H+  H299  1  0.16336989  0.32818030  0.89968329  1
  H+  H300  1  0.02466310  0.38180604  0.15796899  1
  H+  H301  1  0.92115180  0.85099312  0.23063441  1
  H+  H302  1  0.32380252  0.90852711  0.09224487  1
  H+  H303  1  0.37865608  0.70953395  0.49177920  1
  H+  H304  1  0.60661130  0.88018894  0.33637790  1
  H+  H305  1  0.88173038  0.52461833  0.99277674  1
  H+  H306  1  0.83334522  0.90534197  0.76376905  1
  H+  H307  1  0.33153742  0.41764247  0.43326343  1
  H+  H308  1  0.72675931  0.10800498  0.33051823  1
  H+  H309  1  0.09795292  0.41842110  0.43360342  1
  H+  H310  1  0.18464774  0.58086635  0.56027453  1
  H+  H311  1  0.39410512  0.86983738  0.84259264  1
  H+  H312  1  0.11841473  0.72388241  0.33932454  1
  H+  H313  1  0.87649758  0.48451073  0.49613921  1
  H+  H314  1  0.15848208  0.57707857  0.89176646  1
  H+  H315  1  0.33927792  0.15169798  0.42630193  1
  H+  H316  1  0.06651579  0.39090798  0.74419641  1
  H+  H317  1  0.43357812  0.59476634  0.22143926  1
  H+  H318  1  0.07523537  0.88513441  0.79254903  1
  H+  H319  1  0.52242531  0.52415816  0.20283821  1
  H+  H320  1  0.48066596  0.86140960  0.99536145  1
  H+  H321  1  0.66873637  0.38355534  0.20340141  1
  H+  H322  1  0.92225645  0.58330524  0.23213804  1
  H+  H323  1  0.51968343  0.63911993  0.66473378  1
  H+  H324  1  0.83693367  0.42770613  0.73168968  1
  H+  H325  1  0.54666788  0.69995046  0.45935193  1
  H+  H326  1  0.58288515  0.67050353  0.77285784  1
  H+  H327  1  0.60636682  0.66350668  0.39775213  1
  H+  H328  1  0.08206626  0.66892807  0.09120008  1
  H+  H329  1  0.22629258  0.36733242  0.99206702  1
  H+  H330  1  0.08849524  0.17872276  0.43184222  1
  H+  H331  1  0.41917384  0.57842518  0.93944214  1
  H+  H332  1  0.42016277  0.84576030  0.26136798  1
  H+  H333  1  0.38885266  0.52719243  0.68124554  1
  H+  H334  1  0.65190057  0.07527347  0.59892981  1
  H+  H335  1  0.32848117  0.67358967  0.76913202  1
  H+  H336  1  0.84179774  0.67464571  0.06854345  1
  H+  H337  1  0.17059121  0.82794087  0.26417944  1
  H+  H338  1  0.82979743  0.42562974  0.40736951  1
  H+  H339  1  0.38705442  0.02289906  0.84377469  1
  H+  H340  1  0.43003951  0.35210371  0.60870966  1
  H+  H341  1  0.10797077  0.11913488  0.83289890  1
  H+  H342  1  0.68157066  0.85358864  0.60428642  1
  H+  H343  1  0.59001950  0.92112613  0.77075354  1
  H+  H344  1  0.10197775  0.66422412  0.43406993  1
  H+  H345  1  0.42748224  0.33408742  0.26377302  1
  H+  H346  1  0.92251258  0.58983551  0.59426542  1
  H+  H347  1  0.66923040  0.58419588  0.94760246  1
  H+  H348  1  0.11408114  0.13522686  0.33643024  1
  H+  H349  1  0.58224450  0.90877000  0.43315839  1
  H+  H350  1  0.65847043  0.82774843  0.26071907  1
  H+  H351  1  0.82789343  0.91362257  0.42575845  1
  H+  H352  1  0.67247604  0.31717353  0.28181253  1
  H+  H353  1  0.32297810  0.91091041  0.77907198  1
  H+  H354  1  0.08501514  0.41725681  0.06462261  1
  H+  H355  1  0.88646258  0.26074859  0.16648561  1
  H+  H356  1  0.88508217  0.02921792  0.99915398  1
  H+  H357  1  0.82751731  0.14836633  0.40540108  1
  H+  H358  1  0.33182947  0.90859030  0.40226410  1
  H+  H359  1  0.82978759  0.21240437  0.74614529  1
  H+  H360  1  0.33120660  0.40173167  0.77544890  1
  H+  H361  1  0.36611980  0.22163615  0.33597017  1
  H+  H362  1  0.17186875  0.07557335  0.55357000  1
  H+  H363  1  0.83426969  0.92107372  0.07035971  1
  H+  H364  1  0.32840889  0.41717841  0.06381330  1
  H+  H365  1  0.57882395  0.16279183  0.10564743  1
  H+  H366  1  0.08605150  0.93529183  0.06085298  1
  H+  H367  1  0.37759036  0.30881381  0.95494609  1
  H+  H368  1  0.88826648  0.27599700  0.99331671  1
  H+  H369  1  0.73329843  0.69673575  0.89175303  1
  H+  H370  1  0.27182855  0.87521410  -0.01058265  1
  H+  H371  1  0.39102977  0.62295245  0.34080261  1
  H+  H372  1  0.35504025  0.24275082  0.87607081  1
  H+  H373  1  0.61975232  0.54442596  0.26216791  1
  H+  H374  1  0.83551626  0.42092106  0.06321467  1
  H+  H375  1  0.61576032  0.22635251  0.82931403  1
  H+  H376  1  0.38402442  0.17739675  0.07059379  1
  H+  H377  1  0.08514021  0.16658346  0.06467182  1
  H+  H378  1  0.57501590  0.14327949  0.43942746  1
  H+  H379  1  0.89951549  0.57494331  0.90686533  1
  H+  H380  1  0.79361778  0.16668592  0.74689346  1
  H+  H381  1  0.02289912  0.63562056  0.15163054  1
  H+  H382  1  0.92126834  0.34843889  0.90119858  1
  H+  H383  1  0.91471335  0.83393057  0.93988044  1
  O2-  O384  1  0.08127795  0.15894594  0.14464626  1
  O2-  O385  1  0.08828909  0.18455316  0.47662683  1
  O2-  O386  1  0.08436566  0.16454096  0.81432673  1
  O2-  O387  1  0.08553242  0.41263438  0.14417233  1
  O2-  O388  1  0.09076250  0.41749673  0.47877315  1
  O2-  O389  1  0.08326046  0.41478667  0.81234682  1
  O2-  O390  1  0.08335899  0.66661739  0.13678381  1
  O2-  O391  1  0.10316085  0.66255094  0.47963305  1
  O2-  O392  1  0.05840178  0.71111973  0.81298306  1
  O2-  O393  1  0.08930366  0.92588432  0.14501333  1
  O2-  O394  1  0.07754346  0.89676905  0.47698914  1
  O2-  O395  1  0.07424850  0.90173432  0.83519866  1
  O2-  O396  1  0.34336545  0.17450329  0.15177439  1
  O2-  O397  1  0.33819826  0.14403906  0.47168695  1
  O2-  O398  1  0.32669036  0.21675604  0.93651790  1
  O2-  O399  1  0.33465310  0.41161589  0.14621297  1
  O2-  O400  1  0.32146016  0.41496079  0.47787986  1
  O2-  O401  1  0.32773003  0.39119817  0.81998557  1
  O2-  O402  1  0.33202849  0.66978199  0.15268308  1
  O2-  O403  1  0.35498105  0.64794848  0.47979820  1
  O2-  O404  1  0.32183269  0.67105246  0.81377419  1
  O2-  O405  1  0.32547255  0.91052933  0.13785858  1
  O2-  O406  1  0.33298324  0.90012766  0.48086335  1
  O2-  O407  1  0.33105663  0.91319020  0.82381559  1
  O2-  O408  1  0.58230993  0.16048494  0.15115572  1
  O2-  O409  1  0.57885427  0.14221719  0.48431564  1
  O2-  O410  1  0.58566854  0.16666176  0.81285725  1
  O2-  O411  1  0.51418614  0.37074183  0.14933481  1
  O2-  O412  1  0.58377163  0.42565712  0.48117283  1
  O2-  O413  1  0.55009408  0.38005359  0.83284429  1
  O2-  O414  1  0.58547824  0.67546266  0.13510741  1
  O2-  O415  1  0.56953457  0.67889143  0.49111864  1
  O2-  O416  1  0.58831930  0.67320787  0.81694717  1
  O2-  O417  1  0.58126718  0.91661461  0.14681988  1
  O2-  O418  1  0.58276618  0.90668835  0.47860020  1
  O2-  O419  1  0.59235872  0.91851873  0.81610477  1
  O2-  O420  1  0.84562070  0.16714338  0.14531740  1
  O2-  O421  1  0.83941188  0.16528794  0.50627638  1
  O2-  O422  1  0.84402936  0.16983975  0.85970968  1
  O2-  O423  1  0.83391532  0.41525461  0.14244435  1
  O2-  O424  1  0.83679701  0.42426116  0.48304806  1
  O2-  O425  1  0.83001820  0.42134167  0.81305659  1
  O2-  O426  1  0.84672537  0.68210016  0.15000362  1
  O2-  O427  1  0.83060898  0.67525479  0.48719352  1
  O2-  O428  1  0.84268958  0.66679622  0.80888208  1
  O2-  O429  1  0.84572604  0.93098721  0.14721919  1
  O2-  O430  1  0.83516826  0.91291701  0.47080110  1
  O2-  O431  1  0.83159508  0.90013643  0.81150760  1
  O2-  O432  1  0.17666789  0.09170961  0.18566030  1
  O2-  O433  1  0.16643330  0.05481339  0.51114764  1
  O2-  O434  1  0.13960475  0.07528326  0.85190694  1
  O2-  O435  1  0.16715892  0.33023030  0.18981539  1
  O2-  O436  1  0.16175118  0.33552576  0.52473813  1
  O2-  O437  1  0.16207992  0.32546154  0.85401146  1
  O2-  O438  1  0.15920133  0.58039916  0.18358425  1
  O2-  O439  1  0.18763500  0.58150645  0.51472559  1
  O2-  O440  1  0.15729305  0.57308494  0.84687840  1
  O2-  O441  1  0.16256382  0.83046200  0.18544021  1
  O2-  O442  1  0.16877499  0.82585578  0.52510350  1
  O2-  O443  1  0.17421112  0.84591245  0.88038960  1
  O2-  O444  1  0.41171149  0.07773502  0.18704208  1
  O2-  O445  1  0.41423325  0.06114376  0.52824376  1
  O2-  O446  1  0.41759010  0.08173396  0.86128918  1
  O2-  O447  1  0.43046436  0.33076745  0.18173356  1
  O2-  O448  1  0.43017709  0.36292119  0.53651796  1
  O2-  O449  1  0.38029448  0.27301949  0.83225468  1
  O2-  O450  1  0.42765298  0.58752225  0.17747136  1
  O2-  O451  1  0.42674966  0.57612814  0.54348527  1
  O2-  O452  1  0.42122053  0.55605753  0.87003842  1
  O2-  O453  1  0.41479024  0.83771783  0.18303887  1
  O2-  O454  1  0.41590571  0.81456935  0.52073184  1
  O2-  O455  1  0.42839668  0.84179643  0.85375892  1
  O2-  O456  1  0.67195437  0.08037896  0.18825566  1
  O2-  O457  1  0.65639092  0.06524960  0.52183584  1
  O2-  O458  1  0.66516792  0.08461595  0.86108424  1
  O2-  O459  1  0.66816906  0.33938142  0.17742465  1
  O2-  O460  1  0.67416613  0.35442918  0.53678233  1
  O2-  O461  1  0.66783401  0.33440624  0.85435051  1
  O2-  O462  1  0.57836263  0.52832245  0.19745131  1
  O2-  O463  1  0.66218613  0.59397636  0.51704679  1
  O2-  O464  1  0.70199351  0.64072921  0.87192216  1
  O2-  O465  1  0.66872039  0.83943347  0.18686046  1
  O2-  O466  1  0.67902604  0.84857244  0.52671625  1
  O2-  O467  1  0.67665553  0.83983150  0.85347232  1
  O2-  O468  1  0.92029407  0.08594915  0.17628842  1
  O2-  O469  1  0.92172759  0.07724916  0.51500822  1
  O2-  O470  1  0.91944614  0.09354929  0.80979826  1
  O2-  O471  1  0.91299615  0.32447392  0.18035637  1
  O2-  O472  1  0.92509970  0.33921728  0.50326972  1
  O2-  O473  1  0.91838791  0.34942479  0.85567395  1
  O2-  O474  1  0.91919427  0.58135893  0.18664411  1
  O2-  O475  1  0.94299815  0.59335345  0.51140578  1
  O2-  O476  1  0.89576352  0.56864496  0.85957224  1
  O2-  O477  1  0.91844884  0.84625612  0.18634413  1
  O2-  O478  1  0.91866345  0.83608585  0.52037324  1
  O2-  O479  1  0.91038924  0.82919009  0.85380654  1
  O2-  O480  1  0.17328868  0.08514510  0.31001086  1
  O2-  O481  1  0.19063825  0.10935426  0.63048631  1
  O2-  O482  1  0.17442747  0.09983167  0.96471682  1
  O2-  O483  1  0.17967856  0.33493118  0.31233821  1
  O2-  O484  1  0.18070229  0.34309783  0.64537662  1
  O2-  O485  1  0.16543957  0.33375456  0.97694897  1
  O2-  O486  1  0.16266486  0.57791364  0.30687842  1
  O2-  O487  1  0.17583603  0.58156762  0.63766552  1
  O2-  O488  1  0.16292500  0.58545883  0.97619435  1
  O2-  O489  1  0.16970237  0.82650957  0.30978523  1
  O2-  O490  1  0.17174588  0.82995776  0.64948754  1
  O2-  O491  1  0.17370717  0.83971301  0.94773861  1
  O2-  O492  1  0.41762283  0.07520233  0.31147370  1
  O2-  O493  1  0.41682833  0.08636638  0.65093749  1
  O2-  O494  1  0.42635857  0.06143411  0.97698707  1
  O2-  O495  1  0.42651214  0.33430967  0.30898702  1
  O2-  O496  1  0.43397654  0.34903851  0.65446600  1
  O2-  O497  1  0.41693329  0.37405850  0.96554581  1
  O2-  O498  1  0.41471016  0.59851657  0.37106383  1
  O2-  O499  1  0.42038367  0.58783422  0.66509316  1
  O2-  O500  1  0.42029644  0.58903662  0.98516473  1
  O2-  O501  1  0.41664721  0.83639280  0.30648037  1
  O2-  O502  1  0.41771884  0.83608800  0.64727464  1
  O2-  O503  1  0.42168984  0.83089554  0.97774054  1
  O2-  O504  1  0.66741551  0.07636036  0.31365606  1
  O2-  O505  1  0.66141355  0.08255727  0.64401385  1
  O2-  O506  1  0.67375563  0.08604758  0.98680126  1
  O2-  O507  1  0.66868458  0.32702958  0.32516893  1
  O2-  O508  1  0.66424010  0.34093034  0.65314194  1
  O2-  O509  1  0.66947804  0.33691927  0.98005891  1
  O2-  O510  1  0.64025855  0.55463503  0.30660308  1
  O2-  O511  1  0.66939037  0.58224343  0.64134823  1
  O2-  O512  1  0.66567632  0.58088776  0.99245183  1
  O2-  O513  1  0.65690173  0.82591111  0.30685213  1
  O2-  O514  1  0.67945392  0.84902842  0.64990479  1
  O2-  O515  1  0.67103039  0.83703703  0.97574103  1
  O2-  O516  1  0.91614531  0.09176285  0.31171009  1
  O2-  O517  1  0.92104239  0.08270018  0.63808380  1
  O2-  O518  1  0.91296233  0.08920121  0.98453744  1
  O2-  O519  1  0.91941051  0.33484063  0.36954719  1
  O2-  O520  1  0.91361546  0.34642124  0.63631298  1
  O2-  O521  1  0.91988822  0.33728157  0.97890525  1
  O2-  O522  1  0.92323415  0.58532015  0.31178682  1
  O2-  O523  1  0.91812318  0.59145617  0.63901420  1
  O2-  O524  1  0.90950727  0.58376729  0.97421457  1
  O2-  O525  1  0.91857095  0.83635041  0.33172975  1
  O2-  O526  1  0.91778557  0.83590423  0.64717622  1
  O2-  O527  1  0.91603636  0.83447127  0.98469187  1
  O2-  O528  1  0.08371372  0.16803192  0.01928166  1
  O2-  O529  1  0.08317330  0.16541177  0.34989327  1
  O2-  O530  1  0.09565213  0.16891575  0.66720192  1
  O2-  O531  1  0.08587788  0.42045121  0.01932464  1
  O2-  O532  1  0.09575576  0.41664474  0.35526030  1
  O2-  O533  1  0.05131179  0.36433015  0.70101408  1
  O2-  O534  1  0.08570874  0.67509573  0.01058298  1
  O2-  O535  1  0.08783417  0.66409099  0.35639200  1
  O2-  O536  1  0.09289732  0.65546478  0.67064928  1
  O2-  O537  1  0.07632953  0.93297415  0.01652957  1
  O2-  O538  1  0.09726305  0.91692243  0.34987453  1
  O2-  O539  1  0.06900127  0.88691642  0.70573439  1
  O2-  O540  1  0.42175770  0.18718928  0.03552433  1
  O2-  O541  1  0.33624678  0.16130909  0.35023660  1
  O2-  O542  1  0.34997120  0.18959075  0.68750098  1
  O2-  O543  1  0.32809901  0.42653372  0.01960743  1
  O2-  O544  1  0.34329092  0.41591003  0.35277744  1
  O2-  O545  1  0.33992210  0.42256992  0.69617426  1
  O2-  O546  1  0.33246916  0.66714265  0.01859636  1
  O2-  O547  1  0.34183709  0.66665070  0.29824872  1
  O2-  O548  1  0.33722411  0.67076482  0.68756971  1
  O2-  O549  1  0.32500912  0.89820639  0.01439205  1
  O2-  O550  1  0.33164208  0.91245649  0.35671089  1
  O2-  O551  1  0.33376412  0.92096142  0.69595947  1
  O2-  O552  1  0.56411593  0.17944590  0.03153182  1
  O2-  O553  1  0.57971637  0.15105137  0.35861507  1
  O2-  O554  1  0.58505033  0.16840793  0.69013604  1
  O2-  O555  1  0.57718935  0.40977647  0.02405727  1
  O2-  O556  1  0.58396583  0.41082512  0.35404740  1
  O2-  O557  1  0.58873250  0.42211206  0.68237417  1
  O2-  O558  1  0.58169569  0.67024035  0.01782024  1
  O2-  O559  1  0.58416261  0.65224903  0.35612344  1
  O2-  O560  1  0.58403017  0.67158041  0.65356635  1
  O2-  O561  1  0.58693586  0.91758272  0.02359103  1
  O2-  O562  1  0.57820817  0.91096404  0.35370048  1
  O2-  O563  1  0.58396178  0.92150393  0.69148087  1
  O2-  O564  1  0.83577303  0.17188756  0.02132564  1
  O2-  O565  1  0.83276279  0.16171066  0.36194430  1
  O2-  O566  1  0.83188808  0.16873560  0.62725345  1
  O2-  O567  1  0.83585452  0.42259115  0.01782879  1
  O2-  O568  1  0.82986238  0.42023675  0.36164534  1
  O2-  O569  1  0.83419204  0.42908984  0.68645484  1
  O2-  O570  1  0.83585720  0.67065998  0.02353950  1
  O2-  O571  1  0.84532008  0.67309551  0.35679035  1
  O2-  O572  1  0.83673117  0.67021829  0.68514892  1
  O2-  O573  1  0.82847277  0.91595863  0.02476310  1
  O2-  O574  1  0.82193682  0.91786241  0.34645650  1
  O2-  O575  1  0.83805301  0.91627237  0.69650390  1
