# generated using pymatgen
data_H2O
_symmetry_space_group_name_H-M   'P 1'
_cell_length_a   17.98741344
_cell_length_b   17.99141253
_cell_length_c   22.00162627
_cell_angle_alpha   89.97639911
_cell_angle_beta   90.03392714
_cell_angle_gamma   120.00295660
_symmetry_Int_Tables_number   1
_chemical_formula_structural   H2O
_chemical_formula_sum   'H384 O192'
_cell_volume   6166.04051491
_cell_formula_units_Z   192
loop_
 _symmetry_equiv_pos_site_id
 _symmetry_equiv_pos_as_xyz
  1  'x, y, z'
loop_
 _atom_type_symbol
 _atom_type_oxidation_number
  H+  1.0
  O2-  -2.0
loop_
 _atom_site_type_symbol
 _atom_site_label
 _atom_site_symmetry_multiplicity
 _atom_site_fract_x
 _atom_site_fract_y
 _atom_site_fract_z
 _atom_site_occupancy
  H+  H0  1  1.00486986  0.05069943  0.54495136  1
  H+  H1  1  0.88970330  0.37004167  0.17822641  1
  H+  H2  1  0.61858491  0.61155875  0.80375362  1
  H+  H3  1  0.61999466  0.22606101  1.00905154  1
  H+  H4  1  0.27620212  0.64304990  0.67639909  1
  H+  H5  1  0.52020524  0.12717400  0.82256116  1
  H+  H6  1  0.17536499  0.30573033  0.00976474  1
  H+  H7  1  0.52752073  0.89090897  0.67177886  1
  H+  H8  1  0.48098128  0.12342277  0.66088193  1
  H+  H9  1  0.86381213  0.86378033  0.16433133  1
  H+  H10  1  0.02680238  0.13339291  0.68781179  1
  H+  H11  1  0.10776326  0.01431447  0.51005648  1
  H+  H12  1  0.51939024  0.39314028  0.33732640  1
  H+  H13  1  0.84290021  0.12678294  0.49709040  1
  H+  H14  1  0.49899565  0.36033278  0.15296110  1
  H+  H15  1  0.02541795  0.16305332  0.01666285  1
  H+  H16  1  0.87680427  -0.14154563  0.50044022  1
  H+  H17  1  0.85603239  0.37149866  0.50043910  1
  H+  H18  1  0.71939273  0.36931509  0.64815955  1
  H+  H19  1  0.14395672  0.62074289  0.65801420  1
  H+  H20  1  0.98275137  0.61144268  0.17300544  1
  H+  H21  1  0.50462519  0.87877829  0.33140118  1
  H+  H22  1  0.60918999  0.38298429  0.66784994  1
  H+  H23  1  0.22326516  0.62092866  0.83158631  1
  H+  H24  1  0.03579217  0.50408918  0.40808674  1
  H+  H25  1  0.62861045  0.76275467  0.16985883  1
  H+  H26  1  0.14306011  0.53061994  0.66442295  1
  H+  H27  1  0.89235862  1.03837417  0.00228251  1
  H+  H28  1  0.72028081  0.35222636  0.84124819  1
  H+  H29  1  0.87846376  0.26315594  0.51609010  1
  H+  H30  1  0.34866906  0.18492308  0.39526822  1
  H+  H31  1  0.63868641  0.88040301  0.34100294  1
  H+  H32  1  0.10696992  0.46682516  0.22957813  1
  H+  H33  1  0.60709824  0.21805991  0.82669353  1
  H+  H34  1  0.38595779  0.77442890  -0.00688882  1
  H+  H35  1  0.59767373  0.45858766  1.01016186  1
  H+  H36  1  0.29244784  0.65173877  0.35325004  1
  H+  H37  1  0.85422602  0.63874953  0.81322280  1
  H+  H38  1  0.67135551  0.96113809  0.38416554  1
  H+  H39  1  0.08389847  0.40833611  0.76948393  1
  H+  H40  1  0.84745282  0.48244170  0.61237749  1
  H+  H41  1  0.41634165  0.83699220  0.57107376  1
  H+  H42  1  0.58763198  0.40320581  0.07153851  1
  H+  H43  1  0.27167381  0.37300187  0.83036802  1
  H+  H44  1  0.88379757  0.36600245  0.66088508  1
  H+  H45  1  0.25913203  0.87328682  0.21856492  1
  H+  H46  1  0.26531494  0.89473577  0.31812610  1
  H+  H47  1  0.38480625  0.49848512  0.82556001  1
  H+  H48  1  0.24777118  0.34404171  0.32067448  1
  H+  H49  1  0.15283127  0.76393904  0.32804104  1
  H+  H50  1  0.61428530  0.13398521  0.15984347  1
  H+  H51  1  0.23459252  0.11990911  0.65802021  1
  H+  H52  1  0.61426133  0.61544637  0.98172474  1
  H+  H53  1  0.38680889  0.87078095  0.66622318  1
  H+  H54  1  0.69242020  0.59714758  0.99323870  1
  H+  H55  1  0.29062667  0.61815091  0.02593900  1
  H+  H56  1  0.11851817  0.33985054  0.38255202  1
  H+  H57  1  0.40385814  0.58615935  0.79646993  1
  H+  H58  1  0.89170368  1.02871350  0.84714661  1
  H+  H59  1  0.87696038  0.14080402  0.83289731  1
  H+  H60  1  0.76962478  0.64141709  0.81969219  1
  H+  H61  1  0.15599479  0.87968593  0.50257640  1
  H+  H62  1  0.03973754  0.15944614  0.48711546  1
  H+  H63  1  0.92656376  0.77397003  0.63300169  1
  H+  H64  1  0.12165000  0.89314413  0.65745834  1
  H+  H65  1  0.07220668  0.92260242  0.10458643  1
  H+  H66  1  0.39607356  1.02628200  -0.00053741  1
  H+  H67  1  0.60101030  0.73148046  -0.00010163  1
  H+  H68  1  0.38532564  0.65185848  0.16160953  1
  H+  H69  1  0.89138209  0.11270884  0.33916992  1
  H+  H70  1  0.17382932  0.58798229  0.56829297  1
  H+  H71  1  0.77579283  0.88356254  0.67608923  1
  H+  H72  1  0.12812065  0.86000515  0.82658256  1
  H+  H73  1  0.11984009  0.22467865  0.84085780  1
  H+  H74  1  0.35954584  0.36811132  0.82729871  1
  H+  H75  1  0.86330635  0.88075460  0.67475273  1
  H+  H76  1  0.49792421  0.47078738  0.19560621  1
  H+  H77  1  0.37062290  0.14145156  0.66833076  1
  H+  H78  1  0.78759665  0.64048365  0.35071345  1
  H+  H79  1  0.41326378  0.57346546  0.91670664  1
  H+  H80  1  0.61927024  0.84659535  0.17698280  1
  H+  H81  1  0.38798782  0.27288959  0.65700868  1
  H+  H82  1  0.52545917  0.63808054  0.50227641  1
  H+  H83  1  0.63382601  0.86622449  1.00489304  1
  H+  H84  1  0.72658177  0.11133690  0.83201765  1
  H+  H85  1  0.11555104  0.64611106  0.14257264  1
  H+  H86  1  0.63365849  0.02848955  0.65053954  1
  H+  H87  1  0.99235590  0.87237703  0.64174540  1
  H+  H88  1  0.15177117  0.28659136  0.50632971  1
  H+  H89  1  0.64042998  0.26989913  0.17372377  1
  H+  H90  1  0.58017852  0.40970990  0.72923136  1
  H+  H91  1  0.14659020  0.10973283  0.32826161  1
  H+  H92  1  -0.00797801  0.63646877  0.00098548  1
  H+  H93  1  0.64167203  0.61832007  0.51646131  1
  H+  H94  1  0.80278018  0.42937347  0.34548995  1
  H+  H95  1  0.12900955  -0.01839037  0.33204342  1
  H+  H96  1  0.36318984  0.11255482  0.16310854  1
  H+  H97  1  0.42055524  0.07531799  0.89546980  1
  H+  H98  1  0.86389308  0.37860536  0.83177494  1
  H+  H99  1  0.77912471  0.14414571  0.16592068  1
  H+  H100  1  0.49452337  0.13185740  0.47907796  1
  H+  H101  1  0.17485008  0.88915868  0.30716524  1
  H+  H102  1  0.11074329  0.96971926  0.80687597  1
  H+  H103  1  0.35476424  0.92930443  0.43274759  1
  H+  H104  1  0.16953404  0.59996626  1.05178614  1
  H+  H105  1  0.88033272  0.14348862  0.68366891  1
  H+  H106  1  0.94000319  0.56263574  0.32877232  1
  H+  H107  1  0.62939891  0.01553778  0.50505990  1
  H+  H108  1  0.52320183  0.10724495  0.36885929  1
  H+  H109  1  0.34230534  0.42660698  0.40179365  1
  H+  H110  1  0.64010124  0.85881976  0.51165638  1
  H+  H111  1  0.89071556  0.52310241  0.17724790  1
  H+  H112  1  0.91986812  0.08953517  0.90745075  1
  H+  H113  1  0.80067156  0.61973423  0.06968216  1
  H+  H114  1  0.39782577  0.62145516  0.33175745  1
  H+  H115  1  0.87984515  0.76344592  0.50222700  1
  H+  H116  1  0.64026419  0.76489775  0.32830016  1
  H+  H117  1  0.39685922  0.91310789  0.33605487  1
  H+  H118  1  0.72300934  0.09947086  1.01796278  1
  H+  H119  1  0.51534631  0.88408216  1.02040742  1
  H+  H120  1  0.36365500  0.74586198  0.83099367  1
  H+  H121  1  0.37066734  0.39882111  0.49732679  1
  H+  H122  1  0.95703862  0.61018464  0.84035762  1
  H+  H123  1  0.40501894  0.29453447  0.99718787  1
  H+  H124  1  0.61668048  0.74135172  0.67130284  1
  H+  H125  1  0.87536540  0.23514152  0.68362163  1
  H+  H126  1  0.61485833  0.47877652  0.49533749  1
  H+  H127  1  0.39547022  0.28841349  0.32046456  1
  H+  H128  1  0.14532124  0.37825338  0.18541716  1
  H+  H129  1  0.29331614  0.14785240  0.33388791  1
  H+  H130  1  0.02969044  0.13595862  0.84014585  1
  H+  H131  1  0.88871987  0.36015144  -0.00440892  1
  H+  H132  1  0.97869220  0.12834050  0.18562889  1
  H+  H133  1  0.15999509  0.54174694  0.14256596  1
  H+  H134  1  0.53105505  0.13646489  0.00762951  1
  H+  H135  1  0.40955754  0.03346734  0.19430594  1
  H+  H136  1  0.57925477  0.24432495  0.32243004  1
  H+  H137  1  0.86833242  0.89495150  0.82990976  1
  H+  H138  1  0.13375985  0.98719742  0.01228846  1
  H+  H139  1  0.51039858  0.64789764  0.66563027  1
  H+  H140  1  0.86607657  0.49998983  0.51780757  1
  H+  H141  1  0.06505984  0.67265507  0.09757343  1
  H+  H142  1  0.64790377  0.01872656  0.31777873  1
  H+  H143  1  0.12110140  0.98353030  0.66246070  1
  H+  H144  1  0.13955069  0.37994498  0.36361725  1
  H+  H145  1  0.73117614  0.60405586  0.20319431  1
  H+  H146  1  0.27833104  0.89863338  0.03734711  1
  H+  H147  1  0.88199651  0.27522008  0.33274192  1
  H+  H148  1  0.88803638  0.02165572  0.67529534  1
  H+  H149  1  0.72931351  0.88038141  0.85124790  1
  H+  H150  1  0.11386610  0.47145186  0.82543715  1
  H+  H151  1  0.32795526  0.92815568  0.75487571  1
  H+  H152  1  0.09551800  0.60009926  0.47546007  1
  H+  H153  1  0.77262634  0.38681088  0.16445625  1
  H+  H154  1  0.63651078  0.10306856  0.01529046  1
  H+  H155  1  0.85517588  0.58103969  0.52526292  1
  H+  H156  1  0.97052002  0.35145856  0.51972469  1
  H+  H157  1  0.63058720  0.35936841  0.50614996  1
  H+  H158  1  0.11037388  0.38319596  0.50290685  1
  H+  H159  1  0.39767992  0.63620702  0.66317600  1
  H+  H160  1  0.38335320  0.73897182  0.34670461  1
  H+  H161  1  0.08109852  0.63657028  0.00831458  1
  H+  H162  1  0.14190020  0.10670718  0.83291868  1
  H+  H163  1  0.35197391  0.92641647  0.08497904  1
  H+  H164  1  0.85535588  0.17638232  0.75444693  1
  H+  H165  1  0.63112713  0.11584345  0.65019789  1
  H+  H166  1  0.04243858  0.89075702  0.32790111  1
  H+  H167  1  0.77722671  0.64285595  0.49639898  1
  H+  H168  1  0.41500284  0.58804749  0.23276545  1
  H+  H169  1  0.60610860  0.97210212  0.03254650  1
  H+  H170  1  0.86990439  0.14759445  0.17265502  1
  H+  H171  1  0.86735821  -0.02530012  0.34513315  1
  H+  H172  1  0.13907552  0.36157658  0.84604576  1
  H+  H173  1  0.51693300  0.37233135  0.82484923  1
  H+  H174  1  0.77275426  0.87813285  0.49497537  1
  H+  H175  1  0.38156372  0.87190935  0.83568013  1
  H+  H176  1  0.38193097  0.53211686  0.17163014  1
  H+  H177  1  0.78098338  0.88218153  0.33950006  1
  H+  H178  1  0.98011079  0.36221935  0.84357863  1
  H+  H179  1  0.37799012  0.89811332  0.49416945  1
  H+  H180  1  0.13807640  0.12505816  0.17594038  1
  H+  H181  1  0.32737501  0.45892772  -0.00933626  1
  H+  H182  1  0.93417490  0.59801388  0.26293692  1
  H+  H183  1  0.88676345  0.78022522  0.83363947  1
  H+  H184  1  0.87611927  0.64361960  0.65284985  1
  H+  H185  1  0.87645999  0.23243069  0.83212917  1
  H+  H186  1  0.47464977  0.36439115  0.65750126  1
  H+  H187  1  0.67486824  0.58609482  0.40578542  1
  H+  H188  1  0.53029876  0.60947171  0.81192851  1
  H+  H189  1  1.00041618  0.91157928  0.98088650  1
  H+  H190  1  0.57255052  0.61397642  0.15832690  1
  H+  H191  1  0.36725313  0.23600533  0.48484436  1
  H+  H192  1  0.30450302  0.15855736  0.00689288  1
  H+  H193  1  0.09088768  0.63276297  0.82063070  1
  H+  H194  1  0.28040930  0.88610440  0.83211635  1
  H+  H195  1  0.84866160  0.58051027  -0.00615545  1
  H+  H196  1  0.11649740  0.14555569  0.49296670  1
  H+  H197  1  0.37010865  0.35805582  0.98633006  1
  H+  H198  1  0.38363115  0.86156513  1.00091230  1
  H+  H199  1  0.38859199  0.26255302  0.84045437  1
  H+  H200  1  0.11507534  0.76455072  0.99210820  1
  H+  H201  1  0.89031685  0.12544023  1.00216688  1
  H+  H202  1  0.39608641  0.00174480  0.34146967  1
  H+  H203  1  0.39258656  0.62029772  0.51214684  1
  H+  H204  1  0.88038090  0.74210476  -0.02666892  1
  H+  H205  1  0.88554621  0.64420539  0.15181077  1
  H+  H206  1  0.11771916  0.23888465  0.17099557  1
  H+  H207  1  0.38504650  0.00921352  0.83795361  1
  H+  H208  1  1.02764768  0.88273932  0.47912943  1
  H+  H209  1  0.55225089  0.89729153  0.11093996  1
  H+  H210  1  0.37659255  0.40004140  0.34230539  1
  H+  H211  1  0.36576535  0.39980692  0.15897033  1
  H+  H212  1  0.39438866  0.89500774  0.17242584  1
  H+  H213  1  0.41680546  0.14595548  0.33509146  1
  H+  H214  1  0.67886325  0.31320169  0.33570252  1
  H+  H215  1  0.22225054  0.35891451  0.66273132  1
  H+  H216  1  0.75913429  0.86858540  0.15721221  1
  H+  H217  1  0.20933795  0.82469898  0.96576598  1
  H+  H218  1  0.40248210  0.11752462  0.99340544  1
  H+  H219  1  0.58642025  0.16933253  0.72878511  1
  H+  H220  1  0.61178223  0.63539107  0.35251988  1
  H+  H221  1  0.40853853  0.04563900  0.49261341  1
  H+  H222  1  0.24621041  0.88334161  0.50376326  1
  H+  H223  1  0.58494662  0.16761855  0.10161028  1
  H+  H224  1  0.51923357  0.87599819  0.50410191  1
  H+  H225  1  0.62478197  0.01527197  0.17614270  1
  H+  H226  1  0.84688661  0.75160059  0.98545290  1
  H+  H227  1  0.61507774  0.23122480  0.66983916  1
  H+  H228  1  0.16492223  0.64161707  0.34154602  1
  H+  H229  1  0.87068234  0.91324907  -0.00103789  1
  H+  H230  1  0.39297431  0.53093327  0.51297251  1
  H+  H231  1  0.37809787  0.30255613  0.18076099  1
  H+  H232  1  0.90942134  0.01035435  0.52111410  1
  H+  H233  1  0.35809708  0.65407509  0.83870163  1
  H+  H234  1  0.66478838  0.84715167  0.94011964  1
  H+  H235  1  0.64231093  0.87210488  0.66245261  1
  H+  H236  1  0.37309510  0.63208007  0.99200279  1
  H+  H237  1  0.28172086  0.12859222  0.82114911  1
  H+  H238  1  0.14484599  0.11862994  0.66703495  1
  H+  H239  1  0.25094793  0.63052465  0.13504394  1
  H+  H240  1  -0.10645054  0.28295834  0.18014188  1
  H+  H241  1  0.73293520  0.64466991  0.21412259  1
  H+  H242  1  0.75466041  0.12781734  0.49663653  1
  H+  H243  1  0.18547552  0.85243272  0.59240983  1
  H+  H244  1  0.52356438  0.89217873  0.82173090  1
  H+  H245  1  0.63268676  0.09326000  0.33697897  1
  H+  H246  1  0.89587093  0.86638879  0.32372739  1
  H+  H247  1  0.11384327  0.48410794  0.99113197  1
  H+  H248  1  0.60831347  0.45892525  0.82657242  1
  H+  H249  1  0.37057066  0.12816625  0.82469880  1
  H+  H250  1  0.39295860  0.52961446  0.32991677  1
  H+  H251  1  0.38736839  0.77410480  0.51298103  1
  H+  H252  1  0.27745743  0.63742302  0.49819159  1
  H+  H253  1  0.63080513  0.35187056  0.83869429  1
  H+  H254  1  0.21897224  0.10880654  0.16992979  1
  H+  H255  1  0.10679730  0.15397966  0.02244492  1
  H+  H256  1  0.14653540  0.83406578  0.89157964  1
  H+  H257  1  0.14125640  0.51944931  0.51549711  1
  H+  H258  1  0.17952479  0.34324342  0.90563318  1
  H+  H259  1  0.38266916  0.78012854  0.66726383  1
  H+  H260  1  0.05925350  0.68137975  0.32629839  1
  H+  H261  1  0.13461066  0.13040724  0.93816069  1
  H+  H262  1  0.28298229  0.40149051  0.49781439  1
  H+  H263  1  0.23190994  0.87799112  0.65999251  1
  H+  H264  1  0.03930752  0.66194612  0.66616241  1
  H+  H265  1  0.87085323  0.51925239  0.83652409  1
  H+  H266  1  0.89597039  0.77814245  0.32232640  1
  H+  H267  1  0.09606124  0.98390756  0.16294953  1
  H+  H268  1  0.64937452  0.36486586  0.99820674  1
  H+  H269  1  0.47617806  0.37054245  0.50667759  1
  H+  H270  1  0.12309806  0.89468316  0.00950095  1
  H+  H271  1  0.61383671  0.98124955  0.82083840  1
  H+  H272  1  0.65570252  0.32364702  0.23384180  1
  H+  H273  1  0.67345983  0.83934485  0.60438257  1
  H+  H274  1  -0.02692332  0.87607414  0.16767160  1
  H+  H275  1  0.49210103  0.12389001  0.17923224  1
  H+  H276  1  0.77542252  0.13765692  0.33950664  1
  H+  H277  1  0.78458440  0.61959368  0.72383301  1
  H+  H278  1  0.46783734  0.60358897  0.97820840  1
  H+  H279  1  0.35169936  0.37522640  0.66930132  1
  H+  H280  1  0.64100564  0.77021995  0.51214454  1
  H+  H281  1  0.03052728  0.40655983  0.18685562  1
  H+  H282  1  -0.08983975  0.33790139  0.27441065  1
  H+  H283  1  0.63840036  0.11171542  0.83051573  1
  H+  H284  1  0.88064528  0.64882084  0.34152267  1
  H+  H285  1  0.14637128  0.54820679  0.35755944  1
  H+  H286  1  -0.01984160  0.11033551  0.33467158  1
  H+  H287  1  0.12847731  0.21296197  0.32900492  1
  H+  H288  1  0.95015587  0.89503930  0.91811175  1
  H+  H289  1  0.09305178  0.72153424  0.82934160  1
  H+  H290  1  0.83086226  0.35839374  0.34202336  1
  H+  H291  1  0.77228933  0.89326075  0.00601736  1
  H+  H292  1  0.37805360  0.69200545  0.09773450  1
  H+  H293  1  0.66723032  0.32821264  0.93604172  1
  H+  H294  1  0.17597985  0.08660203  0.26669918  1
  H+  H295  1  0.92908764  0.07853456  0.61686903  1
  H+  H296  1  0.37723086  0.15326259  0.47835048  1
  H+  H297  1  0.58684028  0.66522681  0.72492142  1
  H+  H298  1  0.32590085  0.41883105  0.09689744  1
  H+  H299  1  -0.00486387  0.41858521  0.36431485  1
  H+  H300  1  0.41566318  0.32810736  0.89838923  1
  H+  H301  1  0.17180942  0.33825671  0.56931900  1
  H+  H302  1  0.52308041  0.63699596  0.34308627  1
  H+  H303  1  0.09134210  0.16775703  0.74392635  1
  H+  H304  1  0.13216602  0.40662829  -0.00645508  1
  H+  H305  1  0.13095682  0.74085865  0.65840584  1
  H+  H306  1  0.65425447  0.51792172  0.66729976  1
  H+  H307  1  0.33522113  0.67692298  0.73652869  1
  H+  H308  1  0.93558910  0.65263285  0.59886224  1
  H+  H309  1  0.57109582  0.66512300  0.05527660  1
  H+  H310  1  0.07974895  0.91025631  0.74744815  1
  H+  H311  1  0.87503967  0.72700569  0.14574426  1
  H+  H312  1  0.23212011  0.37620953  0.16866324  1
  H+  H313  1  0.43385817  0.79094947  0.16576277  1
  H+  H314  1  0.57664441  0.89763152  0.44395091  1
  H+  H315  1  0.11298648  0.38651780  0.67414685  1
  H+  H316  1  0.86059570  0.46830312  1.00606908  1
  H+  H317  1  0.97785830  0.36017986  0.98708548  1
  H+  H318  1  0.09483172  0.16841631  0.39394695  1
  H+  H319  1  0.42150043  0.35451323  0.26258677  1
  H+  H320  1  0.63978160  0.51955548  0.35305377  1
  H+  H321  1  0.65386128  0.08152749  0.56154640  1
  H+  H322  1  0.41465090  0.33687440  0.56483700  1
  H+  H323  1  0.89141993  0.57323101  0.93050544  1
  H+  H324  1  0.77539295  0.37749247  0.00784556  1
  H+  H325  1  0.02589456  0.39018376  0.67693360  1
  H+  H326  1  0.39175883  0.03691057  0.66840592  1
  H+  H327  1  0.82336466  0.90264802  0.09726454  1
  H+  H328  1  0.97792586  0.86413252  0.82371038  1
  H+  H329  1  0.32092794  0.39658606  0.73099233  1
  H+  H330  1  0.65231311  0.32766515  0.59433200  1
  H+  H331  1  0.63988465  0.87783960  0.84623294  1
  H+  H332  1  0.83359969  0.90829325  0.43427492  1
  H+  H333  1  0.35060394  0.16354377  0.06833056  1
  H+  H334  1  0.58280568  0.34817695  0.15586888  1
  H+  H335  1  0.86269061  0.22630461  0.01360511  1
  H+  H336  1  0.59623231  0.52071380  0.20765557  1
  H+  H337  1  0.41698583  0.84095811  0.89495940  1
  H+  H338  1  0.58722959  0.92180975  0.73049175  1
  H+  H339  1  0.72428806  0.52779809  0.04347286  1
  H+  H340  1  0.71546263  0.35255951  0.50930236  1
  H+  H341  1  0.21077792  0.65013450  0.23169658  1
  H+  H342  1  0.91675334  0.09268122  0.24278232  1
  H+  H343  1  0.66183826  0.56887672  0.90341487  1
  H+  H344  1  0.90993393  0.32602784  0.60707126  1
  H+  H345  1  0.19210652  0.31661501  0.25954465  1
  H+  H346  1  0.20668681  0.64585723  0.98771638  1
  H+  H347  1  0.07978882  0.64214645  0.41765357  1
  H+  H348  1  0.09325798  0.92256170  0.42404062  1
  H+  H349  1  0.45240642  0.11693936  0.27813663  1
  H+  H350  1  0.08175238  0.18117517  0.11268909  1
  H+  H351  1  0.91013017  0.83578332  0.22925665  1
  H+  H352  1  0.84381446  0.67036041  0.43883622  1
  H+  H353  1  0.06658384  0.41904730  0.45373325  1
  H+  H354  1  0.45626630  0.85185904  0.26872062  1
  H+  H355  1  0.15517338  0.58538529  0.88454851  1
  H+  H356  1  0.83705275  0.48758349  0.68210057  1
  H+  H357  1  0.66117518  0.67321929  0.12770045  1
  H+  H358  1  0.58292888  0.66693878  0.44178646  1
  H+  H359  1  0.28708241  0.97653431  0.71895028  1
  H+  H360  1  0.82613795  0.16653049  0.40257658  1
  H+  H361  1  0.60006606  0.37865215  0.34123399  1
  H+  H362  1  0.58003630  0.41882233  0.43541394  1
  H+  H363  1  0.13813309  0.07205768  0.57219428  1
  H+  H364  1  0.42604888  0.60119437  0.60338011  1
  H+  H365  1  0.13183656  0.27233580  0.66336608  1
  H+  H366  1  0.34476805  0.67504813  0.44199528  1
  H+  H367  1  0.81807955  0.39198268  0.44032850  1
  H+  H368  1  0.91734619  0.33044847  0.90271146  1
  H+  H369  1  0.34009195  0.16996692  0.72803340  1
  H+  H370  1  0.16273709  0.62544853  0.23153768  1
  H+  H371  1  0.82901315  0.39894463  0.77180080  1
  H+  H372  1  0.84186372  0.17385995  0.07667274  1
  H+  H373  1  0.83219913  0.41455956  0.10470916  1
  H+  H374  1  0.83648940  0.92416080  0.77299159  1
  H+  H375  1  0.61781057  0.12358119  0.46836947  1
  H+  H376  1  0.28361989  0.04839690  0.12529228  1
  H+  H377  1  0.66109814  0.08020078  0.23138803  1
  H+  H378  1  0.66757579  0.82183039  0.26637873  1
  H+  H379  1  0.06269155  0.03444103  0.95468017  1
  H+  H380  1  0.72186230  0.53756463  0.87474945  1
  H+  H381  1  0.16663111  0.06034791  0.88309497  1
  H+  H382  1  0.68227132  0.58810008  0.57041665  1
  H+  H383  1  0.92074160  0.83371397  0.56496266  1
  O2-  O384  1  0.08613886  0.17724609  0.15749287  1
  O2-  O385  1  0.09956224  0.18534650  0.47330178  1
  O2-  O386  1  0.09115399  0.16362117  0.82677186  1
  O2-  O387  1  0.09500874  0.44421227  0.18821983  1
  O2-  O388  1  0.07274595  0.40923897  0.49783659  1
  O2-  O389  1  0.08427794  0.40913262  0.81527485  1
  O2-  O390  1  0.07485871  0.66744772  0.14131966  1
  O2-  O391  1  0.05158452  0.59209114  0.44496675  1
  O2-  O392  1  0.05466127  0.65933898  0.82096555  1
  O2-  O393  1  0.06113284  0.92311439  0.14861913  1
  O2-  O394  1  0.08812791  0.92275966  0.46949852  1
  O2-  O395  1  0.07738940  0.90885782  0.79325856  1
  O2-  O396  1  0.31569814  0.10907531  0.13632071  1
  O2-  O397  1  0.34206703  0.17932548  0.46463531  1
  O2-  O398  1  0.34333594  0.16241211  0.81014177  1
  O2-  O399  1  0.33037596  0.42665906  0.14123420  1
  O2-  O400  1  0.34332433  0.43276387  0.48240196  1
  O2-  O401  1  0.33038272  0.40013788  0.81238989  1
  O2-  O402  1  0.36812231  0.69370536  0.14168350  1
  O2-  O403  1  0.34020663  0.67147614  0.48746779  1
  O2-  O404  1  0.33060931  0.68119812  0.81697045  1
  O2-  O405  1  0.36140814  0.92538681  0.16374864  1
  O2-  O406  1  0.35181842  0.93126345  0.47772526  1
  O2-  O407  1  0.33940301  0.91634346  0.81623813  1
  O2-  O408  1  0.58566649  0.16727467  0.14758234  1
  O2-  O409  1  0.59838414  0.15352019  0.43866484  1
  O2-  O410  1  0.58075448  0.16054605  0.80713768  1
  O2-  O411  1  0.54053711  0.35059588  0.12835407  1
  O2-  O412  1  0.58149278  0.41880120  0.48085448  1
  O2-  O413  1  0.57732398  0.40049502  0.80851412  1
  O2-  O414  1  0.60484349  0.66791632  0.13292488  1
  O2-  O415  1  0.58667300  0.66645247  0.48717292  1
  O2-  O416  1  0.58864061  0.64263997  0.79409410  1
  O2-  O417  1  0.55434849  0.89576019  0.15968750  1
  O2-  O418  1  0.58067038  0.90376232  0.48846634  1
  O2-  O419  1  0.58333190  0.91943522  0.80593482  1
  O2-  O420  1  0.84034798  0.17864855  0.15444441  1
  O2-  O421  1  0.81784848  0.16074706  0.48287618  1
  O2-  O422  1  0.84996986  0.17288877  0.81334156  1
  O2-  O423  1  0.83374541  0.41731749  0.15011750  1
  O2-  O424  1  0.82570185  0.40134515  0.48479672  1
  O2-  O425  1  0.82978957  0.40514618  0.81579945  1
  O2-  O426  1  0.86721776  0.67586721  0.12422086  1
  O2-  O427  1  0.83942219  0.67242510  0.48429299  1
  O2-  O428  1  0.82428782  0.66875918  0.79660355  1
  O2-  O429  1  0.81964752  0.89310996  0.14269009  1
  O2-  O430  1  0.83399840  0.90580245  0.48011677  1
  O2-  O431  1  0.84046913  0.92900172  0.81797380  1
  O2-  O432  1  0.16170089  0.08679390  0.18826914  1
  O2-  O433  1  0.10515736  0.06050215  0.53339230  1
  O2-  O434  1  0.17006158  0.07096017  0.83913696  1
  O2-  O435  1  0.17345859  0.34312269  0.18794583  1
  O2-  O436  1  0.17687409  0.34536796  0.52394163  1
  O2-  O437  1  0.16967989  0.33152151  0.86161376  1
  O2-  O438  1  0.19006007  0.59759731  0.12082674  1
  O2-  O439  1  0.17344948  0.58258271  0.52305545  1
  O2-  O440  1  0.16053732  0.58228799  0.84074039  1
  O2-  O441  1  0.27122306  0.86052623  0.17640967  1
  O2-  O442  1  0.18705736  0.85307391  0.52096015  1
  O2-  O443  1  0.15525884  0.83032037  0.84782792  1
  O2-  O444  1  0.43428582  0.09591168  0.20081141  1
  O2-  O445  1  0.43704087  0.10879504  0.49662978  1
  O2-  O446  1  0.41727886  0.07389046  0.85052611  1
  O2-  O447  1  0.41677478  0.36292206  0.18985330  1
  O2-  O448  1  0.41481566  0.34189629  0.51936084  1
  O2-  O449  1  0.41638359  0.32450463  0.85277653  1
  O2-  O450  1  0.41253556  0.59169702  0.18781565  1
  O2-  O451  1  0.42442770  0.59194817  0.52863177  1
  O2-  O452  1  0.41861945  0.56389499  0.83210560  1
  O2-  O453  1  0.46476287  0.85250107  0.18312309  1
  O2-  O454  1  0.42071444  0.83595595  0.52593817  1
  O2-  O455  1  0.41389315  0.83777096  0.85012396  1
  O2-  O456  1  0.66033578  0.07698337  0.18613507  1
  O2-  O457  1  0.65724749  0.07786114  0.51454922  1
  O2-  O458  1  0.66628920  0.07882555  0.84448462  1
  O2-  O459  1  0.66661352  0.33017061  0.18942565  1
  O2-  O460  1  0.65529792  0.32570555  0.52367815  1
  O2-  O461  1  0.66072552  0.32295720  0.85727761  1
  O2-  O462  1  0.54709681  0.52910900  0.20313790  1
  O2-  O463  1  0.67672533  0.59030270  0.52567185  1
  O2-  O464  1  0.68189400  0.55670784  0.86251663  1
  O2-  O465  1  0.65626175  0.82186514  0.18763882  1
  O2-  O466  1  0.67450596  0.83190645  0.52544366  1
  O2-  O467  1  0.67092401  0.85331168  0.86851371  1
  O2-  O468  1  0.91757933  0.10067323  0.19818243  1
  O2-  O469  1  0.95435468  0.06000734  0.54372214  1
  O2-  O470  1  0.92313839  0.09008005  0.86184882  1
  O2-  O471  1  0.92225514  0.34342872  0.19617629  1
  O2-  O472  1  0.90861525  0.32227353  0.53331099  1
  O2-  O473  1  0.91832148  0.33086405  0.85661182  1
  O2-  O474  1  0.92319411  0.58373962  0.19191199  1
  O2-  O475  1  0.87730179  0.54790215  0.54627148  1
  O2-  O476  1  0.89322249  0.57870131  0.85123989  1
  O2-  O477  1  0.90832413  0.83800141  0.18304793  1
  O2-  O478  1  0.91098034  0.82850278  0.51532628  1
  O2-  O479  1  0.92215094  0.84106237  0.84628302  1
  O2-  O480  1  0.18059200  0.08381699  0.31172103  1
  O2-  O481  1  0.17194151  0.08879159  0.64631700  1
  O2-  O482  1  0.12345053  0.08068357  0.96289534  1
  O2-  O483  1  0.20368809  0.29424921  0.29742040  1
  O2-  O484  1  0.16031854  0.33164891  0.64694842  1
  O2-  O485  1  0.20744429  0.36253366  0.98858322  1
  O2-  O486  1  0.19032398  0.60355081  0.34031425  1
  O2-  O487  1  0.17656492  0.58988875  0.64803345  1
  O2-  O488  1  0.15585261  0.59853994  1.00644192  1
  O2-  O489  1  0.21157328  0.86558214  0.29333264  1
  O2-  O490  1  0.17560662  0.84712356  0.63846379  1
  O2-  O491  1  0.15808381  0.82586007  0.97862932  1
  O2-  O492  1  0.45813950  0.12516190  0.32310805  1
  O2-  O493  1  0.41906670  0.09439920  0.64939002  1
  O2-  O494  1  0.42760787  0.08256974  0.97871712  1
  O2-  O495  1  0.42537081  0.35063864  0.30897790  1
  O2-  O496  1  0.41476956  0.33348709  0.64163526  1
  O2-  O497  1  0.41527655  0.34552792  0.97380244  1
  O2-  O498  1  0.42611258  0.59041090  0.31440480  1
  O2-  O499  1  0.43279750  0.61045295  0.64880983  1
  O2-  O500  1  0.40785021  0.57102510  0.96148331  1
  O2-  O501  1  0.44724693  0.85290861  0.31307834  1
  O2-  O502  1  0.41477584  0.84020312  0.65042184  1
  O2-  O503  1  0.41532635  0.83586145  0.98171065  1
  O2-  O504  1  0.66941433  0.08022373  0.30961819  1
  O2-  O505  1  0.65849210  0.08531522  0.63057798  1
  O2-  O506  1  0.66043207  0.06420003  1.01056665  1
  O2-  O507  1  0.62615464  0.30286669  0.31379264  1
  O2-  O508  1  0.65696107  0.33261976  0.64094203  1
  O2-  O509  1  0.67266130  0.32871198  0.98127649  1
  O2-  O510  1  0.67473251  0.58378656  0.36146354  1
  O2-  O511  1  0.69951981  0.57916165  0.65575659  1
  O2-  O512  1  0.63902700  0.57885712  0.96906071  1
  O2-  O513  1  0.67443546  0.82516291  0.31161544  1
  O2-  O514  1  0.67283611  0.84003631  0.64985603  1
  O2-  O515  1  0.66432976  0.83874595  0.98628163  1
  O2-  O516  1  0.91716165  0.07839102  0.32434462  1
  O2-  O517  1  0.92007664  0.08286629  0.66138348  1
  O2-  O518  1  0.92413582  0.09810174  0.98623464  1
  O2-  O519  1  0.90255492  0.33576747  0.31968199  1
  O2-  O520  1  0.91152723  0.33161279  0.65311732  1
  O2-  O521  1  0.91498464  0.32704531  0.97806387  1
  O2-  O522  1  0.94339580  0.61229098  0.30842498  1
  O2-  O523  1  0.93438097  0.68259645  0.63583281  1
  O2-  O524  1  0.89434346  0.57034546  0.97583687  1
  O2-  O525  1  0.92328968  0.83636600  0.30345157  1
  O2-  O526  1  0.93140009  0.83186336  0.62666586  1
  O2-  O527  1  0.96874120  0.93177591  0.95525780  1
  O2-  O528  1  0.08584656  0.19338100  0.03309958  1
  O2-  O529  1  0.08709933  0.15612518  0.34963916  1
  O2-  O530  1  0.08886070  0.16612480  0.69881296  1
  O2-  O531  1  0.08783280  0.42193497  -0.01525213  1
  O2-  O532  1  0.04519633  0.45809604  0.38931954  1
  O2-  O533  1  0.08571100  0.41862231  0.69228709  1
  O2-  O534  1  0.05299171  0.67092231  0.01660694  1
  O2-  O535  1  0.11607541  0.70559560  0.34584039  1
  O2-  O536  1  0.09979305  0.67933830  0.67116928  1
  O2-  O537  1  0.09619239  0.92758155  0.02471307  1
  O2-  O538  1  0.10113669  0.91945336  0.34508427  1
  O2-  O539  1  0.08681693  0.92040937  0.67197142  1
  O2-  O540  1  0.36150845  0.18108922  0.02449780  1
  O2-  O541  1  0.35334455  0.18440578  0.34826835  1
  O2-  O542  1  0.33672309  0.17042191  0.68298047  1
  O2-  O543  1  0.29705141  0.40092698  0.01046732  1
  O2-  O544  1  0.34298760  0.42763885  0.35643777  1
  O2-  O545  1  0.31680654  0.39924158  0.68631521  1
  O2-  O546  1  0.34807982  0.66343356  0.01464606  1
  O2-  O547  1  0.35568838  0.68060234  0.36422753  1
  O2-  O548  1  0.33755346  0.67720338  0.69129570  1
  O2-  O549  1  0.34050757  0.92347880  0.04022974  1
  O2-  O550  1  0.36408400  0.94010900  0.35193427  1
  O2-  O551  1  0.31478248  0.94324552  0.70904623  1
  O2-  O552  1  0.58893066  0.16698665  0.02703684  1
  O2-  O553  1  0.56213485  0.08986501  0.38949273  1
  O2-  O554  1  0.58652158  0.17001311  0.68337037  1
  O2-  O555  1  0.62486711  0.43257000  0.03398911  1
  O2-  O556  1  0.57867633  0.41668542  0.35652162  1
  O2-  O557  1  0.58320302  0.41760707  0.68420865  1
  O2-  O558  1  0.56649829  0.66849481  0.01041843  1
  O2-  O559  1  0.58308467  0.66913709  0.36143230  1
  O2-  O560  1  0.58145604  0.67737301  0.68016952  1
  O2-  O561  1  0.56938813  0.90791506  0.04460740  1
  O2-  O562  1  0.62042714  0.92011980  0.36155837  1
  O2-  O563  1  0.58863282  0.92049082  0.68449073  1
  O2-  O564  1  0.83692063  0.16744507  0.03128143  1
  O2-  O565  1  0.83411638  0.16891513  0.35763567  1
  O2-  O566  1  0.85445576  0.17670671  0.70287214  1
  O2-  O567  1  0.83566084  0.40967656  0.02418743  1
  O2-  O568  1  0.78822496  0.37304784  0.36116277  1
  O2-  O569  1  0.83416808  0.44794921  0.65069332  1
  O2-  O570  1  0.77084414  0.58639070  0.03187883  1
  O2-  O571  1  0.84991544  0.67665579  0.36025487  1
  O2-  O572  1  0.77607730  0.58541855  0.68571675  1
  O2-  O573  1  0.83196491  0.92568921  0.02348372  1
  O2-  O574  1  0.83957738  0.91251525  0.35788967  1
  O2-  O575  1  0.83646557  0.91233761  0.69168176  1
