# generated using pymatgen
data_H2O
_symmetry_space_group_name_H-M   'P 1'
_cell_length_a   17.99916245
_cell_length_b   17.99562089
_cell_length_c   21.99721564
_cell_angle_alpha   90.00628136
_cell_angle_beta   89.99099918
_cell_angle_gamma   120.01991271
_symmetry_Int_Tables_number   1
_chemical_formula_structural   H2O
_chemical_formula_sum   'H384 O192'
_cell_volume   6169.22049180
_cell_formula_units_Z   192
loop_
 _symmetry_equiv_pos_site_id
 _symmetry_equiv_pos_as_xyz
  1  'x, y, z'
loop_
 _atom_type_symbol
 _atom_type_oxidation_number
  H+  1.0
  O2-  -2.0
loop_
 _atom_site_type_symbol
 _atom_site_label
 _atom_site_symmetry_multiplicity
 _atom_site_fract_x
 _atom_site_fract_y
 _atom_site_fract_z
 _atom_site_occupancy
  H+  H0  1  0.37153969  0.77224662  0.32694713  1
  H+  H1  1  0.77858418  0.64134913  0.83955676  1
  H+  H2  1  0.63410742  0.51826711  0.01557540  1
  H+  H3  1  0.63945713  0.87409997  0.82187607  1
  H+  H4  1  0.99446312  0.12118064  0.33248190  1
  H+  H5  1  0.21653256  0.64751429  0.50605776  1
  H+  H6  1  0.92881568  0.08939400  0.23710756  1
  H+  H7  1  0.61426405  0.99666131  0.83666735  1
  H+  H8  1  0.44284211  0.82665436  0.17223054  1
  H+  H9  1  0.28866816  0.76836998  0.87872229  1
  H+  H10  1  0.65130255  0.81609664  0.73610911  1
  H+  H11  1  0.11083577  0.38977557  0.86498209  1
  H+  H12  1  0.10680078  0.88387525  0.65350739  1
  H+  H13  1  0.47102665  0.86108790  0.66485569  1
  H+  H14  1  0.38367719  0.11141169  0.50306532  1
  H+  H15  1  0.87587693  0.02160270  0.66280587  1
  H+  H16  1  0.24047553  0.35589493  0.84447148  1
  H+  H17  1  0.17441903  0.34854932  0.94431395  1
  H+  H18  1  0.97855064  0.12526872  0.99130741  1
  H+  H19  1  0.98270557  0.62862160  0.32349503  1
  H+  H20  1  0.37832585  0.01794284  0.32749716  1
  H+  H21  1  0.58024078  0.92991957  0.14823113  1
  H+  H22  1  0.85487516  0.13991898  0.67660371  1
  H+  H23  1  0.52906106  0.63320015  0.48541426  1
  H+  H24  1  0.75918794  0.89146114  0.98127352  1
  H+  H25  1  0.59337991  0.64416516  0.63254767  1
  H+  H26  1  0.35878235  0.89277470  0.49068146  1
  H+  H27  1  0.35506514  0.87412016  0.67129226  1
  H+  H28  1  0.22211666  0.11150724  0.83223546  1
  H+  H29  1  0.64629307  0.53264340  0.85225667  1
  H+  H30  1  0.61964686  0.76728293  0.67083768  1
  H+  H31  1  0.32645328  0.15686979  0.07155262  1
  H+  H32  1  0.58577676  0.66443398  0.10511701  1
  H+  H33  1  0.14448625  0.72603610  0.32378096  1
  H+  H34  1  0.36244402  0.38994109  0.01170755  1
  H+  H35  1  0.42592868  0.35175604  0.59695817  1
  H+  H36  1  0.22405252  0.11438691  0.16444706  1
  H+  H37  1  0.79170864  0.14873109  0.35159862  1
  H+  H38  1  0.85154969  0.37037933  0.16628193  1
  H+  H39  1  0.52097816  0.13537484  0.48935198  1
  H+  H40  1  0.87107345  0.89525986  0.01232766  1
  H+  H41  1  0.96672569  0.35618295  0.85209471  1
  H+  H42  1  0.25212863  0.88440991  0.33634049  1
  H+  H43  1  0.34111748  0.41649134  0.42285135  1
  H+  H44  1  0.69989718  0.47435680  0.42351587  1
  H+  H45  1  0.23367519  0.89032209  1.01910318  1
  H+  H46  1  0.66385268  0.57108970  0.95212385  1
  H+  H47  1  0.52900011  0.64643029  0.33225949  1
  H+  H48  1  0.35723489  0.25265821  0.34604430  1
  H+  H49  1  0.61210674  0.88734574  0.49815980  1
  H+  H50  1  0.04617025  0.40396579  0.32749954  1
  H+  H51  1  0.48208375  0.15416307  0.15957839  1
  H+  H52  1  0.15054101  0.02925220  0.32793295  1
  H+  H53  1  0.15508009  0.11894134  0.31840462  1
  H+  H54  1  0.87139428  0.39808454  0.82526532  1
  H+  H55  1  0.83879773  0.66750827  1.06771640  1
  H+  H56  1  0.63678498  0.51836577  0.49158177  1
  H+  H57  1  0.87825383  0.14238072  0.35135411  1
  H+  H58  1  0.11310212  0.89397558  0.15648659  1
  H+  H59  1  0.85692345  0.11519003  0.50239452  1
  H+  H60  1  0.11659558  0.73263900  0.82000306  1
  H+  H61  1  0.84795431  0.42216847  0.40379821  1
  H+  H62  1  0.12942418  0.10465886  0.82902164  1
  H+  H63  1  0.42690206  0.59131925  0.26569173  1
  H+  H64  1  0.47051621  0.10401215  0.32807471  1
  H+  H65  1  0.48361350  0.85012203  1.00325400  1
  H+  H66  1  0.38757293  0.37268577  0.84346077  1
  H+  H67  1  0.86504298  0.98733037  0.82297876  1
  H+  H68  1  0.87811859  0.52834584  0.50572616  1
  H+  H69  1  0.46902775  0.34966079  0.50015060  1
  H+  H70  1  0.88266944  0.28277565  0.66509880  1
  H+  H71  1  0.13869682  0.53071728  0.84479689  1
  H+  H72  1  0.07863845  0.66416257  0.06445661  1
  H+  H73  1  0.26695492  0.89024251  0.16297157  1
  H+  H74  1  0.14374834  0.36589265  0.49643344  1
  H+  H75  1  0.47462185  0.35555348  0.15507778  1
  H+  H76  1  0.77442678  0.64454430  0.33069250  1
  H+  H77  1  0.60217681  0.63025221  0.01645858  1
  H+  H78  1  0.37815018  0.40246238  0.32971580  1
  H+  H79  1  0.85383043  0.63717145  0.48614159  1
  H+  H80  1  0.77963175  0.89700584  0.33896964  1
  H+  H81  1  0.64682290  0.62565539  0.31510825  1
  H+  H82  1  0.49025929  0.61107162  0.18001047  1
  H+  H83  1  0.36205723  0.47944075  0.82981843  1
  H+  H84  1  0.20233316  0.27435825  0.88623468  1
  H+  H85  1  0.39937865  0.51262707  0.49564617  1
  H+  H86  1  0.64450753  0.52063955  0.15550313  1
  H+  H87  1  0.63838271  0.86198227  0.32579575  1
  H+  H88  1  0.77341329  0.88983133  0.16155938  1
  H+  H89  1  0.13661240  0.77950958  0.65244819  1
  H+  H90  1  0.14307510  0.35264949  0.64430732  1
  H+  H91  1  0.11938238  0.23107651  0.16353776  1
  H+  H92  1  0.22498711  0.09584163  0.98651283  1
  H+  H93  1  0.87192669  0.76489491  1.00184726  1
  H+  H94  1  0.82145416  0.16662742  0.73579309  1
  H+  H95  1  0.38875633  0.35972264  0.16623944  1
  H+  H96  1  0.89415428  0.61791152  0.84811641  1
  H+  H97  1  0.38500873  0.11162000  0.99642904  1
  H+  H98  1  0.15655402  0.27893779  0.32346938  1
  H+  H99  1  0.10575892  0.96581925  0.00077878  1
  H+  H100  1  0.76968933  0.12959462  0.49590727  1
  H+  H101  1  0.90452165  0.03381389  0.33491609  1
  H+  H102  1  0.13262342  0.54399618  0.66390992  1
  H+  H103  1  0.89034724  0.51139619  0.17596379  1
  H+  H104  1  0.86366896  0.75461811  0.49894496  1
  H+  H105  1  0.30659831  0.70482902  0.17159212  1
  H+  H106  1  0.51920805  0.14750869  1.01062299  1
  H+  H107  1  0.84303537  0.92667807  0.76298096  1
  H+  H108  1  0.15643986  0.53620655  0.31692456  1
  H+  H109  1  0.08446992  0.67602557  0.72893776  1
  H+  H110  1  0.13090106  0.65050914  0.15304462  1
  H+  H111  1  0.87843581  -0.01077405  1.00942847  1
  H+  H112  1  0.87359316  0.24260818  0.16053195  1
  H+  H113  1  0.71530283  0.36125096  0.18030222  1
  H+  H114  1  0.12163243  0.48354320  0.48515113  1
  H+  H115  1  0.12236330  0.98695373  0.48336985  1
  H+  H116  1  0.37973472  0.52717033  1.00329185  1
  H+  H117  1  0.86758865  0.72887993  0.83335649  1
  H+  H118  1  0.79405317  0.39106792  0.34269427  1
  H+  H119  1  0.87457091  0.71935318  0.16409651  1
  H+  H120  1  0.89885625  0.53098543  0.84036035  1
  H+  H121  1  0.10562863  0.21784967  0.82003899  1
  H+  H122  1  0.72448271  0.11218963  0.66149478  1
  H+  H123  1  1.00971298  0.88317605  1.00822824  1
  H+  H124  1  0.86671607  0.89367660  0.34083292  1
  H+  H125  1  0.52458064  0.39990038  0.83454476  1
  H+  H126  1  0.64374374  0.37009662  1.01581865  1
  H+  H127  1  0.63657868  0.01915444  0.66025805  1
  H+  H128  1  -0.05421654  0.35995704  0.13725413  1
  H+  H129  1  0.10803690  0.48233106  1.00835779  1
  H+  H130  1  0.26735477  0.89654879  0.82288078  1
  H+  H131  1  0.51689368  0.63590641  0.01723788  1
  H+  H132  1  0.87715468  0.76862574  0.65719085  1
  H+  H133  1  0.12783646  0.77681427  0.50060519  1
  H+  H134  1  0.60581726  0.88599416  0.68705938  1
  H+  H135  1  0.28088274  0.59236465  0.48066284  1
  H+  H136  1  0.62051096  0.53027899  0.65605887  1
  H+  H137  1  0.64582017  0.77875051  0.32227031  1
  H+  H138  1  0.02861995  0.14104189  0.16519575  1
  H+  H139  1  0.88538973  0.11488081  -0.00688591  1
  H+  H140  1  0.05394041  0.41669501  0.17494525  1
  H+  H141  1  0.27406434  0.39127300  0.01369903  1
  H+  H142  1  0.13536719  0.86555567  0.82277337  1
  H+  H143  1  0.88897357  0.78149048  0.32587811  1
  H+  H144  1  0.76551389  0.11695842  0.19149397  1
  H+  H145  1  0.37997152  0.01964027  0.49580301  1
  H+  H146  1  0.78159940  0.38890639  0.49288191  1
  H+  H147  1  0.35865829  0.48129300  0.66743404  1
  H+  H148  1  0.03412319  0.63414722  0.15796988  1
  H+  H149  1  0.50931056  0.37247285  0.67399485  1
  H+  H150  1  0.02372133  0.88956080  0.34230911  1
  H+  H151  1  0.39531474  0.62485328  0.32366859  1
  H+  H152  1  0.40013472  0.52372151  0.18101770  1
  H+  H153  1  0.14874847  0.37726179  0.74211756  1
  H+  H154  1  -0.01681360  0.60252307  -0.00297141  1
  H+  H155  1  0.36671422  0.21940211  1.01474473  1
  H+  H156  1  0.58537285  0.19020178  0.65965178  1
  H+  H157  1  0.10721216  0.24206900  1.01142962  1
  H+  H158  1  0.64955290  0.05388473  0.34151561  1
  H+  H159  1  0.67860231  0.31713029  0.65388264  1
  H+  H160  1  0.59417051  0.85013981  0.15563460  1
  H+  H161  1  0.66053798  0.57515925  0.59314824  1
  H+  H162  1  0.87801897  0.63131024  0.16145117  1
  H+  H163  1  0.11756968  0.65154463  0.66856168  1
  H+  H164  1  0.61525229  0.32526181  0.25740468  1
  H+  H165  1  0.34125053  0.72209946  0.02075062  1
  H+  H166  1  0.90361897  0.53211247  0.33118179  1
  H+  H167  1  0.07597935  0.16236583  0.72156393  1
  H+  H168  1  0.38082863  0.02290455  0.17889679  1
  H+  H169  1  0.77412731  0.38758441  0.01155580  1
  H+  H170  1  0.36076700  0.23023220  0.83265679  1
  H+  H171  1  0.88540862  0.50456229  -0.00456248  1
  H+  H172  1  0.26877111  0.12031300  0.67263366  1
  H+  H173  1  0.40474449  0.99878962  0.01963277  1
  H+  H174  1  0.10720100  0.63220206  0.00414611  1
  H+  H175  1  0.69794819  -0.03711679  0.96064837  1
  H+  H176  1  0.45585506  0.86229158  0.32633517  1
  H+  H177  1  0.88201116  0.37188763  0.66064767  1
  H+  H178  1  0.35902572  0.72051044  0.82407756  1
  H+  H179  1  0.53300941  0.64014791  0.86567673  1
  H+  H180  1  0.47673078  0.11598889  0.83982957  1
  H+  H181  1  0.13315239  0.77923745  0.16931116  1
  H+  H182  1  0.31961094  0.14877137  0.73378353  1
  H+  H183  1  0.76833905  0.63786166  0.01574471  1
  H+  H184  1  0.34961666  0.85477075  0.84609853  1
  H+  H185  1  0.27897371  0.38477257  0.67123152  1
  H+  H186  1  0.33357053  0.17920267  0.43704160  1
  H+  H187  1  0.36162213  0.62816181  0.66335992  1
  H+  H188  1  0.27400887  0.13379597  0.49417183  1
  H+  H189  1  0.02798274  0.89100645  0.80518710  1
  H+  H190  1  0.88855992  0.62983715  0.66152476  1
  H+  H191  1  -0.03491288  0.11052021  0.65862499  1
  H+  H192  1  0.60609555  0.11418841  0.66628171  1
  H+  H193  1  0.27591828  0.63171533  0.82141441  1
  H+  H194  1  0.12957640  0.11833815  0.16048562  1
  H+  H195  1  0.49811101  0.35837061  1.01407911  1
  H+  H196  1  0.63852616  0.76504820  0.17226976  1
  H+  H197  1  0.00959675  0.64703149  0.49310061  1
  H+  H198  1  0.35621406  0.22199340  0.16192721  1
  H+  H199  1  0.41948824  0.08806352  0.93522612  1
  H+  H200  1  0.21832385  0.61396754  0.99595656  1
  H+  H201  1  0.61697910  0.72843418  0.85101141  1
  H+  H202  1  0.41038367  0.08187733  0.24011981  1
  H+  H203  1  0.62560792  0.16432134  0.33793517  1
  H+  H204  1  0.38581933  0.76792193  0.65948111  1
  H+  H205  1  0.97421153  0.90915170  0.88034666  1
  H+  H206  1  0.14169847  0.38208589  1.00165759  1
  H+  H207  1  0.56557210  0.89254840  0.40826072  1
  H+  H208  1  0.40012187  0.38803020  0.65669328  1
  H+  H209  1  0.61040665  0.22553872  0.49213746  1
  H+  H210  1  0.11670020  0.97886902  0.80644665  1
  H+  H211  1  0.98139134  0.63606252  0.65592216  1
  H+  H212  1  0.63467265  0.37362926  0.65885940  1
  H+  H213  1  0.10321419  0.35149832  0.73045196  1
  H+  H214  1  0.59396630  0.92521166  -0.00037317  1
  H+  H215  1  0.64908723  0.62158554  0.86870916  1
  H+  H216  1  0.37759502  0.62101778  0.48386946  1
  H+  H217  1  0.09426976  0.42520752  0.42554961  1
  H+  H218  1  0.37628421  0.49093714  0.33522926  1
  H+  H219  1  0.02893036  0.64307501  0.82663078  1
  H+  H220  1  0.01289869  0.13420933  0.82044303  1
  H+  H221  1  0.76499961  0.63787517  0.67722859  1
  H+  H222  1  0.97643470  0.86679674  0.17179313  1
  H+  H223  1  0.51585432  0.80467409  0.37478081  1
  H+  H224  1  0.22159030  0.86473445  0.49925074  1
  H+  H225  1  0.38087879  0.26213354  0.50647697  1
  H+  H226  1  0.09091484  0.75068451  0.97406819  1
  H+  H227  1  0.89751550  0.07189470  0.57148490  1
  H+  H228  1  0.12787038  0.01824699  0.15725127  1
  H+  H229  1  0.89338735  0.02861163  0.17827164  1
  H+  H230  1  0.18866309  0.59828274  0.25825499  1
  H+  H231  1  0.88586709  0.86224419  0.17375552  1
  H+  H232  1  0.63797973  0.11622745  0.50405688  1
  H+  H233  1  0.91505859  0.37864062  0.31240269  1
  H+  H234  1  0.98669827  0.38074763  0.50557149  1
  H+  H235  1  0.10752498  0.21817541  0.66014093  1
  H+  H236  1  0.87119326  1.01095042  0.51167047  1
  H+  H237  1  0.75756150  0.13190878  0.83220289  1
  H+  H238  1  0.12806030  0.10701194  0.64714050  1
  H+  H239  1  0.72175650  0.60760476  0.49748599  1
  H+  H240  1  0.88386407  0.15479112  0.16224276  1
  H+  H241  1  0.59366682  0.10376252  0.15587472  1
  H+  H242  1  0.33992642  0.88053246  0.33609829  1
  H+  H243  1  0.89591039  0.88587752  0.83665527  1
  H+  H244  1  0.73713981  0.60419806  0.16448003  1
  H+  H245  1  0.11941457  0.89186072  0.48627264  1
  H+  H246  1  0.62052364  0.35692392  0.85434301  1
  H+  H247  1  0.38567527  1.02985582  0.83988632  1
  H+  H248  1  0.13917450  0.11185209  0.48930461  1
  H+  H249  1  0.15178856  0.37134952  0.17410692  1
  H+  H250  1  0.23890491  0.37544644  0.31808662  1
  H+  H251  1  0.72834142  0.87219718  0.81634754  1
  H+  H252  1  0.87683578  0.11521862  0.83877050  1
  H+  H253  1  0.50533473  0.64383226  0.63010052  1
  H+  H254  1  0.36283811  0.37803075  0.48281664  1
  H+  H255  1  0.57757294  0.92860015  0.73802867  1
  H+  H256  1  0.15468279  0.83612082  0.23041778  1
  H+  H257  1  0.86389712  0.85117450  0.50215538  1
  H+  H258  1  0.39349798  0.87589556  1.00988494  1
  H+  H259  1  0.34881418  0.12909433  0.16905035  1
  H+  H260  1  0.62980191  0.76405729  0.50017131  1
  H+  H261  1  0.76312510  0.87442521  0.49253042  1
  H+  H262  1  0.55150789  0.86759666  0.06420078  1
  H+  H263  1  0.62601489  0.63678997  0.16035567  1
  H+  H264  1  0.52870206  0.31212391  0.71664174  1
  H+  H265  1  0.38904580  0.61133385  0.84444960  1
  H+  H266  1  0.41396079  0.84596423  0.56657191  1
  H+  H267  1  0.20006383  0.21979260  0.36392773  1
  H+  H268  1  0.36253624  0.14208599  0.83376758  1
  H+  H269  1  0.52820881  0.90145101  0.83528101  1
  H+  H270  1  0.86086185  0.38158967  1.01259684  1
  H+  H271  1  0.61315312  0.40339969  0.39603430  1
  H+  H272  1  0.76916219  0.11402116  0.01401299  1
  H+  H273  1  0.09452924  0.64136341  0.49375541  1
  H+  H274  1  0.93017151  0.35417642  0.56656784  1
  H+  H275  1  0.78812661  0.42289217  0.66875755  1
  H+  H276  1  0.61742345  0.14403368  0.17480305  1
  H+  H277  1  0.57522676  0.25011477  0.15846159  1
  H+  H278  1  0.48495096  0.36036087  0.31394882  1
  H+  H279  1  0.87722419  0.40180351  0.49758593  1
  H+  H280  1  0.14028041  0.62038665  0.83479536  1
  H+  H281  1  0.92093427  0.84242652  0.26779194  1
  H+  H282  1  0.88097276  0.26734696  0.00189176  1
  H+  H283  1  0.88042717  0.50374153  0.66820413  1
  H+  H284  1  1.00706331  0.41461793  0.68745292  1
  H+  H285  1  0.61059136  0.13155220  0.82392657  1
  H+  H286  1  0.47130265  0.08123998  0.64701172  1
  H+  H287  1  0.24486732  0.86458603  -0.00203295  1
  H+  H288  1  0.86355332  0.64290498  0.33494647  1
  H+  H289  1  0.66511097  0.07082651  0.18964184  1
  H+  H290  1  0.17527922  0.33637017  0.23430555  1
  H+  H291  1  0.14109930  0.50484593  0.16154529  1
  H+  H292  1  0.16674579  0.59563321  0.56462521  1
  H+  H293  1  0.76544409  0.87887065  0.68117465  1
  H+  H294  1  0.82722209  0.66908221  0.42393696  1
  H+  H295  1  0.66725374  0.34622860  0.55602406  1
  H+  H296  1  0.82749612  0.90959228  0.43401521  1
  H+  H297  1  0.16764364  0.83707920  0.59100896  1
  H+  H298  1  0.57928318  0.65410858  0.74902469  1
  H+  H299  1  0.08888566  0.91862379  0.41642450  1
  H+  H300  1  0.38655097  0.82495323  0.94488359  1
  H+  H301  1  0.65572344  0.11096509  0.89530948  1
  H+  H302  1  0.58602040  0.18142103  0.39862810  1
  H+  H303  1  0.48035868  0.29410062  0.96108078  1
  H+  H304  1  0.16155308  0.07891663  0.55285001  1
  H+  H305  1  0.23127194  0.36291085  0.49421577  1
  H+  H306  1  0.33864409  0.66110130  0.72590522  1
  H+  H307  1  0.58776136  0.26047597  0.32330258  1
  H+  H308  1  0.65082231  0.81148832  0.56300436  1
  H+  H309  1  0.90153562  0.32696050  0.90619087  1
  H+  H310  1  0.89687186  0.82254997  0.94102849  1
  H+  H311  1  0.09108775  0.40495850  0.79849269  1
  H+  H312  1  0.61802512  -0.02010920  0.49357317  1
  H+  H313  1  0.37021258  0.94091630  0.08096092  1
  H+  H314  1  0.61866491  0.63718683  0.48464723  1
  H+  H315  1  0.92812913  0.57674048  0.23149983  1
  H+  H316  1  0.58414201  0.42177918  0.77684587  1
  H+  H317  1  0.67577086  0.58814502  0.25987464  1
  H+  H318  1  0.97045073  0.35732863  1.00207326  1
  H+  H319  1  0.39438193  0.82009721  0.23500633  1
  H+  H320  1  0.42152367  0.33838804  0.25775573  1
  H+  H321  1  0.61069802  0.23765437  0.01833771  1
  H+  H322  1  0.66847886  0.02415350  0.92977942  1
  H+  H323  1  0.35125907  0.88215173  0.16850338  1
  H+  H324  1  0.59095183  0.67280157  0.39027617  1
  H+  H325  1  0.07615509  0.17555574  0.06562196  1
  H+  H326  1  0.23046728  0.62152310  0.65761051  1
  H+  H327  1  0.28019470  0.64304228  0.33245845  1
  H+  H328  1  0.33275129  0.54335383  0.60539464  1
  H+  H329  1  0.17304989  0.32685760  0.58406371  1
  H+  H330  1  0.16605349  0.58929044  0.93231036  1
  H+  H331  1  0.16800172  0.06675649  0.92593741  1
  H+  H332  1  0.08922830  0.83822218  0.97644918  1
  H+  H333  1  0.32991532  0.92100459  0.76549342  1
  H+  H334  1  0.63617055  0.37622766  0.16375746  1
  H+  H335  1  0.33452990  0.42270450  0.76724713  1
  H+  H336  1  0.29610132  0.65482486  0.07608995  1
  H+  H337  1  0.02899184  0.48821711  0.73404966  1
  H+  H338  1  0.66341421  0.83179304  0.22845894  1
  H+  H339  1  0.82887641  0.16114267  0.07265071  1
  H+  H340  1  0.65226210  0.36674316  0.48686740  1
  H+  H341  1  0.54751173  0.19138340  0.08859015  1
  H+  H342  1  0.83857577  0.15873342  0.43519186  1
  H+  H343  1  0.13083599  0.39734228  0.33382802  1
  H+  H344  1  0.57187306  0.61039655  0.75736157  1
  H+  H345  1  0.83743279  0.92533784  0.10499869  1
  H+  H346  1  0.82498911  0.66858146  0.73744397  1
  H+  H347  1  0.81794190  0.40731126  0.11243024  1
  H+  H348  1  0.90538789  0.59337023  0.56317658  1
  H+  H349  1  0.42377453  0.57059727  0.55666583  1
  H+  H350  1  0.26704409  0.87980767  0.66638474  1
  H+  H351  1  0.70672296  0.85265383  0.91886916  1
  H+  H352  1  0.47488265  0.87745309  0.50880499  1
  H+  H353  1  0.10939669  0.17321556  0.41644210  1
  H+  H354  1  0.65702083  0.33534425  0.95009322  1
  H+  H355  1  0.40457084  0.57851022  0.90850161  1
  H+  H356  1  0.66659251  0.08515312  0.56423859  1
  H+  H357  1  0.27363402  0.15746762  0.34599565  1
  H+  H358  1  0.11779687  0.21622442  0.48178209  1
  H+  H359  1  0.27936876  0.38583183  0.16753012  1
  H+  H360  1  0.11078458  0.87920692  0.33691284  1
  H+  H361  1  0.37262158  0.61203666  1.00438477  1
  H+  H362  1  0.93934253  0.35470709  0.24861480  1
  H+  H363  1  0.89534791  0.81659219  0.56519295  1
  H+  H364  1  0.61831106  0.26688081  0.85275196  1
  H+  H365  1  0.92133855  0.57324630  0.93188111  1
  H+  H366  1  0.85350788  0.43781847  0.76484291  1
  H+  H367  1  0.32157281  0.91461661  0.42931342  1
  H+  H368  1  0.84834527  0.22045761  0.83041918  1
  H+  H369  1  0.07908829  0.91713013  0.09491965  1
  H+  H370  1  0.08984492  0.43084898  0.07126507  1
  H+  H371  1  0.07735044  0.91445546  0.71176237  1
  H+  H372  1  0.33816677  0.41888090  0.10826756  1
  H+  H373  1  0.14211653  0.82596153  0.88639883  1
  H+  H374  1  0.69494974  0.09983257  0.28014347  1
  H+  H375  1  0.41004969  0.05946230  0.58158132  1
  H+  H376  1  0.12636963  0.01794363  0.64306333  1
  H+  H377  1  0.91353233  0.08883838  0.89703296  1
  H+  H378  1  0.33810875  0.66586754  0.39404919  1
  H+  H379  1  0.37363991  -0.01067298  0.64846131  1
  H+  H380  1  0.85517019  0.88197013  0.66673803  1
  H+  H381  1  0.57572179  0.15739834  0.76555470  1
  H+  H382  1  0.42101394  0.34502132  0.90297071  1
  H+  H383  1  0.96819396  0.85595645  0.64710881  1
  O2-  O384  1  0.08823054  0.17052415  0.14733716  1
  O2-  O385  1  0.09710787  0.15988287  0.46257374  1
  O2-  O386  1  0.07237531  0.15941823  0.80307210  1
  O2-  O387  1  0.10692337  0.44052076  0.15089940  1
  O2-  O388  1  0.09325074  0.42331261  0.47148483  1
  O2-  O389  1  0.08397714  0.41598619  0.84132518  1
  O2-  O390  1  0.09149681  0.67297633  0.13949893  1
  O2-  O391  1  0.07068056  0.67736845  0.48027392  1
  O2-  O392  1  0.08718262  0.67042555  0.80740093  1
  O2-  O393  1  0.08290128  0.92453013  0.14078704  1
  O2-  O394  1  0.09116661  0.92360145  0.46794480  1
  O2-  O395  1  0.08715017  0.91884354  0.78900268  1
  O2-  O396  1  0.32059571  0.15947724  0.15002203  1
  O2-  O397  1  0.33643752  0.16620340  0.48202379  1
  O2-  O398  1  0.32877721  0.16927607  0.81999882  1
  O2-  O399  1  0.34070368  0.41508721  0.15315703  1
  O2-  O400  1  0.33735671  0.41300235  0.46875858  1
  O2-  O401  1  0.33292930  0.41914024  0.81304329  1
  O2-  O402  1  0.27530283  0.64766060  0.15134909  1
  O2-  O403  1  0.33693777  0.64069122  0.47026222  1
  O2-  O404  1  0.33713489  0.66202519  0.80789951  1
  O2-  O405  1  0.32989635  0.92053440  0.15352454  1
  O2-  O406  1  0.32475844  0.91972539  0.47487064  1
  O2-  O407  1  0.32960529  0.92426818  0.81064555  1
  O2-  O408  1  0.52568202  0.20579522  0.13394604  1
  O2-  O409  1  0.58199285  0.16584599  0.47512360  1
  O2-  O410  1  0.57854255  0.16167629  0.81023393  1
  O2-  O411  1  0.58182463  0.41415227  0.11732544  1
  O2-  O412  1  0.64157955  0.43302393  0.43633440  1
  O2-  O413  1  0.58599692  0.42837911  0.82151196  1
  O2-  O414  1  0.59407320  0.66749616  0.15126076  1
  O2-  O415  1  0.59011990  0.66912893  0.47026024  1
  O2-  O416  1  0.59561029  0.67342937  0.87254925  1
  O2-  O417  1  0.55390760  0.86958810  0.13684748  1
  O2-  O418  1  0.58419284  0.91846250  0.48093117  1
  O2-  O419  1  0.58543487  0.93408138  0.81774928  1
  O2-  O420  1  0.84517438  0.17602242  0.14884593  1
  O2-  O421  1  0.83150510  0.15341143  0.48371184  1
  O2-  O422  1  0.81881739  0.16083757  0.81426774  1
  O2-  O423  1  0.81664492  0.40248702  0.15718718  1
  O2-  O424  1  0.84181989  0.42706098  0.47951619  1
  O2-  O425  1  0.85660297  0.44079725  0.80977921  1
  O2-  O426  1  0.84632881  0.66044179  0.14707011  1
  O2-  O427  1  0.82314617  0.66765216  0.47035317  1
  O2-  O428  1  0.83672108  0.66946413  0.81875108  1
  O2-  O429  1  0.83544588  0.92187826  0.15051943  1
  O2-  O430  1  0.82476998  0.90280945  0.47981507  1
  O2-  O431  1  0.83942403  0.92615184  0.80848516  1
  O2-  O432  1  0.15866204  0.08217656  0.17116258  1
  O2-  O433  1  0.16697903  0.07788182  0.50743886  1
  O2-  O434  1  0.15954402  0.07379519  0.84217170  1
  O2-  O435  1  0.17519095  0.33448057  0.18746567  1
  O2-  O436  1  0.17211592  0.33393251  0.51174189  1
  O2-  O437  1  0.18643657  0.31376746  0.86761163  1
  O2-  O438  1  0.18718110  0.60642316  0.17702237  1
  O2-  O439  1  0.16427436  0.59586953  0.51892444  1
  O2-  O440  1  0.17290614  0.59346561  0.85236473  1
  O2-  O441  1  0.16002294  0.83959839  0.18438842  1
  O2-  O442  1  0.16134549  0.83879665  0.51523064  1
  O2-  O443  1  0.16396479  0.83647977  0.84257734  1
  O2-  O444  1  0.40629718  0.08367077  0.19361159  1
  O2-  O445  1  0.41365629  0.07862518  0.51533459  1
  O2-  O446  1  0.41709624  0.08910058  0.85694753  1
  O2-  O447  1  0.41838392  0.32613957  0.17646838  1
  O2-  O448  1  0.41221427  0.32579004  0.51819110  1
  O2-  O449  1  0.41839315  0.34253521  0.85824298  1
  O2-  O450  1  0.43035447  0.58385618  0.19564151  1
  O2-  O451  1  0.43217032  0.57356200  0.51102991  1
  O2-  O452  1  0.41189065  0.57662855  0.86336879  1
  O2-  O453  1  0.38658794  0.81191898  0.18968462  1
  O2-  O454  1  0.41493992  0.85480998  0.52211250  1
  O2-  O455  1  0.34948184  0.80632289  0.86983062  1
  O2-  O456  1  0.71137374  0.07408714  0.21457950  1
  O2-  O457  1  0.66876046  0.08625811  0.51876043  1
  O2-  O458  1  0.66295745  0.08592487  0.85809425  1
  O2-  O459  1  0.65263913  0.34085089  0.18980737  1
  O2-  O460  1  0.66881481  0.33142992  0.51275131  1
  O2-  O461  1  0.63575134  0.31905881  0.87718624  1
  O2-  O462  1  0.67570194  0.57647499  0.17712728  1
  O2-  O463  1  0.66145212  0.57361401  0.51333317  1
  O2-  O464  1  0.68158517  0.58930392  0.87240106  1
  O2-  O465  1  0.66107114  0.82805682  0.18311955  1
  O2-  O466  1  0.65825626  0.82349874  0.51940864  1
  O2-  O467  1  0.66439540  0.83595856  0.81634114  1
  O2-  O468  1  0.92847481  0.08965371  0.19185137  1
  O2-  O469  1  0.89475677  0.07066480  0.52596201  1
  O2-  O470  1  0.91141206  0.08770152  0.85129020  1
  O2-  O471  1  0.90973516  0.33404551  0.17282653  1
  O2-  O472  1  0.92806632  0.35909780  0.52194475  1
  O2-  O473  1  0.90468290  0.32828404  0.86089006  1
  O2-  O474  1  0.92790367  0.57358276  0.18627255  1
  O2-  O475  1  0.90098132  0.58991534  0.51790210  1
  O2-  O476  1  0.92723963  0.58987756  0.86134405  1
  O2-  O477  1  0.91750936  0.83353760  0.18911059  1
  O2-  O478  1  0.89160044  0.81595107  0.51825346  1
  O2-  O479  1  0.93248725  0.86279897  0.85460106  1
  O2-  O480  1  0.18412347  0.08511040  0.30764432  1
  O2-  O481  1  0.15909308  0.07905260  0.62995148  1
  O2-  O482  1  0.16623800  0.06026041  0.97055572  1
  O2-  O483  1  0.17787893  0.34137251  0.30503486  1
  O2-  O484  1  0.17172882  0.32196454  0.63043822  1
  O2-  O485  1  0.17447675  0.35258585  0.98907197  1
  O2-  O486  1  0.18747944  0.59748067  0.30363411  1
  O2-  O487  1  0.17028512  0.59903017  0.64220499  1
  O2-  O488  1  0.15894865  0.58396448  0.97732813  1
  O2-  O489  1  0.15112123  0.83560556  0.30655779  1
  O2-  O490  1  0.16938389  0.83981397  0.63686641  1
  O2-  O491  1  0.09059922  0.79545841  0.94833886  1
  O2-  O492  1  0.41253148  0.07717703  0.31072564  1
  O2-  O493  1  0.41212073  0.05004090  0.62838922  1
  O2-  O494  1  0.42299920  0.08995643  0.98071988  1
  O2-  O495  1  0.42444258  0.34533991  0.30262384  1
  O2-  O496  1  0.44428246  0.37663188  0.63818791  1
  O2-  O497  1  0.45233790  0.32060812  0.98305051  1
  O2-  O498  1  0.42735285  0.59486981  0.31233368  1
  O2-  O499  1  0.38554875  0.56400438  0.62882372  1
  O2-  O500  1  0.40492909  0.58605675  0.98623038  1
  O2-  O501  1  0.39672484  0.83293666  0.31013504  1
  O2-  O502  1  0.41135328  0.83025577  0.64845821  1
  O2-  O503  1  0.39816832  0.82557878  0.98926589  1
  O2-  O504  1  0.68359867  0.11099710  0.32393276  1
  O2-  O505  1  0.66477916  0.07925825  0.64344546  1
  O2-  O506  1  0.67634894  0.00441968  0.97008088  1
  O2-  O507  1  0.57637596  0.30141610  0.29528761  1
  O2-  O508  1  0.68070362  0.36769872  0.63607224  1
  O2-  O509  1  0.66909203  0.33832324  0.99519924  1
  O2-  O510  1  0.68127595  0.59839776  0.30431188  1
  O2-  O511  1  0.65966377  0.58574199  0.63771575  1
  O2-  O512  1  0.66047058  0.57627331  0.99698875  1
  O2-  O513  1  0.67508555  0.84075161  0.30841306  1
  O2-  O514  1  0.65520686  0.82493333  0.69115843  1
  O2-  O515  1  0.70747265  0.88039880  0.95699111  1
  O2-  O516  1  0.93448849  0.09386155  0.31898698  1
  O2-  O517  1  0.90251481  0.08195446  0.64795295  1
  O2-  O518  1  0.91785752  0.08881863  0.97505833  1
  O2-  O519  1  0.95234922  0.36037136  0.29304795  1
  O2-  O520  1  0.91554659  0.34312059  0.65027643  1
  O2-  O521  1  0.91024936  0.32784645  0.98683733  1
  O2-  O522  1  0.92322414  0.58895044  0.31129160  1
  O2-  O523  1  0.92033973  0.60411126  0.64166115  1
  O2-  O524  1  0.92114735  0.56688170  0.97837633  1
  O2-  O525  1  0.92002742  0.84324809  0.31343476  1
  O2-  O526  1  0.90514294  0.82530617  0.63550667  1
  O2-  O527  1  0.90276101  0.82753515  0.98537574  1
  O2-  O528  1  0.07258460  0.18030654  0.02102616  1
  O2-  O529  1  0.14036371  0.19728751  0.35065225  1
  O2-  O530  1  0.07227587  0.15865651  0.67642047  1
  O2-  O531  1  0.08196651  0.42326770  0.02616489  1
  O2-  O532  1  0.10377233  0.43110360  0.34855690  1
  O2-  O533  1  0.05590175  0.46163418  0.71107434  1
  O2-  O534  1  0.07098372  0.65678976  0.01879526  1
  O2-  O535  1  0.10235703  0.74492382  0.32801537  1
  O2-  O536  1  0.08423559  0.67882774  0.68342995  1
  O2-  O537  1  0.07088125  0.90769871  0.02084032  1
  O2-  O538  1  0.08401039  0.91407536  0.35750523  1
  O2-  O539  1  0.07093188  0.90949660  0.66647567  1
  O2-  O540  1  0.33055973  0.15825114  0.02612562  1
  O2-  O541  1  0.31497760  0.20603044  0.37267340  1
  O2-  O542  1  0.32399118  0.13441767  0.69133503  1
  O2-  O543  1  0.33536511  0.42075891  0.02838888  1
  O2-  O544  1  0.34605510  0.42904354  0.34806420  1
  O2-  O545  1  0.33610571  0.42244019  0.68938552  1
  O2-  O546  1  0.31071385  0.66004207  0.03150381  1
  O2-  O547  1  0.34148702  0.67651237  0.34926760  1
  O2-  O548  1  0.33557184  0.66333090  0.68088374  1
  O2-  O549  1  0.40411734  0.95104375  0.04290128  1
  O2-  O550  1  0.31273929  0.91286045  0.35277889  1
  O2-  O551  1  0.32760111  0.90945448  0.68290720  1
  O2-  O552  1  0.57185395  0.17950418  0.03701300  1
  O2-  O553  1  0.58743183  0.18596679  0.35294730  1
  O2-  O554  1  0.56464123  0.13508028  0.67960565  1
  O2-  O555  1  0.58695615  0.41397908  0.05495686  1
  O2-  O556  1  0.58067528  0.37464047  0.32903372  1
  O2-  O557  1  0.55792337  0.37007794  0.69975544  1
  O2-  O558  1  0.57561809  0.66234819  0.03383567  1
  O2-  O559  1  0.59145867  0.67749407  0.34514258  1
  O2-  O560  1  0.56825399  0.68136292  0.62630459  1
  O2-  O561  1  0.54734968  0.86803023  0.01785993  1
  O2-  O562  1  0.55001405  0.86610870  0.36631971  1
  O2-  O563  1  0.57749598  0.92140547  0.69287292  1
  O2-  O564  1  0.82667970  0.15946027  0.02671769  1
  O2-  O565  1  0.84760331  0.16861131  0.37189618  1
  O2-  O566  1  0.82371840  0.17005809  0.69008763  1
  O2-  O567  1  0.83574360  0.41803219  0.02519131  1
  O2-  O568  1  0.85246951  0.42538644  0.35793089  1
  O2-  O569  1  0.84714653  0.44271149  0.68310475  1
  O2-  O570  1  0.83120061  0.67284990  0.02351788  1
  O2-  O571  1  0.83440930  0.67369343  0.35039126  1
  O2-  O572  1  0.82527069  0.66967391  0.69195884  1
  O2-  O573  1  0.84515230  0.92999649  0.02699797  1
  O2-  O574  1  0.83781779  0.92436188  0.35828095  1
  O2-  O575  1  0.82936307  0.91416309  0.68556911  1
