# generated using pymatgen
data_H2O
_symmetry_space_group_name_H-M   'P 1'
_cell_length_a   17.98604300
_cell_length_b   17.98858479
_cell_length_c   21.99418748
_cell_angle_alpha   90.02609974
_cell_angle_beta   89.99397437
_cell_angle_gamma   119.99014089
_symmetry_Int_Tables_number   1
_chemical_formula_structural   H2O
_chemical_formula_sum   'H384 O192'
_cell_volume   6163.31361497
_cell_formula_units_Z   192
loop_
 _symmetry_equiv_pos_site_id
 _symmetry_equiv_pos_as_xyz
  1  'x, y, z'
loop_
 _atom_type_symbol
 _atom_type_oxidation_number
  H+  1.0
  O2-  -2.0
loop_
 _atom_site_type_symbol
 _atom_site_label
 _atom_site_symmetry_multiplicity
 _atom_site_fract_x
 _atom_site_fract_y
 _atom_site_fract_z
 _atom_site_occupancy
  H+  H0  1  0.13150877  0.11456161  0.51503199  1
  H+  H1  1  0.91374320  0.49765169  0.34702460  1
  H+  H2  1  0.80416995  0.30609178  0.86424986  1
  H+  H3  1  0.62539670  0.23062964  0.49435713  1
  H+  H4  1  0.40088867  0.82308457  0.22602656  1
  H+  H5  1  0.64766197  0.87549077  0.99058356  1
  H+  H6  1  0.34119607  0.37902786  0.82923943  1
  H+  H7  1  0.26496633  0.63005399  0.82581250  1
  H+  H8  1  0.65161972  0.42043166  0.18291303  1
  H+  H9  1  0.86078768  0.22247870  0.32920976  1
  H+  H10  1  0.98356087  0.61225359  0.66586359  1
  H+  H11  1  0.37680165  0.27010164  0.66264326  1
  H+  H12  1  0.13126354  0.61246736  0.51099226  1
  H+  H13  1  0.51774989  0.87567906  0.49491936  1
  H+  H14  1  0.87847941  0.61184271  0.84579705  1
  H+  H15  1  0.47948882  0.12572298  0.99392098  1
  H+  H16  1  0.63858976  0.53636991  0.98103904  1
  H+  H17  1  0.28041589  0.38597812  0.16836559  1
  H+  H18  1  0.72942217  0.38611495  0.18026758  1
  H+  H19  1  0.02302399  0.13727292  0.48669012  1
  H+  H20  1  0.46654701  0.61047469  0.17979652  1
  H+  H21  1  0.70432854  0.31236855  0.92527189  1
  H+  H22  1  0.02235179  0.89222770  0.00853001  1
  H+  H23  1  0.64120949  0.76929589  0.51563291  1
  H+  H24  1  0.26692186  0.63976023  0.34970844  1
  H+  H25  1  0.53476695  0.39490341  0.66576564  1
  H+  H26  1  0.18114955  0.34500653  0.24177416  1
  H+  H27  1  0.40631920  0.38113083  0.17468200  1
  H+  H28  1  0.14335487  0.86914348  0.49032572  1
  H+  H29  1  0.11343654  0.89385293  0.00461288  1
  H+  H30  1  0.36455872  0.26326433  0.33249796  1
  H+  H31  1  0.52159387  0.88087730  0.67663351  1
  H+  H32  1  0.76928061  0.88781525  0.53519102  1
  H+  H33  1  0.40273140  0.10995455  0.17704799  1
  H+  H34  1  0.76225265  0.29673109  0.31406717  1
  H+  H35  1  0.09466759  0.37757421  0.67606541  1
  H+  H36  1  0.72513376  0.61828345  1.00563344  1
  H+  H37  1  0.62579755  0.77378678  0.31860122  1
  H+  H38  1  0.36582397  0.88546376  0.47406116  1
  H+  H39  1  0.51617070  0.61414017  0.49389971  1
  H+  H40  1  0.34605071  0.13184112  0.67500397  1
  H+  H41  1  0.76015732  0.29344964  0.27998066  1
  H+  H42  1  0.26368748  0.13061743  0.34593858  1
  H+  H43  1  0.85603461  0.72263576  0.33057671  1
  H+  H44  1  0.96350485  0.58861412  0.17365349  1
  H+  H45  1  0.37984870  0.02193680  0.32745000  1
  H+  H46  1  0.72150245  0.85798026  0.83549806  1
  H+  H47  1  0.87613142  0.24657866  0.01314655  1
  H+  H48  1  0.76894989  0.12464171  0.48618922  1
  H+  H49  1  0.86130825  0.14565735  1.01469623  1
  H+  H50  1  0.09539487  0.97070682  0.68108031  1
  H+  H51  1  0.11039855  0.88268094  0.83107376  1
  H+  H52  1  0.10086217  0.84562545  0.66242355  1
  H+  H53  1  0.11706880  0.60791300  0.66752511  1
  H+  H54  1  0.10989020  0.38589323  0.49976995  1
  H+  H55  1  0.62036397  0.85837842  0.66298799  1
  H+  H56  1  0.86843285  0.03049301  0.99857316  1
  H+  H57  1  0.45794519  0.59862158  0.99580670  1
  H+  H58  1  0.58385630  0.40967195  -0.10625311  1
  H+  H59  1  0.34689843  0.61303845  0.00528826  1
  H+  H60  1  0.37923046  0.52513321  0.34015320  1
  H+  H61  1  0.10541013  0.25811701  0.66697924  1
  H+  H62  1  0.58631247  0.08423077  -0.02618920  1
  H+  H63  1  0.88235759  0.77965606  1.00405171  1
  H+  H64  1  0.11659679  0.46748104  0.16020051  1
  H+  H65  1  0.31356026  0.12140316  0.09685864  1
  H+  H66  1  0.59219770  0.63000578  0.01468102  1
  H+  H67  1  0.14576484  0.58849295  0.40072212  1
  H+  H68  1  0.88160145  1.01612806  0.84119291  1
  H+  H69  1  0.82556303  0.92175581  0.20974433  1
  H+  H70  1  0.37936651  0.76259988  0.49882245  1
  H+  H71  1  0.13457970  0.23426333  0.17026065  1
  H+  H72  1  0.09707990  0.84187893  0.17779345  1
  H+  H73  1  0.37202699  0.47746808  0.67766740  1
  H+  H74  1  0.57222039  0.16784189  0.80663526  1
  H+  H75  1  0.76190779  0.88526567  0.29648749  1
  H+  H76  1  0.22041701  0.60930479  0.17437237  1
  H+  H77  1  0.37815627  0.12115484  0.83829823  1
  H+  H78  1  0.10885592  0.98039001  0.49412520  1
  H+  H79  1  0.38260966  0.77618842  0.32718634  1
  H+  H80  1  0.34832909  -0.02422797  0.83103987  1
  H+  H81  1  0.61993734  0.21297168  0.00573586  1
  H+  H82  1  0.12363497  0.60769529  0.83786938  1
  H+  H83  1  0.11431773  0.47636486  0.82560110  1
  H+  H84  1  0.52313682  0.63336486  0.67765486  1
  H+  H85  1  0.83048666  0.16779485  0.39141374  1
  H+  H86  1  0.22168471  0.86677260  0.32375326  1
  H+  H87  1  0.84619356  0.49419714  0.81708008  1
  H+  H88  1  0.57243477  0.16113455  0.59315113  1
  H+  H89  1  0.20974875  0.10736353  0.66722257  1
  H+  H90  1  0.40543303  0.08711003  0.60603848  1
  H+  H91  1  0.57156083  0.41520331  0.55872209  1
  H+  H92  1  0.91988530  0.41485617  0.33428658  1
  H+  H93  1  0.87518162  0.74037931  0.49053896  1
  H+  H94  1  0.86561377  0.47547204  1.00839956  1
  H+  H95  1  0.34561856  0.71719365  0.16042429  1
  H+  H96  1  0.51548850  0.13131375  0.34602077  1
  H+  H97  1  0.12168420  0.51786126  0.66129088  1
  H+  H98  1  -0.03733360  0.10667578  0.32178796  1
  H+  H99  1  0.22289027  0.08938216  0.17610535  1
  H+  H100  1  0.13006885  0.39356416  0.34743359  1
  H+  H101  1  0.33200069  0.70993689  0.66587986  1
  H+  H102  1  0.22143802  0.85456770  0.84062136  1
  H+  H103  1  0.85737686  0.10261845  0.67489199  1
  H+  H104  1  0.86317907  0.89331604  0.15748651  1
  H+  H105  1  0.75519418  0.87556119  0.67459818  1
  H+  H106  1  0.00224500  0.11845583  0.68953496  1
  H+  H107  1  0.60742717  0.63608783  0.16689892  1
  H+  H108  1  0.29182205  0.77991305  -0.02626056  1
  H+  H109  1  0.10044875  0.62744707  0.16710037  1
  H+  H110  1  0.90839428  0.57449348  0.26707235  1
  H+  H111  1  0.77546990  0.38420424  0.81814026  1
  H+  H112  1  0.34534559  0.22391916  0.50065655  1
  H+  H113  1  0.09909867  0.63937668  0.34267505  1
  H+  H114  1  0.86388029  0.12587515  0.82215895  1
  H+  H115  1  0.76871817  0.63495909  0.17249176  1
  H+  H116  1  0.58977482  0.15068790  0.06545453  1
  H+  H117  1  0.98277214  0.87176750  0.15330384  1
  H+  H118  1  0.51320631  0.63719302  0.33575259  1
  H+  H119  1  0.24585294  0.60208938  0.50084068  1
  H+  H120  1  0.10735349  0.22186403  0.83651677  1
  H+  H121  1  0.46361617  0.60774784  0.83942328  1
  H+  H122  1  0.54596634  0.42571340  0.16655789  1
  H+  H123  1  0.76941543  0.64043782  0.84860908  1
  H+  H124  1  0.59586291  0.25777073  0.31604382  1
  H+  H125  1  0.63131334  0.61456245  0.32497113  1
  H+  H126  1  0.64382581  1.09633127  0.80712390  1
  H+  H127  1  0.22923701  0.11086904  0.83401776  1
  H+  H128  1  0.67536416  0.37497055  0.48750679  1
  H+  H129  1  0.03041452  0.64439365  0.49768859  1
  H+  H130  1  0.89055467  0.52901021  0.65592648  1
  H+  H131  1  0.38090097  0.61175633  0.66447452  1
  H+  H132  1  0.47653390  0.12699664  0.51498800  1
  H+  H133  1  0.86122664  0.72690801  0.85036882  1
  H+  H134  1  0.89687863  0.36791800  0.99842035  1
  H+  H135  1  0.59705162  0.47857195  0.33153142  1
  H+  H136  1  0.54946187  0.13178897  0.15454687  1
  H+  H137  1  0.66440961  0.61786054  0.52062539  1
  H+  H138  1  0.38728971  0.12674406  0.51464134  1
  H+  H139  1  0.13578203  0.60681503  -0.00236063  1
  H+  H140  1  0.55821353  0.44809192  0.56378378  1
  H+  H141  1  0.93399581  0.60071239  0.56907163  1
  H+  H142  1  1.01648982  0.88209281  0.33392001  1
  H+  H143  1  0.38196859  0.11229966  0.33380584  1
  H+  H144  1  0.88438556  0.09810023  0.46950909  1
  H+  H145  1  0.58138338  0.86812426  0.14952875  1
  H+  H146  1  0.47214914  0.86318614  0.32317037  1
  H+  H147  1  0.86311389  0.39206253  0.67740115  1
  H+  H148  1  0.74188265  0.13159492  0.82703908  1
  H+  H149  1  0.97958757  0.36973208  0.67509921  1
  H+  H150  1  0.74575518  0.34475612  0.48780594  1
  H+  H151  1  0.10049843  0.47061107  0.50038664  1
  H+  H152  1  0.35716434  0.88866528  0.32509724  1
  H+  H153  1  0.87096660  0.85093770  0.66302204  1
  H+  H154  1  0.63287022  0.01426746  0.50238892  1
  H+  H155  1  0.37432102  0.90551626  0.83746925  1
  H+  H156  1  0.51062809  0.91326053  0.84146979  1
  H+  H157  1  0.62595136  0.86345234  0.32016032  1
  H+  H158  1  0.52567416  0.85583890  0.99285399  1
  H+  H159  1  0.66205760  0.07749973  0.22709962  1
  H+  H160  1  0.89205000  0.79422335  0.13018656  1
  H+  H161  1  0.90069724  0.04107725  0.16615364  1
  H+  H162  1  0.96494231  0.60348407  0.83226860  1
  H+  H163  1  0.87652336  0.11386817  0.31857293  1
  H+  H164  1  0.21945202  0.59901240  0.99243813  1
  H+  H165  1  0.13099018  0.77799693  0.33091451  1
  H+  H166  1  0.86055665  0.20927064  0.49223852  1
  H+  H167  1  0.91730432  0.17692336  0.15785001  1
  H+  H168  1  0.71810756  0.69088309  0.20779184  1
  H+  H169  1  1.01232376  0.64281881  0.33714762  1
  H+  H170  1  0.85274953  0.62622401  0.66717385  1
  H+  H171  1  0.13037653  1.01372888  0.32839217  1
  H+  H172  1  0.13694664  1.02857991  -0.00946959  1
  H+  H173  1  0.38506474  0.98772413  0.16266665  1
  H+  H174  1  0.30800669  0.78409160  1.00573894  1
  H+  H175  1  0.58429610  0.34135915  0.31658728  1
  H+  H176  1  0.63517097  0.86259444  0.83121642  1
  H+  H177  1  0.88277460  0.86993721  1.00447756  1
  H+  H178  1  0.87125177  0.58158136  0.17452025  1
  H+  H179  1  0.65247484  0.28279003  0.63727305  1
  H+  H180  1  0.87947043  0.25877569  0.84451376  1
  H+  H181  1  0.11176003  0.37909817  1.00500604  1
  H+  H182  1  0.14148765  0.02106100  0.83810380  1
  H+  H183  1  0.66981001  0.49788948  0.48009482  1
  H+  H184  1  0.26751677  0.77552971  0.61221318  1
  H+  H185  1  0.75539075  0.62585521  0.51068253  1
  H+  H186  1  0.11132434  0.38572530  0.82630476  1
  H+  H187  1  0.34931504  0.47251114  0.82831554  1
  H+  H188  1  0.85936616  0.88199384  0.82971131  1
  H+  H189  1  0.38158431  0.61550790  0.33062743  1
  H+  H190  1  0.38987684  0.60685399  0.51441185  1
  H+  H191  1  0.76639969  0.63547887  0.33907175  1
  H+  H192  1  -0.02765232  0.61358822  -0.01590870  1
  H+  H193  1  0.60183000  0.72726819  0.82729295  1
  H+  H194  1  1.00507823  0.88176747  0.68311716  1
  H+  H195  1  0.14825463  0.11587799  0.17779915  1
  H+  H196  1  0.91172902  0.06660502  0.62359828  1
  H+  H197  1  0.07803789  0.41702709  0.73804052  1
  H+  H198  1  0.97109075  0.10536840  0.84564429  1
  H+  H199  1  0.07753346  0.78357263  0.60724829  1
  H+  H200  1  0.65082251  0.34576351  0.96270986  1
  H+  H201  1  0.22095960  0.36388998  0.99718314  1
  H+  H202  1  0.21519742  0.35736362  0.84151956  1
  H+  H203  1  0.90724119  0.63181683  0.50861590  1
  H+  H204  1  0.37461247  0.97886085  0.67872175  1
  H+  H205  1  0.34357795  0.84955540  0.65058246  1
  H+  H206  1  0.57613929  0.66496911  0.76935595  1
  H+  H207  1  0.77282868  0.89563347  0.00358729  1
  H+  H208  1  0.36387626  0.24840212  0.83589857  1
  H+  H209  1  0.71496083  0.10744276  0.32691040  1
  H+  H210  1  0.78244142  0.38310679  0.00351951  1
  H+  H211  1  0.61524056  0.13563615  0.49609685  1
  H+  H212  1  0.34901395  0.62906776  0.16403137  1
  H+  H213  1  0.71430442  0.08954630  0.65726677  1
  H+  H214  1  0.59866607  0.71952092  0.16067551  1
  H+  H215  1  0.83473412  0.92812767  0.58900619  1
  H+  H216  1  0.86277048  0.34260581  0.48402395  1
  H+  H217  1  0.49925205  0.95629056  0.89995743  1
  H+  H218  1  0.13218867  0.27670968  0.50932447  1
  H+  H219  1  0.34843348  0.38654691  0.50378397  1
  H+  H220  1  0.87381856  0.69513672  0.17432091  1
  H+  H221  1  0.16219532  0.29656415  0.33848817  1
  H+  H222  1  0.19239758  0.72237686  0.04931945  1
  H+  H223  1  1.00044731  0.35879977  0.31535086  1
  H+  H224  1  0.27117369  0.13921931  0.01266725  1
  H+  H225  1  0.85182719  0.97598538  0.29690130  1
  H+  H226  1  0.11909979  0.10532304  0.66885115  1
  H+  H227  1  0.12285956  0.14814040  1.00757308  1
  H+  H228  1  0.56094291  0.15227080  0.77413706  1
  H+  H229  1  0.65192969  0.98103220  0.80547948  1
  H+  H230  1  0.34796752  0.46726391  0.00744400  1
  H+  H231  1  0.36365255  0.47831003  0.16509644  1
  H+  H232  1  0.62452929  0.76716312  0.66464641  1
  H+  H233  1  0.39985333  0.74217259  0.97182452  1
  H+  H234  1  0.60579261  0.97380475  0.34072568  1
  H+  H235  1  0.33808270  0.31984679  0.29327845  1
  H+  H236  1  0.91117870  0.26165190  0.17179331  1
  H+  H237  1  0.10967907  -0.02083633  0.16060414  1
  H+  H238  1  0.36205227  0.99751372  0.00671258  1
  H+  H239  1  0.88884775  0.01910660  0.49793498  1
  H+  H240  1  0.28083092  0.55340674  0.46112164  1
  H+  H241  1  0.21995925  0.36730891  0.51442192  1
  H+  H242  1  0.25147573  0.61921885  0.67099886  1
  H+  H243  1  0.63227383  0.51823262  0.16938633  1
  H+  H244  1  0.25326461  0.39073913  0.34695978  1
  H+  H245  1  0.29166794  0.03363895  0.13162603  1
  H+  H246  1  0.33302965  0.41364879  0.73358138  1
  H+  H247  1  0.98548839  0.36399106  0.99713236  1
  H+  H248  1  0.36258086  0.14592400  1.01237673  1
  H+  H249  1  0.13322776  0.27326285  -0.00298956  1
  H+  H250  1  0.46492858  0.11472528  0.66249761  1
  H+  H251  1  0.38615341  0.51761874  0.51676630  1
  H+  H252  1  0.60649504  0.87571029  0.49682864  1
  H+  H253  1  0.84041078  0.70708865  0.67150139  1
  H+  H254  1  0.45020976  0.35304835  0.51635421  1
  H+  H255  1  0.85072955  0.45012651  0.16574125  1
  H+  H256  1  0.62658407  0.10808384  0.33175362  1
  H+  H257  1  0.77384051  0.39090841  0.66150423  1
  H+  H258  1  0.50291695  0.39682968  0.34080134  1
  H+  H259  1  0.87996046  0.85883791  0.29748684  1
  H+  H260  1  0.45705670  0.37309078  0.91493096  1
  H+  H261  1  0.59128269  0.49935890  -0.11119937  1
  H+  H262  1  0.65182022  0.82207596  0.57810578  1
  H+  H263  1  0.97857674  0.34508765  0.51837035  1
  H+  H264  1  0.37348845  0.60606357  0.83813311  1
  H+  H265  1  0.67274161  0.59596029  0.26666627  1
  H+  H266  1  0.62296400  0.00122903  0.65668294  1
  H+  H267  1  0.14721776  0.79236580  0.99968697  1
  H+  H268  1  0.08219203  0.70804051  0.17006108  1
  H+  H269  1  0.14640523  0.78181056  0.49051499  1
  H+  H270  1  0.88708728  0.28771890  0.69002453  1
  H+  H271  1  0.84846235  -0.03176262  0.68012525  1
  H+  H272  1  0.89010033  0.86982864  0.52469551  1
  H+  H273  1  0.26166490  0.13139325  0.50092361  1
  H+  H274  1  0.61408787  0.63450434  0.67901705  1
  H+  H275  1  0.45193241  0.84442820  0.16231017  1
  H+  H276  1  0.11126881  0.13421995  0.83391758  1
  H+  H277  1  0.09518167  0.71130632  0.82136080  1
  H+  H278  1  0.87805820  0.60970799  0.32488249  1
  H+  H279  1  0.70819843  0.85936416  0.16519216  1
  H+  H280  1  0.04574890  0.14655489  0.16324030  1
  H+  H281  1  0.84606507  0.18460223  0.65036630  1
  H+  H282  1  0.62428734  0.40036945  0.65723135  1
  H+  H283  1  0.62760201  0.62723058  0.84516976  1
  H+  H284  1  0.36470766  0.40936472  0.36281827  1
  H+  H285  1  0.57909858  0.16714312  0.40289738  1
  H+  H286  1  0.84359678  0.67814305  0.43119314  1
  H+  H287  1  0.14839106  0.36514743  0.17830411  1
  H+  H288  1  0.41953825  0.58551678  0.60839934  1
  H+  H289  1  0.83754453  0.15623371  0.75987321  1
  H+  H290  1  0.10185680  0.67708353  0.08109984  1
  H+  H291  1  0.15918067  0.57386047  0.23297880  1
  H+  H292  1  0.97642124  0.86687850  0.84964062  1
  H+  H293  1  0.33226604  0.91642756  0.38761251  1
  H+  H294  1  0.15427385  0.07808910  0.57463697  1
  H+  H295  1  0.34885940  0.91751440  0.73709056  1
  H+  H296  1  0.06874373  0.64965987  0.75952127  1
  H+  H297  1  0.13998556  0.32020075  0.60853927  1
  H+  H298  1  0.62989551  0.07155869  0.91404792  1
  H+  H299  1  0.16322760  0.83103446  0.89945755  1
  H+  H300  1  0.68613367  0.57600148  0.62021453  1
  H+  H301  1  0.57691854  0.66814592  0.39243298  1
  H+  H302  1  0.35769516  0.88973313  0.15611075  1
  H+  H303  1  0.92742296  0.09718382  0.22608702  1
  H+  H304  1  0.59246735  0.91924329  0.74834293  1
  H+  H305  1  0.66440520  0.06990837  0.56291966  1
  H+  H306  1  0.40184164  0.57226274  0.93322135  1
  H+  H307  1  0.40590647  0.58032112  0.23857584  1
  H+  H308  1  0.07430694  0.91211776  0.77455404  1
  H+  H309  1  0.07904995  0.40634778  0.40423209  1
  H+  H310  1  0.43938378  0.34798600  0.22979047  1
  H+  H311  1  0.90959672  0.57751967  0.92760479  1
  H+  H312  1  0.70598414  0.24478806  0.84463676  1
  H+  H313  1  0.82700886  0.90546037  0.76794723  1
  H+  H314  1  0.10959050  0.46826437  1.00643699  1
  H+  H315  1  0.33052158  0.66493102  0.40321293  1
  H+  H316  1  0.32303497  0.16705360  0.73400943  1
  H+  H317  1  0.45661492  0.10364232  0.84205319  1
  H+  H318  1  0.44117870  0.81525998  0.92019060  1
  H+  H319  1  0.83291104  0.65832548  0.07477731  1
  H+  H320  1  0.32217325  0.16437959  0.40607884  1
  H+  H321  1  0.38554292  0.36432451  0.66486545  1
  H+  H322  1  0.31963226  0.64924359  0.06367327  1
  H+  H323  1  0.38318480  0.81571218  0.55692110  1
  H+  H324  1  0.50500909  0.34216419  0.04568996  1
  H+  H325  1  0.91838897  0.82321980  0.25013807  1
  H+  H326  1  0.86977078  0.20207462  0.08177797  1
  H+  H327  1  0.10617399  0.88338099  0.34018386  1
  H+  H328  1  0.16303938  0.07741534  0.27070007  1
  H+  H329  1  0.15220582  0.57847112  0.57482172  1
  H+  H330  1  0.91689480  0.84342751  0.90906997  1
  H+  H331  1  0.12520410  0.81476056  0.23949784  1
  H+  H332  1  0.77016566  0.89079454  0.41114734  1
  H+  H333  1  0.55237276  0.64648391  0.07337903  1
  H+  H334  1  0.10470994  0.18020718  0.06994071  1
  H+  H335  1  0.28117738  0.89246505  0.47396308  1
  H+  H336  1  0.09813885  0.70497277  0.67974775  1
  H+  H337  1  0.41968206  0.21829103  0.78918137  1
  H+  H338  1  0.32306489  0.41234612  0.06847887  1
  H+  H339  1  0.56601566  0.57672422  0.45863898  1
  H+  H340  1  0.08069386  0.66798147  0.43377449  1
  H+  H341  1  0.01037299  0.07043517  0.39001290  1
  H+  H342  1  0.58665697  0.95727357  -0.00641607  1
  H+  H343  1  0.98636800  0.19312132  0.57691616  1
  H+  H344  1  0.07151142  0.15839413  0.74347167  1
  H+  H345  1  0.91276910  0.82672213  0.60720683  1
  H+  H346  1  0.15922643  0.32909084  0.90310101  1
  H+  H347  1  0.69147704  0.34610629  0.58132617  1
  H+  H348  1  0.64802120  0.82977657  0.22355231  1
  H+  H349  1  0.86042653  0.63908153  0.00993963  1
  H+  H350  1  0.07524549  0.92198105  0.43302457  1
  H+  H351  1  0.66757560  0.61872544  0.90867731  1
  H+  H352  1  0.09044437  0.10179257  0.34473012  1
  H+  H353  1  0.23159206  0.88518230  0.99517696  1
  H+  H354  1  0.33553046  0.93588715  0.06487557  1
  H+  H355  1  0.32730828  0.42752823  0.44309327  1
  H+  H356  1  0.63871176  0.12791325  0.15460903  1
  H+  H357  1  0.08710121  0.92605217  0.09623532  1
  H+  H358  1  0.55317605  0.89636408  0.08990725  1
  H+  H359  1  0.90656570  0.31680062  0.90595672  1
  H+  H360  1  0.41498273  0.09835047  0.93582506  1
  H+  H361  1  0.61265544  0.12896649  0.64219596  1
  H+  H362  1  0.09307726  0.40819411  0.10156811  1
  H+  H363  1  0.93966819  0.17408215  0.56947473  1
  H+  H364  1  0.81252007  0.39747570  0.10548077  1
  H+  H365  1  0.09422587  0.17189339  0.43856600  1
  H+  H366  1  0.32107089  0.65430153  0.76609126  1
  H+  H367  1  0.89236731  0.08688422  0.93818216  1
  H+  H368  1  0.17188182  0.08825890  0.93159509  1
  H+  H369  1  0.15628254  0.58077306  0.89795938  1
  H+  H370  1  0.57673620  0.90888965  0.39777401  1
  H+  H371  1  0.82317705  0.92610251  0.06765014  1
  H+  H372  1  0.81461020  0.43213390  0.74829131  1
  H+  H373  1  0.86204338  0.39267100  0.42428716  1
  H+  H374  1  0.91684616  0.31581738  0.57723879  1
  H+  H375  1  0.12793349  0.51627114  0.35368975  1
  H+  H376  1  0.62232766  0.43869783  0.42183760  1
  H+  H377  1  0.39669114  0.32599188  0.57844103  1
  H+  H378  1  0.52194324  0.35480777  0.01384937  1
  H+  H379  1  0.97937711  0.87155143  0.50967334  1
  H+  H380  1  0.75156435  0.91993706  0.41282887  1
  H+  H381  1  0.67680535  0.84681860  0.93041086  1
  H+  H382  1  0.43553254  0.09352711  0.23961698  1
  H+  H383  1  0.64926017  0.34961322  0.23954955  1
  O2-  O384  1  0.10801623  0.17494290  0.15267259  1
  O2-  O385  1  0.08755094  0.17348585  0.48316602  1
  O2-  O386  1  0.07601107  0.16027943  0.82183031  1
  O2-  O387  1  0.10090876  0.40940169  0.14639393  1
  O2-  O388  1  0.07530568  0.41156944  0.48295554  1
  O2-  O389  1  0.08488470  0.41755869  0.80805485  1
  O2-  O390  1  0.06611989  0.65152482  0.14879009  1
  O2-  O391  1  0.09057782  0.66849371  0.47827937  1
  O2-  O392  1  0.06378137  0.65056435  0.80845503  1
  O2-  O393  1  0.07884415  0.92021825  0.14173749  1
  O2-  O394  1  0.07704449  0.92027430  0.47829231  1
  O2-  O395  1  0.08077090  0.91555043  0.82011005  1
  O2-  O396  1  0.30570065  0.09262754  0.13966871  1
  O2-  O397  1  0.32069176  0.16486542  0.48321599  1
  O2-  O398  1  0.36121341  0.18462077  0.80534642  1
  O2-  O399  1  0.33990437  0.41775792  0.15105184  1
  O2-  O400  1  0.32387478  0.42304632  0.49063235  1
  O2-  O401  1  0.31535465  0.41250737  0.81193113  1
  O2-  O402  1  0.31508034  0.65453542  0.14704283  1
  O2-  O403  1  0.29968551  0.61033630  0.47805147  1
  O2-  O404  1  0.32504767  0.65519801  0.81099933  1
  O2-  O405  1  0.34272991  0.93335616  0.14236993  1
  O2-  O406  1  0.34092606  0.91860149  0.45693012  1
  O2-  O407  1  0.32976634  0.91565598  0.81833510  1
  O2-  O408  1  0.60391131  0.15293645  0.13239123  1
  O2-  O409  1  0.58427850  0.16735759  0.48707125  1
  O2-  O410  1  0.74367381  0.30302918  0.86050470  1
  O2-  O411  1  0.60862548  0.45941934  0.15409044  1
  O2-  O412  1  0.66576204  0.45146380  0.45351117  1
  O2-  O413  1  0.55173537  0.31074555  0.79038919  1
  O2-  O414  1  0.56749365  0.65608492  0.15276978  1
  O2-  O415  1  0.57203455  0.63119377  0.47202727  1
  O2-  O416  1  0.57105580  0.66528399  0.81475189  1
  O2-  O417  1  0.54226510  0.88751095  0.13452327  1
  O2-  O418  1  0.57760589  0.90567139  0.47903250  1
  O2-  O419  1  0.60080488  0.92577314  0.79778243  1
  O2-  O420  1  0.91038129  0.22355255  0.13927328  1
  O2-  O421  1  0.82842198  0.15478473  0.46880369  1
  O2-  O422  1  0.83714192  0.15932438  0.80521622  1
  O2-  O423  1  0.80669467  0.39261753  0.15024245  1
  O2-  O424  1  0.82459299  0.34723389  0.45394443  1
  O2-  O425  1  0.79915965  0.43966292  0.79356475  1
  O2-  O426  1  0.82943841  0.64537406  0.15254624  1
  O2-  O427  1  0.84804542  0.67956847  0.47630516  1
  O2-  O428  1  0.83242053  0.66355955  0.84717009  1
  O2-  O429  1  0.83016637  0.92365485  0.16384412  1
  O2-  O430  1  0.83236111  0.92339296  0.54445763  1
  O2-  O431  1  0.82779765  0.91038665  0.81309693  1
  O2-  O432  1  0.16589829  0.07476097  0.19474803  1
  O2-  O433  1  0.15815428  0.08038881  0.52889049  1
  O2-  O434  1  0.17155736  0.08285586  0.85156597  1
  O2-  O435  1  0.17946571  0.33641834  0.19716316  1
  O2-  O436  1  0.15782315  0.33600209  0.52631674  1
  O2-  O437  1  0.15491100  0.32405032  0.85749890  1
  O2-  O438  1  0.15799435  0.57889792  0.18900574  1
  O2-  O439  1  0.15580951  0.57713170  0.52794548  1
  O2-  O440  1  0.15853606  0.58199535  0.85279948  1
  O2-  O441  1  0.09521127  0.79310718  0.19991841  1
  O2-  O442  1  0.18082328  0.84459023  0.49785980  1
  O2-  O443  1  0.16027721  0.82608137  0.85427131  1
  O2-  O444  1  0.44304071  0.09334281  0.19478040  1
  O2-  O445  1  0.42057701  0.10422843  0.53578353  1
  O2-  O446  1  0.39854285  0.08119689  0.85770413  1
  O2-  O447  1  0.44752054  0.36137257  0.18636623  1
  O2-  O448  1  0.39111160  0.32539602  0.53075421  1
  O2-  O449  1  0.37306232  0.31192147  0.85298008  1
  O2-  O450  1  0.40496229  0.58136833  0.19319922  1
  O2-  O451  1  0.42367359  0.58061285  0.52876761  1
  O2-  O452  1  0.40337600  0.57505112  0.85461387  1
  O2-  O453  1  0.39163657  0.81626863  0.18137730  1
  O2-  O454  1  0.40863606  0.82066730  0.51517503  1
  O2-  O455  1  0.46603355  0.90924616  0.87042724  1
  O2-  O456  1  0.68730346  0.09315522  0.18587940  1
  O2-  O457  1  0.66583827  0.07470427  0.51722279  1
  O2-  O458  1  0.68328657  0.12028188  0.84123253  1
  O2-  O459  1  0.68565604  0.39472382  0.20623771  1
  O2-  O460  1  0.69001641  0.33374340  0.50790745  1
  O2-  O461  1  0.58411826  0.32388107  0.84233665  1
  O2-  O462  1  0.69566279  0.63024949  0.19884097  1
  O2-  O463  1  0.69657878  0.58841456  0.52893897  1
  O2-  O464  1  0.65953493  0.60087286  0.86537348  1
  O2-  O465  1  0.64769228  0.82498816  0.17812551  1
  O2-  O466  1  0.66058238  0.82693713  0.53119799  1
  O2-  O467  1  0.66091904  0.83009653  0.85043572  1
  O2-  O468  1  0.93859296  0.10025750  0.18119923  1
  O2-  O469  1  0.91958014  0.06932304  0.47079518  1
  O2-  O470  1  0.90855163  0.07641073  0.85648012  1
  O2-  O471  1  0.94323819  0.34340811  0.23681517  1
  O2-  O472  1  0.91867187  0.30656931  0.53307120  1
  O2-  O473  1  0.88635577  0.31206046  0.86318989  1
  O2-  O474  1  0.90440392  0.55535220  0.19152132  1
  O2-  O475  1  0.93958489  0.60437406  0.52355267  1
  O2-  O476  1  0.90466445  0.57261435  0.85055921  1
  O2-  O477  1  0.91781386  0.83586471  0.16310622  1
  O2-  O478  1  0.91999507  0.83616382  0.52707820  1
  O2-  O479  1  0.91553815  0.83974231  0.86383206  1
  O2-  O480  1  0.15929147  0.07613925  0.31651590  1
  O2-  O481  1  0.14899717  0.07520464  0.65185436  1
  O2-  O482  1  0.16957802  0.08934987  0.97677084  1
  O2-  O483  1  0.19016863  0.35573063  0.32428929  1
  O2-  O484  1  0.12933610  0.31814944  0.65265879  1
  O2-  O485  1  0.15998944  0.33388505  0.97987455  1
  O2-  O486  1  0.15483770  0.58112911  0.35785253  1
  O2-  O487  1  0.15087513  0.57833726  0.64614440  1
  O2-  O488  1  0.15747021  0.57183992  0.97814780  1
  O2-  O489  1  0.15835492  0.83780910  0.31443255  1
  O2-  O490  1  0.11725331  0.80695505  0.64127674  1
  O2-  O491  1  0.16937822  0.84881056  0.97978000  1
  O2-  O492  1  0.41486527  0.08531835  0.31852662  1
  O2-  O493  1  0.40324671  0.08252542  0.65238646  1
  O2-  O494  1  0.41829667  0.10211571  0.98097627  1
  O2-  O495  1  0.38691275  0.32281278  0.31472513  1
  O2-  O496  1  0.41035245  0.32924118  0.64558246  1
  O2-  O497  1  0.39736529  0.32220184  0.91657065  1
  O2-  O498  1  0.41064568  0.58346190  0.31770035  1
  O2-  O499  1  0.41799912  0.58687843  0.65350525  1
  O2-  O500  1  0.39744666  0.56859522  0.97859150  1
  O2-  O501  1  0.41185617  0.83343727  0.30741292  1
  O2-  O502  1  0.32812847  0.79852034  0.62169541  1
  O2-  O503  1  0.45339277  0.78279486  0.95095937  1
  O2-  O504  1  0.65269424  0.07333006  0.31769261  1
  O2-  O505  1  0.65549115  0.06331383  0.63948885  1
  O2-  O506  1  0.58709882  0.03988428  0.94601084  1
  O2-  O507  1  0.59228257  0.30117191  0.29011675  1
  O2-  O508  1  0.68584906  0.34487115  0.62724242  1
  O2-  O509  1  0.68712383  0.32026247  0.96759653  1
  O2-  O510  1  0.66165775  0.58350815  0.31239089  1
  O2-  O511  1  0.66891522  0.58141070  0.66218126  1
  O2-  O512  1  0.66666462  0.59828493  0.98895080  1
  O2-  O513  1  0.65346234  0.83253040  0.30049538  1
  O2-  O514  1  0.65229352  0.82658203  0.64694753  1
  O2-  O515  1  0.68668932  0.85507043  0.97490758  1
  O2-  O516  1  0.90678186  0.08440765  0.30056535  1
  O2-  O517  1  0.90007512  0.06230157  0.66705872  1
  O2-  O518  1  0.88410388  0.08824066  0.98259172  1
  O2-  O519  1  0.93997490  0.32642925  0.29797977  1
  O2-  O520  1  0.91433262  0.33556827  0.66154255  1
  O2-  O521  1  0.92280396  0.33363800  0.98288916  1
  O2-  O522  1  0.91420039  0.58475537  0.31210903  1
  O2-  O523  1  0.92420779  0.59042644  0.64470057  1
  O2-  O524  1  0.91158224  0.58171008  0.97355816  1
  O2-  O525  1  0.91215857  0.82698671  0.29442436  1
  O2-  O526  1  0.90605647  0.82376596  0.65223258  1
  O2-  O527  1  0.91422396  0.84011657  0.98979440  1
  O2-  O528  1  0.09607692  0.17974070  0.02549070  1
  O2-  O529  1  0.05072872  0.11910077  0.36509172  1
  O2-  O530  1  0.06591787  0.15351866  0.69811234  1
  O2-  O531  1  0.07954900  0.40820431  0.02225825  1
  O2-  O532  1  0.08839310  0.41379390  0.35913701  1
  O2-  O533  1  0.07064901  0.41483698  0.69154007  1
  O2-  O534  1  0.13126838  0.69449095  0.03957380  1
  O2-  O535  1  0.07293474  0.67450775  0.35368555  1
  O2-  O536  1  0.07241669  0.64535250  0.69459236  1
  O2-  O537  1  0.08386913  0.92451975  0.02138954  1
  O2-  O538  1  0.07381695  0.91343116  0.35352153  1
  O2-  O539  1  0.06586616  0.91142886  0.69843119  1
  O2-  O540  1  0.32576489  0.16261432  0.03594017  1
  O2-  O541  1  0.32434451  0.16516099  0.36034998  1
  O2-  O542  1  0.31472683  0.16196449  0.68847517  1
  O2-  O543  1  0.31494315  0.40771909  0.02385499  1
  O2-  O544  1  0.33252925  0.43766955  0.37478295  1
  O2-  O545  1  0.34443823  0.41611234  0.68913466  1
  O2-  O546  1  0.31679589  0.64556387  0.01860822  1
  O2-  O547  1  0.32972315  0.67109376  0.35854646  1
  O2-  O548  1  0.31431867  0.65261791  0.68289891  1
  O2-  O549  1  0.32657512  0.93669152  0.02004980  1
  O2-  O550  1  0.32605767  0.91745933  0.34106407  1
  O2-  O551  1  0.36842422  0.92411641  0.69422536  1
  O2-  O552  1  0.57969256  0.15376744  0.01876765  1
  O2-  O553  1  0.57776278  0.16475464  0.35776879  1
  O2-  O554  1  0.58679286  0.16687252  0.63648853  1
  O2-  O555  1  0.56603643  0.44622970  -0.08512125  1
  O2-  O556  1  0.56401522  0.41957905  0.34968045  1
  O2-  O557  1  0.59530223  0.42677470  0.67902771  1
  O2-  O558  1  0.54951796  0.64556786  0.02837587  1
  O2-  O559  1  0.57615338  0.67010713  0.34751491  1
  O2-  O560  1  0.58396757  0.66628517  0.69203547  1
  O2-  O561  1  0.57680398  0.90434189  0.01456556  1
  O2-  O562  1  0.57582197  0.91090290  0.35254459  1
  O2-  O563  1  0.58287698  0.91087996  0.68519842  1
  O2-  O564  1  0.84600943  0.18856946  0.03618479  1
  O2-  O565  1  0.82797752  0.16371397  0.34593837  1
  O2-  O566  1  0.82234849  0.14078584  0.68198058  1
  O2-  O567  1  0.83977886  0.41572878  0.02365992  1
  O2-  O568  1  0.92648268  0.45543803  0.36639691  1
  O2-  O569  1  0.83013230  0.42227595  0.68548656  1
  O2-  O570  1  0.83292807  0.66859227  0.02997729  1
  O2-  O571  1  0.82859127  0.66573783  0.35097115  1
  O2-  O572  1  0.81377484  0.64618949  0.68368127  1
  O2-  O573  1  0.83335112  0.92520011  0.02410423  1
  O2-  O574  1  0.82422394  0.91393192  0.28504852  1
  O2-  O575  1  0.81749234  0.90180829  0.68542105  1
