# generated using pymatgen
data_H2O
_symmetry_space_group_name_H-M   'P 1'
_cell_length_a   17.97943617
_cell_length_b   17.98395686
_cell_length_c   22.00245640
_cell_angle_alpha   89.97779823
_cell_angle_beta   90.02821741
_cell_angle_gamma   119.94518942
_symmetry_Int_Tables_number   1
_chemical_formula_structural   H2O
_chemical_formula_sum   'H384 O192'
_cell_volume   6164.56820467
_cell_formula_units_Z   192
loop_
 _symmetry_equiv_pos_site_id
 _symmetry_equiv_pos_as_xyz
  1  'x, y, z'
loop_
 _atom_type_symbol
 _atom_type_oxidation_number
  H+  1.0
  O2-  -2.0
loop_
 _atom_site_type_symbol
 _atom_site_label
 _atom_site_symmetry_multiplicity
 _atom_site_fract_x
 _atom_site_fract_y
 _atom_site_fract_z
 _atom_site_occupancy
  H+  H0  1  0.46889733  0.86576888  0.65977302  1
  H+  H1  1  0.10932858  0.73127025  0.48130627  1
  H+  H2  1  0.28243312  0.78741395  0.10957096  1
  H+  H3  1  0.72368087  0.84641740  0.82551101  1
  H+  H4  1  0.61787249  0.64053093  0.00347573  1
  H+  H5  1  0.89343113  0.62374110  0.49490439  1
  H+  H6  1  0.35433206  -0.02419348  0.66602118  1
  H+  H7  1  0.25356623  0.62735344  0.49059257  1
  H+  H8  1  0.86475463  0.89203055  0.16045132  1
  H+  H9  1  0.13792449  0.03034243  0.17169667  1
  H+  H10  1  0.12267956  0.15186145  0.15402556  1
  H+  H11  1  0.52090745  0.38988266  0.16323363  1
  H+  H12  1  0.37948397  0.77806462  0.66502769  1
  H+  H13  1  0.40838068  0.07446747  0.59332426  1
  H+  H14  1  0.12290641  0.14907851  0.49199202  1
  H+  H15  1  0.92563216  0.91625335  0.50603100  1
  H+  H16  1  0.79016680  0.65778682  0.50383513  1
  H+  H17  1  0.63202880  0.86133666  0.65089609  1
  H+  H18  1  0.96836316  0.68212846  0.17476669  1
  H+  H19  1  0.38364181  0.73418227  0.16546436  1
  H+  H20  1  0.92525488  0.79336757  0.51671830  1
  H+  H21  1  0.47985164  0.11381555  0.85247070  1
  H+  H22  1  0.82979909  0.27079360  0.12679867  1
  H+  H23  1  0.85383880  0.18787069  0.77660392  1
  H+  H24  1  0.89853632  1.03296917  0.32924986  1
  H+  H25  1  0.85925219  -0.03022262  0.82493571  1
  H+  H26  1  0.37450435  0.08798283  0.49658509  1
  H+  H27  1  0.35745982  0.88604697  0.67112516  1
  H+  H28  1  0.38112565  0.12231899  0.16714046  1
  H+  H29  1  0.65992999  0.78842733  0.32479578  1
  H+  H30  1  0.21491466  0.86884638  0.48989742  1
  H+  H31  1  0.73968504  0.11973640  0.32040968  1
  H+  H32  1  0.23096916  0.37064453  0.18295382  1
  H+  H33  1  0.87736107  0.63910386  0.64883512  1
  H+  H34  1  0.97389302  0.34810538  0.99870676  1
  H+  H35  1  0.29795987  0.63934947  0.82922585  1
  H+  H36  1  0.24700209  0.62389578  1.00018297  1
  H+  H37  1  0.82787417  1.02145459  0.66250641  1
  H+  H38  1  0.56600842  0.69949992  0.83311184  1
  H+  H39  1  0.11427106  0.88287742  0.82361442  1
  H+  H40  1  0.42643903  0.65872196  0.83677437  1
  H+  H41  1  0.63264425  0.98572675  0.32779669  1
  H+  H42  1  0.64645788  0.37668217  0.66666419  1
  H+  H43  1  0.96840217  0.62002629  0.84523904  1
  H+  H44  1  0.12533053  0.01769824  0.83503887  1
  H+  H45  1  0.68767101  0.84888113  0.26484610  1
  H+  H46  1  0.59658495  0.21907767  0.48310517  1
  H+  H47  1  0.14231217  0.03150691  0.32876898  1
  H+  H48  1  0.10464466  0.78374959  0.19310595  1
  H+  H49  1  0.50706669  0.87782314  0.32040987  1
  H+  H50  1  0.16899727  0.71728058  0.15039547  1
  H+  H51  1  0.36267514  0.23659166  0.34696575  1
  H+  H52  1  0.61042391  0.39014646  0.82788232  1
  H+  H53  1  0.51222189  0.12607053  0.48699146  1
  H+  H54  1  0.09920097  0.09414915  0.98571431  1
  H+  H55  1  0.12213814  0.39013148  0.34612020  1
  H+  H56  1  0.13404412  0.11541889  0.64824189  1
  H+  H57  1  0.61265637  0.47805626  0.15692373  1
  H+  H58  1  0.86869287  0.21853713  -0.00449929  1
  H+  H59  1  0.13548611  0.11752154  0.32701117  1
  H+  H60  1  0.59584213  0.15623910  0.70432390  1
  H+  H61  1  0.89688347  0.79669807  0.66864997  1
  H+  H62  1  0.20141074  0.84270412  0.16542010  1
  H+  H63  1  0.64208490  0.27865543  0.98872407  1
  H+  H64  1  0.03442443  0.40037266  0.82554982  1
  H+  H65  1  0.63790955  0.11652884  0.49303457  1
  H+  H66  1  0.61550925  0.88716283  -0.00007626  1
  H+  H67  1  0.86706328  0.48470789  0.83619109  1
  H+  H68  1  0.88827975  0.61306924  0.00428998  1
  H+  H69  1  0.36938188  0.52237619  0.34188929  1
  H+  H70  1  0.89499652  0.36329743  0.33381290  1
  H+  H71  1  0.78840503  0.89452212  0.34131134  1
  H+  H72  1  0.91073435  0.37975771  0.17859346  1
  H+  H73  1  0.88827590  0.11022404  0.84230710  1
  H+  H74  1  0.92922364  0.08034192  0.89508573  1
  H+  H75  1  0.87816531  0.76909924  0.16996443  1
  H+  H76  1  0.86305315  0.88275601  0.81853628  1
  H+  H77  1  0.48281966  0.63191870  0.65797317  1
  H+  H78  1  0.77033956  0.88783794  0.66701724  1
  H+  H79  1  0.15379363  0.61362159  0.99254036  1
  H+  H80  1  0.71007972  0.60965643  0.66645098  1
  H+  H81  1  0.61383902  0.72223836  0.48824392  1
  H+  H82  1  0.43439001  0.35873592  0.57095611  1
  H+  H83  1  0.69195286  0.36374833  0.60886738  1
  H+  H84  1  0.36227052  0.88903207  0.00071373  1
  H+  H85  1  0.53360820  0.89528738  0.15451341  1
  H+  H86  1  0.71097997  0.85685702  0.48927533  1
  H+  H87  1  0.61835334  0.73773810  0.66622101  1
  H+  H88  1  0.40730071  0.83381790  0.89988538  1
  H+  H89  1  0.25606077  0.13450135  0.00687273  1
  H+  H90  1  0.60387776  0.96284635  0.65773256  1
  H+  H91  1  0.10104223  0.91177885  0.40011588  1
  H+  H92  1  0.13308256  0.73390552  0.33316825  1
  H+  H93  1  0.91594144  0.12147877  0.99051369  1
  H+  H94  1  0.22028679  0.86118379  0.99036650  1
  H+  H95  1  0.48284695  0.61897751  0.99176897  1
  H+  H96  1  1.04172638  0.65801540  0.17910932  1
  H+  H97  1  0.12609144  0.34694232  0.83409832  1
  H+  H98  1  0.42387681  0.78523703  0.31432050  1
  H+  H99  1  0.38891483  0.10875688  0.83662430  1
  H+  H100  1  0.73108360  0.06613117  0.63147819  1
  H+  H101  1  0.07026389  0.88000236  0.50267927  1
  H+  H102  1  0.34107121  0.19569772  0.54672264  1
  H+  H103  1  0.61976123  0.65531058  0.15163871  1
  H+  H104  1  0.16085355  0.82811254  0.89911400  1
  H+  H105  1  0.39379694  0.78345237  0.99778867  1
  H+  H106  1  0.85818312  0.43365289  0.66392090  1
  H+  H107  1  0.67821245  0.07803015  0.89566910  1
  H+  H108  1  0.87153345  0.48364619  0.48547257  1
  H+  H109  1  0.48098167  0.87278832  0.99242762  1
  H+  H110  1  0.13545876  0.61913792  0.49997718  1
  H+  H111  1  1.03624458  0.39570533  0.49597501  1
  H+  H112  1  0.75106626  0.36884197  0.50312407  1
  H+  H113  1  0.09407460  0.42460739  0.11618705  1
  H+  H114  1  0.13902949  0.30543539  0.92830551  1
  H+  H115  1  0.86887076  0.14630073  0.49975197  1
  H+  H116  1  1.03684564  0.89901158  0.67071744  1
  H+  H117  1  0.27522576  0.38548072  0.34787907  1
  H+  H118  1  0.38619828  0.53792918  0.98646016  1
  H+  H119  1  0.09177751  0.34192931  0.01381419  1
  H+  H120  1  0.86812866  0.47153234  1.01185558  1
  H+  H121  1  0.87399164  0.23232014  0.33980014  1
  H+  H122  1  0.38664169  0.36818064  0.17475010  1
  H+  H123  1  0.04352293  0.40841727  0.66888344  1
  H+  H124  1  0.38222671  0.41286593  0.50124444  1
  H+  H125  1  0.63262161  0.03026440  0.16636304  1
  H+  H126  1  0.45774129  0.09457930  0.65862639  1
  H+  H127  1  0.35148571  0.21664343  1.00389941  1
  H+  H128  1  0.37915358  0.88844080  0.33954007  1
  H+  H129  1  0.04280373  0.16278596  0.49974955  1
  H+  H130  1  0.73281037  0.87662682  0.17294536  1
  H+  H131  1  0.37259991  0.10749935  -0.00156939  1
  H+  H132  1  0.65505778  0.32748262  0.23843782  1
  H+  H133  1  0.90119174  0.37445517  0.50452833  1
  H+  H134  1  0.38751925  0.27709402  0.65506215  1
  H+  H135  1  0.13039252  0.48178246  0.83102587  1
  H+  H136  1  0.32440435  0.42415573  0.10769119  1
  H+  H137  1  0.64363943  0.78782804  0.17024025  1
  H+  H138  1  0.77692148  0.38091144  0.33759578  1
  H+  H139  1  0.63345794  0.64569179  0.48872719  1
  H+  H140  1  0.63920197  0.52557641  1.00080439  1
  H+  H141  1  0.36620175  0.60707347  0.35607960  1
  H+  H142  1  0.27531675  0.64630770  0.67381434  1
  H+  H143  1  0.03825210  0.88975169  0.34284409  1
  H+  H144  1  0.14362881  0.37401596  0.18658873  1
  H+  H145  1  0.52789312  0.38371277  0.34712115  1
  H+  H146  1  0.21275876  0.34435474  0.66428068  1
  H+  H147  1  0.83877940  0.49638887  0.19684227  1
  H+  H148  1  0.61753065  0.13258764  -0.01535416  1
  H+  H149  1  0.61771677  0.39042487  0.01203444  1
  H+  H150  1  0.62411909  0.89843226  0.15794749  1
  H+  H151  1  0.37341755  0.86048262  0.84124095  1
  H+  H152  1  0.73007781  0.37117109  0.84242244  1
  H+  H153  1  0.39090401  0.62944974  0.65975464  1
  H+  H154  1  0.63567487  0.89665789  0.32945867  1
  H+  H155  1  0.87917361  0.55315496  0.65425242  1
  H+  H156  1  0.25588655  0.46802566  0.03706452  1
  H+  H157  1  0.27275820  0.14081839  0.16385933  1
  H+  H158  1  0.39455722  0.37377808  0.33236262  1
  H+  H159  1  0.86128002  0.89484146  1.02107713  1
  H+  H160  1  0.89553745  0.77964568  0.32330395  1
  H+  H161  1  0.87854420  0.75769249  0.82735072  1
  H+  H162  1  0.51902631  0.14449125  0.16121459  1
  H+  H163  1  0.58929877  0.16935509  0.90224427  1
  H+  H164  1  0.37020402  0.73934888  0.82541919  1
  H+  H165  1  0.89483893  0.09029180  0.23517313  1
  H+  H166  1  0.25794470  0.02932988  0.44137156  1
  H+  H167  1  0.36063794  0.97857063  0.82762156  1
  H+  H168  1  0.09675833  0.12450552  0.80501359  1
  H+  H169  1  0.60256742  0.64366520  0.32774797  1
  H+  H170  1  0.89994497  0.37278051  0.84389336  1
  H+  H171  1  0.38434811  0.20071311  0.54022351  1
  H+  H172  1  0.76415752  0.64043447  0.27897736  1
  H+  H173  1  0.94765446  0.37805335  0.24463274  1
  H+  H174  1  0.83855460  0.63423958  0.16803009  1
  H+  H175  1  0.36116635  0.47739141  0.17061550  1
  H+  H176  1  0.86028146  1.02612273  0.17938324  1
  H+  H177  1  0.14168438  0.27840728  0.33258307  1
  H+  H178  1  0.02729178  0.30555153  1.06791117  1
  H+  H179  1  0.87283890  0.98660994  0.00836290  1
  H+  H180  1  0.64430735  0.02091165  0.99052062  1
  H+  H181  1  0.00702133  0.11946413  0.80744011  1
  H+  H182  1  0.35967838  0.13911418  0.66197374  1
  H+  H183  1  0.17875197  0.62152409  0.85625449  1
  H+  H184  1  0.89848472  0.88526960  0.66077310  1
  H+  H185  1  0.70217514  0.28639534  0.68186760  1
  H+  H186  1  0.86153741  0.72258384  0.01888241  1
  H+  H187  1  0.11254207  0.25310324  0.82903089  1
  H+  H188  1  0.69730752  0.28680112  0.54361531  1
  H+  H189  1  0.63297899  0.39306898  0.50039603  1
  H+  H190  1  0.90061394  0.86988969  0.32930330  1
  H+  H191  1  0.29011015  0.88980038  0.33648793  1
  H+  H192  1  0.27643678  0.05349236  0.78204573  1
  H+  H193  1  0.53449594  0.13284089  0.32801589  1
  H+  H194  1  0.84168177  0.41943331  0.42768315  1
  H+  H195  1  0.28491487  0.32194697  0.73314187  1
  H+  H196  1  0.20405483  0.09060982  0.49358459  1
  H+  H197  1  0.42653207  0.08111800  0.26156520  1
  H+  H198  1  0.24248022  0.38480415  0.00686796  1
  H+  H199  1  0.98025893  0.87159061  1.00689072  1
  H+  H200  1  0.63959522  0.35890774  0.33013362  1
  H+  H201  1  0.51854097  0.38389612  0.67346379  1
  H+  H202  1  0.19383310  0.58617919  0.24786607  1
  H+  H203  1  0.48616983  0.35085037  0.99241577  1
  H+  H204  1  0.09206239  0.64312206  0.80492630  1
  H+  H205  1  0.80106946  0.21740489  0.69438502  1
  H+  H206  1  0.15318833  0.37711822  0.50610172  1
  H+  H207  1  0.27188077  0.15079503  0.33632003  1
  H+  H208  1  0.36249529  0.76401010  0.51365853  1
  H+  H209  1  0.84047786  0.91215903  0.52406412  1
  H+  H210  1  0.55138978  0.40590527  0.50234991  1
  H+  H211  1  0.10257611  0.21624377  0.65236171  1
  H+  H212  1  0.97742382  0.61209239  0.99895286  1
  H+  H213  1  0.40530949  0.02216682  0.32100285  1
  H+  H214  1  0.85362765  0.62975006  0.83018473  1
  H+  H215  1  0.22878679  0.61164445  0.35463411  1
  H+  H216  1  0.14561038  0.03247882  0.65503133  1
  H+  H217  1  0.11506890  0.72227350  0.00608882  1
  H+  H218  1  0.14812484  0.62004272  0.33317020  1
  H+  H219  1  0.01946163  0.66099952  0.65883282  1
  H+  H220  1  0.86909619  0.08545215  0.60783540  1
  H+  H221  1  0.38789531  0.53118968  0.51455198  1
  H+  H222  1  0.89849601  0.28427378  0.50699798  1
  H+  H223  1  0.77869756  0.72256698  0.70931027  1
  H+  H224  1  0.84547434  0.16043164  0.67870675  1
  H+  H225  1  0.38709715  0.27955876  0.17567259  1
  H+  H226  1  0.01720444  0.89167006  0.15549370  1
  H+  H227  1  0.62030821  -0.01997593  0.47942352  1
  H+  H228  1  0.77948346  0.14477099  0.49201982  1
  H+  H229  1  0.52698725  0.13299289  0.99016212  1
  H+  H230  1  0.28685232  0.40236549  0.50030497  1
  H+  H231  1  0.62332706  0.88830655  0.81061324  1
  H+  H232  1  0.63924101  0.26841817  0.32649539  1
  H+  H233  1  0.62217852  0.35909739  0.17723588  1
  H+  H234  1  0.13560417  0.52802906  0.50419821  1
  H+  H235  1  0.63371019  0.98208544  0.81296688  1
  H+  H236  1  0.83303004  0.47746124  0.16551553  1
  H+  H237  1  0.89476201  0.12019928  0.33130389  1
  H+  H238  1  0.66560215  0.53641804  0.51046332  1
  H+  H239  1  0.73598313  0.10849481  0.98739820  1
  H+  H240  1  0.62505375  0.61423767  0.66129167  1
  H+  H241  1  0.38445836  0.00798107  0.50298521  1
  H+  H242  1  0.87526253  0.45968834  0.69278462  1
  H+  H243  1  0.63962320  0.52496878  0.84449804  1
  H+  H244  1  0.13673182  0.63220006  0.65265304  1
  H+  H245  1  0.13967983  0.78462326  0.65328870  1
  H+  H246  1  0.64298425  0.28042241  0.85106903  1
  H+  H247  1  0.76071113  0.62774601  0.83544987  1
  H+  H248  1  0.61778404  0.72938395  0.99691932  1
  H+  H249  1  0.81705934  0.67463184  0.74584559  1
  H+  H250  1  1.02460618  0.63950343  0.48394145  1
  H+  H251  1  0.74107805  0.12060170  0.83935268  1
  H+  H252  1  0.22305957  0.86218785  0.83979886  1
  H+  H253  1  0.02850368  0.14454115  0.33971656  1
  H+  H254  1  0.24165413  0.87577698  0.66118179  1
  H+  H255  1  0.60382363  0.47485197  0.67333848  1
  H+  H256  1  0.02389089  0.87824277  0.81287599  1
  H+  H257  1  0.98598340  0.36589872  0.33688886  1
  H+  H258  1  0.38937304  0.85988166  0.17039368  1
  H+  H259  1  0.64939586  0.11731883  0.32123641  1
  H+  H260  1  0.37851547  0.61721873  0.51130255  1
  H+  H261  1  0.39680071  0.60984262  0.18267422  1
  H+  H262  1  0.40090089  0.53032770  0.81391841  1
  H+  H263  1  0.27367446  0.14503833  0.66346351  1
  H+  H264  1  0.04122273  0.42014622  0.17814687  1
  H+  H265  1  0.12124333  0.47963451  0.34696006  1
  H+  H266  1  0.86481524  0.47000842  0.33359495  1
  H+  H267  1  0.34820897  0.72399269  0.40520576  1
  H+  H268  1  0.10635140  0.73622274  0.82082893  1
  H+  H269  1  0.59670041  0.42235323  0.40199409  1
  H+  H270  1  0.59664437  0.50169460  0.31592690  1
  H+  H271  1  0.75798645  0.13822230  0.14106629  1
  H+  H272  1  0.17498605  0.34253737  0.27538915  1
  H+  H273  1  0.10655888  0.97619341  0.00329937  1
  H+  H274  1  0.72997251  0.61285793  0.00334052  1
  H+  H275  1  0.16379389  0.52509467  0.18749572  1
  H+  H276  1  0.21094737  0.10584105  0.83474594  1
  H+  H277  1  0.86649428  0.59377880  0.30277319  1
  H+  H278  1  0.67572372  0.10916185  0.65226972  1
  H+  H279  1  0.37984778  0.43516447  0.82615259  1
  H+  H280  1  0.38215013  1.03394263  0.16206290  1
  H+  H281  1  0.15502641  0.28878247  0.50219379  1
  H+  H282  1  0.09583009  0.42524983  0.43661084  1
  H+  H283  1  0.61551070  0.25370887  0.17392138  1
  H+  H284  1  0.92671386  0.30410375  0.66217088  1
  H+  H285  1  0.38067419  0.65323698  0.00855324  1
  H+  H286  1  0.88056717  0.23727529  0.83859583  1
  H+  H287  1  0.47401876  0.38621065  0.83780299  1
  H+  H288  1  0.34157329  0.87340729  0.49493261  1
  H+  H289  1  0.61045831  0.14531194  0.16369958  1
  H+  H290  1  0.95813512  0.85309378  0.57514818  1
  H+  H291  1  0.99434989  0.11483653  0.59524701  1
  H+  H292  1  0.16277489  0.08698146  0.55821593  1
  H+  H293  1  0.62943178  0.86786657  0.49525778  1
  H+  H294  1  0.73132381  0.87095695  -0.01419478  1
  H+  H295  1  0.18332178  0.84902761  0.26766432  1
  H+  H296  1  0.83586956  0.35354934  0.09462289  1
  H+  H297  1  0.84086276  0.17216744  0.39855823  1
  H+  H298  1  0.45022684  0.62340037  0.89608222  1
  H+  H299  1  0.91886367  0.83526667  0.22684090  1
  H+  H300  1  0.13053313  0.85997935  0.99272999  1
  H+  H301  1  0.14714855  0.07767311  0.93101954  1
  H+  H302  1  0.67294419  0.83385315  0.92549474  1
  H+  H303  1  0.07340707  0.68634779  0.72039739  1
  H+  H304  1  0.35247282  0.67823701  0.07174953  1
  H+  H305  1  0.41508457  0.31245218  0.50735592  1
  H+  H306  1  0.16784431  0.59760637  0.59647200  1
  H+  H307  1  0.16910009  0.08738087  0.23270085  1
  H+  H308  1  0.58581846  0.16074203  0.39093796  1
  H+  H309  1  0.93843318  1.04617107  0.54237902  1
  H+  H310  1  0.30529289  0.87747334  0.08546969  1
  H+  H311  1  0.05512891  0.14377435  0.70264491  1
  H+  H312  1  0.10863646  0.89737602  0.15897939  1
  H+  H313  1  0.32196598  0.14458421  0.75329594  1
  H+  H314  1  0.08329257  0.92120223  0.06544754  1
  H+  H315  1  0.83454150  0.92820278  0.10447277  1
  H+  H316  1  0.15690573  0.87379932  0.32949399  1
  H+  H317  1  0.67452983  0.34879179  0.93765347  1
  H+  H318  1  0.59106304  0.91933444  0.06131679  1
  H+  H319  1  0.09750615  0.92283403  0.72891846  1
  H+  H320  1  0.57982724  0.41414788  0.07001814  1
  H+  H321  1  0.35621502  -0.02429718  1.00728983  1
  H+  H322  1  0.67801361  0.59276036  0.56977855  1
  H+  H323  1  0.38207375  0.36130914  0.66542563  1
  H+  H324  1  0.66764390  0.08213535  0.55035291  1
  H+  H325  1  0.40353143  0.07928257  0.93898994  1
  H+  H326  1  0.09966403  0.44358013  0.73829704  1
  H+  H327  1  0.67001390  0.09081741  0.22515266  1
  H+  H328  1  0.53004586  0.51420262  0.27801060  1
  H+  H329  1  0.67283633  0.58235802  0.90564968  1
  H+  H330  1  0.14996860  0.62484900  0.16650365  1
  H+  H331  1  0.91745454  0.59340350  0.55451936  1
  H+  H332  1  0.09789278  0.65822294  0.06192402  1
  H+  H333  1  0.12005988  0.23605374  0.16174519  1
  H+  H334  1  0.83529380  0.15831034  0.05414583  1
  H+  H335  1  0.91002775  0.85873811  0.95757454  1
  H+  H336  1  0.32689921  0.92108280  0.76645446  1
  H+  H337  1  0.08882587  0.17508505  0.39949112  1
  H+  H338  1  0.95470650  0.35480558  0.59763310  1
  H+  H339  1  0.84500429  0.70198851  0.44456644  1
  H+  H340  1  0.64632596  0.57883218  0.21617227  1
  H+  H341  1  0.59544076  0.69483185  0.73143608  1
  H+  H342  1  0.75323730  0.60828868  0.34517231  1
  H+  H343  1  0.19571197  0.57999323  0.91315648  1
  H+  H344  1  0.92974383  0.82184231  0.87957649  1
  H+  H345  1  0.84407528  0.43069554  0.77514296  1
  H+  H346  1  0.43375521  0.84865051  0.23095594  1
  H+  H347  1  0.82878145  0.92133751  0.72746734  1
  H+  H348  1  0.33153817  0.91172792  0.43087289  1
  H+  H349  1  0.60676187  0.68159900  0.39435169  1
  H+  H350  1  0.17054112  0.33152013  0.59893852  1
  H+  H351  1  0.42282746  0.34288917  0.27208211  1
  H+  H352  1  0.33752095  0.67406230  0.73333823  1
  H+  H353  1  0.93282061  0.34369249  0.90216609  1
  H+  H354  1  0.14587046  0.87993748  0.65745896  1
  H+  H355  1  0.41209449  0.35527875  0.89380951  1
  H+  H356  1  0.30922613  0.12661725  0.41956767  1
  H+  H357  1  0.71603063  0.25119523  0.74451954  1
  H+  H358  1  0.58195922  0.41999571  0.76808062  1
  H+  H359  1  0.45895383  0.28092190  0.94221620  1
  H+  H360  1  0.58494678  0.91345955  0.72132452  1
  H+  H361  1  0.12959470  0.51002569  0.67578031  1
  H+  H362  1  0.33317699  0.42106815  0.74099789  1
  H+  H363  1  0.29667017  0.64288458  0.16964601  1
  H+  H364  1  0.09074190  0.67069610  0.38873327  1
  H+  H365  1  0.32718203  0.17048646  0.10222655  1
  H+  H366  1  0.77869024  0.38468165  0.00720126  1
  H+  H367  1  0.82939010  0.66546874  0.07988964  1
  H+  H368  1  0.85033177  0.92480051  0.40086110  1
  H+  H369  1  0.39215859  0.82775459  0.57045894  1
  H+  H370  1  0.59490702  0.92060539  0.42114586  1
  H+  H371  1  0.62386307  0.13868960  0.84793589  1
  H+  H372  1  0.91448090  0.58696742  0.90835570  1
  H+  H373  1  0.10216157  0.23991491  -0.01587833  1
  H+  H374  1  0.84542769  0.14167916  0.15245243  1
  H+  H375  1  0.52268308  0.09992886  0.74987902  1
  H+  H376  1  0.95336892  0.60210750  0.27972971  1
  H+  H377  1  0.41703575  0.59841719  0.58327752  1
  H+  H378  1  0.72539620  0.62095406  0.16462042  1
  H+  H379  1  0.59405877  0.68960191  0.09447867  1
  H+  H380  1  0.33846043  0.42057819  0.40620488  1
  H+  H381  1  0.39573582  0.57338811  0.24814404  1
  H+  H382  1  0.66647716  0.83641706  0.59128759  1
  H+  H383  1  0.89046833  0.35960138  0.99181125  1
  O2-  O384  1  0.09783748  0.18459157  0.13597234  1
  O2-  O385  1  0.09781447  0.18653720  0.47783601  1
  O2-  O386  1  0.06332930  0.14853400  0.78577287  1
  O2-  O387  1  0.10073945  0.43311131  0.16049351  1
  O2-  O388  1  0.09752482  0.42898372  0.48264610  1
  O2-  O389  1  0.09353536  0.42838051  0.80733240  1
  O2-  O390  1  0.12632875  0.65758588  0.14234736  1
  O2-  O391  1  0.08587266  0.66948539  0.47078888  1
  O2-  O392  1  0.06702092  0.67973508  0.79911746  1
  O2-  O393  1  0.07833822  0.92562930  0.14085939  1
  O2-  O394  1  0.12304124  0.89607053  0.47810448  1
  O2-  O395  1  0.08653673  0.91336760  0.80393415  1
  O2-  O396  1  0.33381056  0.17279362  0.14734246  1
  O2-  O397  1  0.29050242  0.08764072  0.45721134  1
  O2-  O398  1  0.30771993  0.11383328  0.79382740  1
  O2-  O399  1  0.33191171  0.41756501  0.15143718  1
  O2-  O400  1  0.34834024  0.43899715  0.48590454  1
  O2-  O401  1  0.35936594  0.47010038  0.80391098  1
  O2-  O402  1  0.35343215  0.67495165  0.14852217  1
  O2-  O403  1  0.31899900  0.65562836  0.47804201  1
  O2-  O404  1  0.35160945  0.67979900  0.80758801  1
  O2-  O405  1  0.28973757  0.84188442  0.12446302  1
  O2-  O406  1  0.31883947  0.90953710  0.47548173  1
  O2-  O407  1  0.32325767  0.91913608  0.81153632  1
  O2-  O408  1  0.58174505  0.17933206  0.15152803  1
  O2-  O409  1  0.57322046  0.15904188  0.47099532  1
  O2-  O410  1  0.59041422  0.16912207  0.85630191  1
  O2-  O411  1  0.58121807  0.41435895  0.14761935  1
  O2-  O412  1  0.61039508  0.42931639  0.48505655  1
  O2-  O413  1  0.58231417  0.42245076  0.81339991  1
  O2-  O414  1  0.59924924  0.69493202  0.13929940  1
  O2-  O415  1  0.59801444  0.66661167  0.46918967  1
  O2-  O416  1  0.62491028  0.73102259  0.81280379  1
  O2-  O417  1  0.59355045  0.92727189  0.13904605  1
  O2-  O418  1  0.59195750  0.91929962  0.46639698  1
  O2-  O419  1  0.60635046  0.92674807  0.79090701  1
  O2-  O420  1  0.81813066  0.16719656  0.12561861  1
  O2-  O421  1  0.84273017  0.17753155  0.48183732  1
  O2-  O422  1  0.84923574  0.17786106  0.82130388  1
  O2-  O423  1  0.82990986  0.32532073  0.13409042  1
  O2-  O424  1  0.84394850  0.42182160  0.47380994  1
  O2-  O425  1  0.83913816  0.42423052  0.81933057  1
  O2-  O426  1  0.82134895  0.67232035  0.14933237  1
  O2-  O427  1  0.85117159  0.69169093  0.48727712  1
  O2-  O428  1  0.82282939  0.65933807  0.81494120  1
  O2-  O429  1  0.83463183  0.92414229  0.14951351  1
  O2-  O430  1  0.89127464  0.94563940  0.49903563  1
  O2-  O431  1  0.83008211  0.91092047  0.80607532  1
  O2-  O432  1  0.17482151  0.08959398  0.18742021  1
  O2-  O433  1  0.15200295  0.08477454  0.51382875  1
  O2-  O434  1  0.15086298  0.07825705  0.84894497  1
  O2-  O435  1  0.17268986  0.34268088  0.20204556  1
  O2-  O436  1  0.18570523  0.34844176  0.51973669  1
  O2-  O437  1  0.14080370  0.30652604  0.85321826  1
  O2-  O438  1  0.19779832  0.58677641  0.20252015  1
  O2-  O439  1  0.16630951  0.59036044  0.51800774  1
  O2-  O440  1  0.19631409  0.57980359  0.86588486  1
  O2-  O441  1  0.15631009  0.84273998  0.19127554  1
  O2-  O442  1  0.15180616  0.83806233  0.50166845  1
  O2-  O443  1  0.16138326  0.82892802  0.85327614  1
  O2-  O444  1  0.41353399  0.09115812  0.17958471  1
  O2-  O445  1  0.41390124  0.07023416  0.51585000  1
  O2-  O446  1  0.41617783  0.08027757  0.85883413  1
  O2-  O447  1  0.41872415  0.33988167  0.19103677  1
  O2-  O448  1  0.44593163  0.36951432  0.52564081  1
  O2-  O449  1  0.41379910  0.36630559  0.84998464  1
  O2-  O450  1  0.40579944  0.56705524  0.20453664  1
  O2-  O451  1  0.41166826  0.59241520  0.53084327  1
  O2-  O452  1  0.46558115  0.63836612  0.85254878  1
  O2-  O453  1  0.43020213  0.84272504  0.18551489  1
  O2-  O454  1  0.38385364  0.82392850  0.52567097  1
  O2-  O455  1  0.40221087  0.82894983  0.85495718  1
  O2-  O456  1  0.65942720  0.09125905  0.18052187  1
  O2-  O457  1  0.67383823  0.09110441  0.50550022  1
  O2-  O458  1  0.67891968  0.08570578  0.85037492  1
  O2-  O459  1  0.64818988  0.32376078  0.19250278  1
  O2-  O460  1  0.69271675  0.33307632  0.52405422  1
  O2-  O461  1  0.67018254  0.34364746  0.85792841  1
  O2-  O462  1  0.65946091  0.58273271  0.17240946  1
  O2-  O463  1  0.69222415  0.59669685  0.52553635  1
  O2-  O464  1  0.67548320  0.58454162  0.86032800  1
  O2-  O465  1  0.67219081  0.84800602  0.18847853  1
  O2-  O466  1  0.65878922  0.83540080  0.51323010  1
  O2-  O467  1  0.66223163  0.81754012  0.83989540  1
  O2-  O468  1  0.86464370  0.07930261  0.19591933  1
  O2-  O469  1  0.95361901  0.10269741  0.56052057  1
  O2-  O470  1  0.91370133  0.07298703  0.85097296  1
  O2-  O471  1  0.96246543  0.41122329  0.20614238  1
  O2-  O472  1  0.93162863  0.34507330  0.52100391  1
  O2-  O473  1  0.93425857  0.34594712  0.85606604  1
  O2-  O474  1  1.01267558  0.68461472  0.20176044  1
  O2-  O475  1  0.91914210  0.58911909  0.50982009  1
  O2-  O476  1  0.91018055  0.58423230  0.86233889  1
  O2-  O477  1  0.91477655  0.83307335  0.18203831  1
  O2-  O478  1  0.96712264  0.85256888  0.53048201  1
  O2-  O479  1  0.91719147  0.82198251  0.83654854  1
  O2-  O480  1  0.16713222  0.08926316  0.31018674  1
  O2-  O481  1  0.17339486  0.09168172  0.63851507  1
  O2-  O482  1  0.14315657  0.07612522  0.97612355  1
  O2-  O483  1  0.17399643  0.34090291  0.32155873  1
  O2-  O484  1  0.15717400  0.31694382  0.64259882  1
  O2-  O485  1  0.13949736  0.30259897  0.97415437  1
  O2-  O486  1  0.17941474  0.58603091  0.32664644  1
  O2-  O487  1  0.16826782  0.60177017  0.64202809  1
  O2-  O488  1  0.18892382  0.58712285  0.98187363  1
  O2-  O489  1  0.18806585  0.84537574  0.31250254  1
  O2-  O490  1  0.17677360  0.84790866  0.64270644  1
  O2-  O491  1  0.15908778  0.82826579  0.97662784  1
  O2-  O492  1  0.43994284  0.08145394  0.30500480  1
  O2-  O493  1  0.40069210  0.07382269  0.63870334  1
  O2-  O494  1  0.40595164  0.07977834  0.98426918  1
  O2-  O495  1  0.42831387  0.34664309  0.31732436  1
  O2-  O496  1  0.41705017  0.33958906  0.64401840  1
  O2-  O497  1  0.43487023  0.30748099  0.96825987  1
  O2-  O498  1  0.38776345  0.58128044  0.32696259  1
  O2-  O499  1  0.42322796  0.60280666  0.64095028  1
  O2-  O500  1  0.42376838  0.59825038  0.97428645  1
  O2-  O501  1  0.44341922  0.84563843  0.30706031  1
  O2-  O502  1  0.40600174  0.83847648  0.64943823  1
  O2-  O503  1  0.41888337  0.84286660  0.98060702  1
  O2-  O504  1  0.67988064  0.08822006  0.30385040  1
  O2-  O505  1  0.67488813  0.06477877  0.62619742  1
  O2-  O506  1  0.67477503  0.08073341  0.97337942  1
  O2-  O507  1  0.66902482  0.32987943  0.31153058  1
  O2-  O508  1  0.69140535  0.36270513  0.65355473  1
  O2-  O509  1  0.67287838  0.34206030  0.98281594  1
  O2-  O510  1  0.59058767  0.54381070  0.28951366  1
  O2-  O511  1  0.65308532  0.58120435  0.64659050  1
  O2-  O512  1  0.67102125  0.58551159  0.98502926  1
  O2-  O513  1  0.69205183  0.85091401  0.31053365  1
  O2-  O514  1  0.66806044  0.83588196  0.63674110  1
  O2-  O515  1  0.67119241  0.83705071  0.97028179  1
  O2-  O516  1  0.92788670  0.09333892  0.31497389  1
  O2-  O517  1  0.82690750  0.07040572  0.64177243  1
  O2-  O518  1  0.94259146  0.08776900  0.97391597  1
  O2-  O519  1  0.92673627  0.33414821  0.31939857  1
  O2-  O520  1  0.96403260  0.36081779  0.64256603  1
  O2-  O521  1  0.91960838  0.32863541  0.97503910  1
  O2-  O522  1  0.90154291  0.56592960  0.30336495  1
  O2-  O523  1  0.90953250  0.61085581  0.63638353  1
  O2-  O524  1  0.91672223  0.58320511  0.98454506  1
  O2-  O525  1  0.93168744  0.84055835  0.31331778  1
  O2-  O526  1  0.93132098  0.85488890  0.65127464  1
  O2-  O527  1  0.91566112  0.84125868  0.99832340  1
  O2-  O528  1  0.03088012  0.13158412  -0.00197137  1
  O2-  O529  1  0.08989677  0.17382476  0.35412564  1
  O2-  O530  1  0.06671553  0.15104776  0.65811739  1
  O2-  O531  1  0.05661141  0.35687939  0.04258854  1
  O2-  O532  1  0.09044528  0.41915452  0.36241642  1
  O2-  O533  1  0.10444709  0.44903222  0.69143292  1
  O2-  O534  1  0.08818935  0.66050617  0.01782128  1
  O2-  O535  1  0.10046855  0.67212625  0.34428936  1
  O2-  O536  1  0.07898694  0.68713575  0.67510273  1
  O2-  O537  1  0.08075457  0.91583368  0.01970011  1
  O2-  O538  1  0.09954286  0.92123858  0.35588726  1
  O2-  O539  1  0.09848665  0.92505754  0.68305854  1
  O2-  O540  1  0.31577122  0.15862827  0.02233954  1
  O2-  O541  1  0.32764791  0.17545279  0.35823366  1
  O2-  O542  1  0.33423522  0.17256722  0.67989326  1
  O2-  O543  1  0.28712742  0.43820177  0.02716198  1
  O2-  O544  1  0.33720996  0.41674045  0.36109186  1
  O2-  O545  1  0.31040258  0.37385814  0.70828381  1
  O2-  O546  1  0.35004543  0.68204577  0.02631065  1
  O2-  O547  1  0.32144545  0.66160689  0.41117583  1
  O2-  O548  1  0.33601410  0.67451580  0.68731271  1
  O2-  O549  1  0.32540706  0.91256603  0.01669717  1
  O2-  O550  1  0.34936917  0.91861256  0.35462338  1
  O2-  O551  1  0.32383997  0.91583281  0.68419748  1
  O2-  O552  1  0.58818224  0.16710800  -0.02164537  1
  O2-  O553  1  0.59493578  0.16638634  0.34626922  1
  O2-  O554  1  0.53741502  0.10560770  0.70689858  1
  O2-  O555  1  0.58191036  0.41618298  0.02441801  1
  O2-  O556  1  0.59099522  0.41693987  0.35705300  1
  O2-  O557  1  0.57929333  0.41492832  0.68852702  1
  O2-  O558  1  0.58530939  0.67047501  0.01418632  1
  O2-  O559  1  0.61262440  0.69521804  0.34985533  1
  O2-  O560  1  0.58730825  0.68032550  0.68746483  1
  O2-  O561  1  0.58701404  0.91870556  0.01575471  1
  O2-  O562  1  0.60104285  0.92445333  0.34226207  1
  O2-  O563  1  0.57336064  0.90447757  0.67568072  1
  O2-  O564  1  0.84376193  0.15753082  0.00855602  1
  O2-  O565  1  0.84079855  0.17042798  0.35357206  1
  O2-  O566  1  0.85348758  0.21336400  0.69991055  1
  O2-  O567  1  0.83964424  0.40895817  0.02026150  1
  O2-  O568  1  0.83685611  0.41188522  0.35356936  1
  O2-  O569  1  0.70667007  0.23689735  0.70135478  1
  O2-  O570  1  0.83366838  0.66239968  0.03263651  1
  O2-  O571  1  0.79635896  0.64727625  0.31637049  1
  O2-  O572  1  0.81066990  0.69242730  0.70247001  1
  O2-  O573  1  0.83122535  0.92845587  0.02445969  1
  O2-  O574  1  0.85015477  0.92312528  0.35633498  1
  O2-  O575  1  0.83065489  0.92540247  0.68201484  1
