# generated using pymatgen
data_H2O
_symmetry_space_group_name_H-M   'P 1'
_cell_length_a   17.99728720
_cell_length_b   17.99911520
_cell_length_c   22.00808998
_cell_angle_alpha   89.99882401
_cell_angle_beta   90.00642653
_cell_angle_gamma   120.00761185
_symmetry_Int_Tables_number   1
_chemical_formula_structural   H2O
_chemical_formula_sum   'H384 O192'
_cell_volume   6173.59121143
_cell_formula_units_Z   192
loop_
 _symmetry_equiv_pos_site_id
 _symmetry_equiv_pos_as_xyz
  1  'x, y, z'
loop_
 _atom_type_symbol
 _atom_type_oxidation_number
  H+  1.0
  O2-  -2.0
loop_
 _atom_site_type_symbol
 _atom_site_label
 _atom_site_symmetry_multiplicity
 _atom_site_fract_x
 _atom_site_fract_y
 _atom_site_fract_z
 _atom_site_occupancy
  H+  H0  1  0.10770614  0.87742150  0.82059867  1
  H+  H1  1  0.64405265  0.27726957  0.32607838  1
  H+  H2  1  0.27634885  0.63175825  0.16227897  1
  H+  H3  1  0.39881776  0.52684753  0.00394071  1
  H+  H4  1  0.36033758  0.89287670  0.14823736  1
  H+  H5  1  0.85026188  0.43248379  0.78784448  1
  H+  H6  1  0.52428998  0.39325833  0.47209179  1
  H+  H7  1  0.49732923  0.37413529  -0.00581047  1
  H+  H8  1  0.38281611  0.79398728  0.32756733  1
  H+  H9  1  0.89464405  0.36575604  0.84783941  1
  H+  H10  1  0.37023552  0.24016772  1.00850447  1
  H+  H11  1  0.60887948  0.63578959  0.15975926  1
  H+  H12  1  0.64250697  0.27342246  0.84610491  1
  H+  H13  1  0.78879931  0.63959866  0.81729528  1
  H+  H14  1  0.98248314  0.12117821  0.48737235  1
  H+  H15  1  0.90101089  0.86462031  0.49852178  1
  H+  H16  1  0.79874160  0.40017681  0.70058179  1
  H+  H17  1  0.11212424  0.63996722  0.15859331  1
  H+  H18  1  0.35958912  0.22597276  0.83217416  1
  H+  H19  1  0.11453877  0.39011329  0.17002983  1
  H+  H20  1  0.60976260  0.12727103  0.32723102  1
  H+  H21  1  0.97752127  0.86391865  0.84370839  1
  H+  H22  1  0.88210736  0.48945182  0.68568208  1
  H+  H23  1  0.62576881  0.86467594  0.30450353  1
  H+  H24  1  0.61863222  0.73876135  0.31840430  1
  H+  H25  1  0.02540780  0.38830083  0.16407116  1
  H+  H26  1  0.61598437  0.89155404  0.68308072  1
  H+  H27  1  0.88482157  0.52449287  0.51206205  1
  H+  H28  1  0.60397900  0.92312259  0.77923281  1
  H+  H29  1  0.13274875  -0.01122845  0.49626671  1
  H+  H30  1  0.82750663  0.28755312  0.31076767  1
  H+  H31  1  0.78191338  0.13781014  0.83065957  1
  H+  H32  1  0.85677097  0.88320436  0.32657353  1
  H+  H33  1  0.36732205  0.64415357  0.49183448  1
  H+  H34  1  0.08371569  0.39607775  0.32873617  1
  H+  H35  1  1.01971870  0.64632063  0.33473379  1
  H+  H36  1  0.64728115  0.52250395  0.83180869  1
  H+  H37  1  0.61822253  0.39121610  0.32781125  1
  H+  H38  1  0.00041279  0.39899191  0.34078995  1
  H+  H39  1  0.83927026  0.95810311  0.66756125  1
  H+  H40  1  0.10809174  -0.02451275  1.00474324  1
  H+  H41  1  0.89866646  0.08272469  0.44760787  1
  H+  H42  1  0.62041672  0.38581575  0.82734323  1
  H+  H43  1  0.75997279  0.12874099  0.17177831  1
  H+  H44  1  0.47008177  0.11095765  0.51929061  1
  H+  H45  1  0.62943971  0.01525572  0.16828717  1
  H+  H46  1  0.38570624  0.12306822  0.17427766  1
  H+  H47  1  0.27793400  -0.02243956  1.03021687  1
  H+  H48  1  0.14109397  0.36425759  1.00345229  1
  H+  H49  1  0.88795115  0.37431710  0.51168240  1
  H+  H50  1  0.13458212  0.11369152  0.00470241  1
  H+  H51  1  0.90195556  0.32329217  0.26137575  1
  H+  H52  1  0.64117996  0.36375140  0.17807304  1
  H+  H53  1  0.40382975  0.08379941  0.80915688  1
  H+  H54  1  0.89563904  0.61736439  0.50795241  1
  H+  H55  1  0.38616323  0.27239569  0.48894367  1
  H+  H56  1  0.13364056  0.52922740  0.17621399  1
  H+  H57  1  0.28613057  0.40823683  0.67444326  1
  H+  H58  1  0.34449069  0.85252207  0.83076306  1
  H+  H59  1  0.78406343  0.64710357  0.67182680  1
  H+  H60  1  0.11644598  0.72820741  0.82603533  1
  H+  H61  1  0.10908389  0.62443826  0.68119030  1
  H+  H62  1  0.77173398  0.64433894  0.32848781  1
  H+  H63  1  0.72559782  0.54590230  0.54041745  1
  H+  H64  1  0.85382533  0.88482120  0.15965965  1
  H+  H65  1  0.10993071  0.73922995  1.01092382  1
  H+  H66  1  0.21976952  0.08680656  0.66652721  1
  H+  H67  1  0.88404505  1.00756628  0.32000622  1
  H+  H68  1  0.72952081  0.11350278  1.00297033  1
  H+  H69  1  0.12950129  0.13017476  0.33560181  1
  H+  H70  1  0.64298076  0.54213632  0.66522359  1
  H+  H71  1  0.43899610  0.05555158  0.41117379  1
  H+  H72  1  0.89848715  0.36718509  0.67088319  1
  H+  H73  1  0.72805953  0.12437586  0.51990371  1
  H+  H74  1  0.77864625  0.39608262  0.84036822  1
  H+  H75  1  0.36749685  0.48317508  0.47680776  1
  H+  H76  1  0.22618447  0.12307596  0.17190425  1
  H+  H77  1  0.85520074  0.13074068  0.02531953  1
  H+  H78  1  1.01056556  0.89107031  0.67405334  1
  H+  H79  1  0.47708487  0.86926570  0.31777541  1
  H+  H80  1  0.35830731  0.88509596  0.50910941  1
  H+  H81  1  0.64209965  0.52551537  0.17380773  1
  H+  H82  1  0.59399360  0.43097349  0.73799902  1
  H+  H83  1  0.10942177  0.96705621  0.83208701  1
  H+  H84  1  0.81378382  0.14257230  0.36266819  1
  H+  H85  1  0.24909084  0.38209088  0.84744585  1
  H+  H86  1  0.26187295  0.63236479  0.67413715  1
  H+  H87  1  0.13306636  0.73774654  0.49445004  1
  H+  H88  1  0.62427351  0.39217181  1.01446522  1
  H+  H89  1  0.99090101  0.86641039  0.49929189  1
  H+  H90  1  0.08998935  0.88916156  0.16209434  1
  H+  H91  1  0.01462013  0.18533082  0.63539360  1
  H+  H92  1  0.61574005  0.64747940  0.32667685  1
  H+  H93  1  0.31535110  0.13494238  0.74922538  1
  H+  H94  1  0.58894492  0.90494528  0.10502599  1
  H+  H95  1  0.84997064  0.12938677  0.17264418  1
  H+  H96  1  1.00719619  0.20260295  0.66444674  1
  H+  H97  1  0.88300939  0.26979855  0.17661966  1
  H+  H98  1  0.52430656  0.14145552  0.16398381  1
  H+  H99  1  0.39421885  0.52419297  0.18920321  1
  H+  H100  1  1.02312898  0.63485440  0.83177623  1
  H+  H101  1  0.12403142  0.85948023  -0.01232147  1
  H+  H102  1  0.34390425  0.19397116  0.69204214  1
  H+  H103  1  0.34541079  0.36989967  0.02710025  1
  H+  H104  1  0.86880843  0.96867905  0.48515692  1
  H+  H105  1  0.29667806  0.66132503  0.00394345  1
  H+  H106  1  0.27874973  0.64749310  0.33966114  1
  H+  H107  1  0.76881958  0.63801426  1.01005088  1
  H+  H108  1  0.38818477  0.77532643  0.51617958  1
  H+  H109  1  0.40243264  0.37982046  0.28756786  1
  H+  H110  1  0.09869002  0.76806842  0.17863470  1
  H+  H111  1  0.87786775  0.73391994  0.48215442  1
  H+  H112  1  0.64080338  0.89491141  0.84252486  1
  H+  H113  1  0.69905494  0.36196166  0.63531847  1
  H+  H114  1  0.81754041  0.86220106  0.00585796  1
  H+  H115  1  0.88034536  0.64633127  0.82482249  1
  H+  H116  1  0.85870712  0.22365882  0.67270961  1
  H+  H117  1  0.88947634  0.27935786  0.03103298  1
  H+  H118  1  0.64048057  0.11176770  0.00172195  1
  H+  H119  1  0.59421829  0.21550068  0.48745558  1
  H+  H120  1  0.85574846  0.87761865  0.66666439  1
  H+  H121  1  0.38821455  0.92129328  0.35109949  1
  H+  H122  1  0.35062378  0.69166363  0.77040445  1
  H+  H123  1  0.14050167  0.52619905  0.50961486  1
  H+  H124  1  0.17336280  0.25530927  0.67201991  1
  H+  H125  1  0.88269233  0.77782499  0.31465833  1
  H+  H126  1  0.14064012  0.63090382  0.32517866  1
  H+  H127  1  0.15593163  0.61189342  0.83660036  1
  H+  H128  1  0.63483643  0.74206226  0.83582006  1
  H+  H129  1  0.10606488  -0.00945829  0.67639438  1
  H+  H130  1  0.89211252  0.28758796  0.51710365  1
  H+  H131  1  1.02130088  0.63047504  0.68029859  1
  H+  H132  1  0.21435895  0.86337571  0.98931163  1
  H+  H133  1  0.34381011  0.60685626  0.00405255  1
  H+  H134  1  0.61130364  -0.01671302  0.31921383  1
  H+  H135  1  0.22630821  0.11895256  0.00337908  1
  H+  H136  1  0.36521275  0.39289764  0.47274878  1
  H+  H137  1  0.43462919  0.40415981  0.96946081  1
  H+  H138  1  0.64836062  0.28083702  1.00077462  1
  H+  H139  1  0.69358018  0.84779103  0.91373153  1
  H+  H140  1  0.91480109  0.06800509  0.24063155  1
  H+  H141  1  0.22276076  0.84988609  0.83763091  1
  H+  H142  1  0.76836096  0.38698676  0.49211322  1
  H+  H143  1  0.12827592  0.27048233  0.18199745  1
  H+  H144  1  0.53339321  0.12913068  0.83570991  1
  H+  H145  1  0.01191625  0.12452932  0.02190197  1
  H+  H146  1  0.09807345  0.21734181  0.01467184  1
  H+  H147  1  0.88649325  0.36068013  0.17413684  1
  H+  H148  1  0.06284089  0.49558926  -0.02071845  1
  H+  H149  1  0.42268889  0.87154318  0.97798887  1
  H+  H150  1  0.40806970  0.07943405  0.22828080  1
  H+  H151  1  0.39587073  0.36443361  0.83376890  1
  H+  H152  1  0.43385850  0.57977303  0.90492715  1
  H+  H153  1  0.10603255  0.13481790  0.16858019  1
  H+  H154  1  0.14417068  0.37524847  0.50280272  1
  H+  H155  1  0.61759549  0.47855564  0.02192060  1
  H+  H156  1  0.51930993  0.63394817  0.16517771  1
  H+  H157  1  0.89236507  0.27660356  0.84011881  1
  H+  H158  1  0.60973686  0.13437775  0.16489309  1
  H+  H159  1  0.27806108  0.64216395  0.49852740  1
  H+  H160  1  0.84447908  0.08700223  0.65233391  1
  H+  H161  1  0.09507460  0.54600897  0.91958025  1
  H+  H162  1  0.86513829  0.73164333  0.15635191  1
  H+  H163  1  0.17775206  0.50070952  1.02684843  1
  H+  H164  1  0.13671046  0.03235394  0.16880771  1
  H+  H165  1  0.12688859  0.82805311  0.23710504  1
  H+  H166  1  0.62762562  0.96894003  0.01381068  1
  H+  H167  1  0.61597159  -0.01881900  0.68645215  1
  H+  H168  1  0.29564442  0.39716885  0.32212952  1
  H+  H169  1  0.15140984  0.25983659  0.32948665  1
  H+  H170  1  0.62734411  0.65362109  0.67746045  1
  H+  H171  1  0.72974066  0.61653895  0.16984087  1
  H+  H172  1  0.96985219  0.87464532  0.16200898  1
  H+  H173  1  0.62256989  0.74604606  0.67535729  1
  H+  H174  1  0.89949659  1.02867259  0.79565261  1
  H+  H175  1  0.39418170  0.04050658  0.99504371  1
  H+  H176  1  0.62880559  0.62299376  1.01420708  1
  H+  H177  1  0.37469617  0.15484649  0.01080117  1
  H+  H178  1  0.76463467  0.13906613  0.67688773  1
  H+  H179  1  0.85017506  -0.00335529  1.01641641  1
  H+  H180  1  0.72278762  0.86337761  0.20597907  1
  H+  H181  1  0.64049140  0.88609165  1.01381593  1
  H+  H182  1  0.52960429  0.42255878  0.68665141  1
  H+  H183  1  0.90393346  0.10701873  0.32394316  1
  H+  H184  1  0.13592191  0.54108410  0.32777659  1
  H+  H185  1  0.88533649  0.52334237  0.17029201  1
  H+  H186  1  0.83678155  0.67580374  0.38559021  1
  H+  H187  1  0.89608266  0.06288431  0.96448472  1
  H+  H188  1  0.43112396  0.30357922  0.63766095  1
  H+  H189  1  0.62881282  0.11192644  0.67128337  1
  H+  H190  1  0.10752348  0.38170362  0.82042055  1
  H+  H191  1  0.89826418  0.11563548  0.79566616  1
  H+  H192  1  0.01755455  0.64463939  0.01194577  1
  H+  H193  1  0.46860594  0.87126899  0.17141229  1
  H+  H194  1  0.86588114  0.42494304  -0.06011143  1
  H+  H195  1  0.78792939  0.64697007  0.48113764  1
  H+  H196  1  0.72275124  0.86009770  0.66070868  1
  H+  H197  1  0.53729787  0.14862149  0.01219230  1
  H+  H198  1  0.67097662  0.07910410  0.91149819  1
  H+  H199  1  0.89416666  0.77538604  0.65433787  1
  H+  H200  1  0.60589991  0.68952121  0.74370257  1
  H+  H201  1  0.88621825  0.62026523  -0.00140795  1
  H+  H202  1  0.23245124  0.37470868  0.49497429  1
  H+  H203  1  0.58648121  0.42641026  0.41468184  1
  H+  H204  1  0.62970134  0.73989715  1.01799838  1
  H+  H205  1  0.36748983  -0.03194526  0.67930284  1
  H+  H206  1  0.02415877  0.39517182  0.49863408  1
  H+  H207  1  0.59291050  0.68478177  0.42185170  1
  H+  H208  1  0.60096109  0.13330960  0.50223501  1
  H+  H209  1  0.49077561  0.87640707  0.67065330  1
  H+  H210  1  0.13622732  0.78136837  0.32956361  1
  H+  H211  1  0.48310621  0.62044920  1.00322066  1
  H+  H212  1  0.35615461  0.97878092  0.15006894  1
  H+  H213  1  0.62968484  0.36386056  0.48651149  1
  H+  H214  1  0.38287678  0.47779094  0.83273886  1
  H+  H215  1  0.01822685  0.63282217  0.15744040  1
  H+  H216  1  0.13175441  0.85670828  0.52564919  1
  H+  H217  1  0.72785612  0.87055898  0.50674614  1
  H+  H218  1  0.89304158  0.61496792  0.66268267  1
  H+  H219  1  0.36701950  0.23729046  0.17250988  1
  H+  H220  1  0.86696706  0.88529764  0.82610210  1
  H+  H221  1  0.64565781  0.51770969  0.49968302  1
  H+  H222  1  0.32015014  0.93144852  0.06559133  1
  H+  H223  1  0.14237791  1.02240561  0.32156492  1
  H+  H224  1  0.61828606  0.36796771  0.65524143  1
  H+  H225  1  0.17787580  0.08607680  0.26433567  1
  H+  H226  1  0.39144153  0.87425824  0.66935779  1
  H+  H227  1  0.03861628  0.12661889  0.33222094  1
  H+  H228  1  0.86847689  0.14652368  0.50765012  1
  H+  H229  1  0.38868465  0.37121932  0.19365028  1
  H+  H230  1  0.36400377  0.14285342  0.50124071  1
  H+  H231  1  0.88678088  0.53637409  0.32486439  1
  H+  H232  1  0.63502618  -0.01004759  0.84253309  1
  H+  H233  1  0.88670161  0.62471028  0.31741287  1
  H+  H234  1  0.15886669  0.12571907  0.66657063  1
  H+  H235  1  0.86829729  0.40668538  0.34083563  1
  H+  H236  1  0.26410031  0.37961389  1.01796979  1
  H+  H237  1  0.82904686  0.17113029  0.76636173  1
  H+  H238  1  0.02756602  0.38312635  0.67039794  1
  H+  H239  1  0.11092470  0.43788605  0.07575169  1
  H+  H240  1  0.39525326  0.53881705  0.65139110  1
  H+  H241  1  0.84804345  0.67584543  0.72901046  1
  H+  H242  1  0.20915776  0.43195368  0.87733412  1
  H+  H243  1  0.89700074  0.53580510  0.99007781  1
  H+  H244  1  0.26904384  0.38061057  0.17445706  1
  H+  H245  1  0.28223539  0.12366452  0.34327480  1
  H+  H246  1  0.01573466  0.88871767  0.00448803  1
  H+  H247  1  0.31553037  0.72116043  0.86506369  1
  H+  H248  1  0.60253744  0.22487656  0.67927791  1
  H+  H249  1  0.69902268  0.07129030  0.31562367  1
  H+  H250  1  0.37002851  0.40162640  0.67998282  1
  H+  H251  1  0.47550395  0.86696050  0.51538080  1
  H+  H252  1  0.64127092  0.10702893  0.84962717  1
  H+  H253  1  0.15817665  0.82160548  0.89510071  1
  H+  H254  1  0.15095953  0.37580478  0.65698174  1
  H+  H255  1  0.97558468  0.10439148  0.17545016  1
  H+  H256  1  0.14722403  0.61812614  0.50801285  1
  H+  H257  1  0.22392948  0.87294513  0.32607985  1
  H+  H258  1  0.77199907  0.38302247  0.16218562  1
  H+  H259  1  0.22910754  0.11386678  0.51126038  1
  H+  H260  1  0.16729739  0.34816475  0.35481477  1
  H+  H261  1  0.10968992  0.23143733  0.82246756  1
  H+  H262  1  0.11271196  0.23852562  0.48871602  1
  H+  H263  1  1.01986560  0.38404081  0.82462838  1
  H+  H264  1  0.14603781  0.52123387  0.83709159  1
  H+  H265  1  0.89328455  0.22941523  0.34537499  1
  H+  H266  1  0.07998069  0.67583729  0.07817738  1
  H+  H267  1  0.10485790  0.88893051  0.33742865  1
  H+  H268  1  0.73703164  0.36927311  0.98802466  1
  H+  H269  1  0.62002036  0.65516000  0.48141604  1
  H+  H270  1  0.60694639  0.88165471  0.17222491  1
  H+  H271  1  0.89045074  0.77571783  0.84168544  1
  H+  H272  1  0.74338367  0.87224835  0.84818627  1
  H+  H273  1  0.09166870  0.17560834  0.43135859  1
  H+  H274  1  0.52854059  0.39046712  0.17369568  1
  H+  H275  1  0.63598996  0.65336443  0.82708801  1
  H+  H276  1  0.97072266  0.86813385  0.31714194  1
  H+  H277  1  0.87890769  0.77612138  -0.00293729  1
  H+  H278  1  0.47569609  0.61876216  0.49657357  1
  H+  H279  1  0.40371270  0.79808863  0.88748201  1
  H+  H280  1  0.15951752  0.58194756  0.60481633  1
  H+  H281  1  0.61695078  0.89820739  0.49756174  1
  H+  H282  1  0.50756130  0.86742763  0.97781437  1
  H+  H283  1  0.34311804  0.13441865  0.85229725  1
  H+  H284  1  0.89785941  0.53544340  0.85161203  1
  H+  H285  1  0.20590012  0.09955211  0.84826125  1
  H+  H286  1  0.38085929  0.09489720  0.67517788  1
  H+  H287  1  0.64083509  0.03417559  0.51794188  1
  H+  H288  1  0.39648116  0.53570188  0.33219615  1
  H+  H289  1  0.07210401  0.16297381  0.11045399  1
  H+  H290  1  0.49194511  0.61364897  0.84537046  1
  H+  H291  1  0.16882350  0.33206372  0.94458258  1
  H+  H292  1  0.08547882  0.41499022  0.73004443  1
  H+  H293  1  0.22238901  0.86172165  0.52372177  1
  H+  H294  1  0.40853717  0.85491595  0.22809389  1
  H+  H295  1  0.82255717  0.16219743  0.08097212  1
  H+  H296  1  0.43170996  0.09851924  0.93694619  1
  H+  H297  1  0.07209341  0.92296719  0.39242143  1
  H+  H298  1  0.64639010  0.06498830  0.23071975  1
  H+  H299  1  0.91883655  0.34090000  0.60601263  1
  H+  H300  1  0.76974421  0.88780671  0.32137853  1
  H+  H301  1  0.39130091  0.63002781  0.34194751  1
  H+  H302  1  0.16319714  0.32940312  0.24100154  1
  H+  H303  1  0.84855566  0.18543276  0.45209389  1
  H+  H304  1  0.41487766  0.07716875  0.61243878  1
  H+  H305  1  0.86709023  0.64253032  0.15842769  1
  H+  H306  1  0.19266083  0.72485834  0.44988531  1
  H+  H307  1  0.33305547  0.15998930  0.43639976  1
  H+  H308  1  0.63697133  0.53232548  0.31904783  1
  H+  H309  1  0.07973669  0.65879933  0.76201731  1
  H+  H310  1  0.16759861  0.07518478  0.56954859  1
  H+  H311  1  0.93451950  0.60416860  0.90571496  1
  H+  H312  1  0.58160502  0.41107506  0.11108938  1
  H+  H313  1  0.82681743  0.90069927  0.76486487  1
  H+  H314  1  0.69714047  0.58773743  0.88529965  1
  H+  H315  1  0.91677843  0.58585399  0.22818845  1
  H+  H316  1  0.33020431  0.41177100  0.11682351  1
  H+  H317  1  0.90729242  0.83582068  0.93843136  1
  H+  H318  1  0.64047712  0.27386767  0.17723576  1
  H+  H319  1  0.77541078  0.39738751  0.34127629  1
  H+  H320  1  0.87824058  0.39431184  0.00336141  1
  H+  H321  1  0.07648998  0.42367092  0.43632188  1
  H+  H322  1  0.03406942  0.14638515  0.79351158  1
  H+  H323  1  0.83419254  0.42401764  0.43698236  1
  H+  H324  1  0.83351583  0.40879569  0.10416826  1
  H+  H325  1  0.67007844  0.59560461  0.60375934  1
  H+  H326  1  0.51843112  0.13295108  0.68381511  1
  H+  H327  1  0.63733077  0.78640576  0.50229048  1
  H+  H328  1  0.96526539  0.08025169  0.89809042  1
  H+  H329  1  0.83143090  0.66904377  0.06736854  1
  H+  H330  1  0.08304079  0.67555606  0.39376530  1
  H+  H331  1  0.37886867  0.02391557  0.52252647  1
  H+  H332  1  0.97824115  0.36517969  1.02319181  1
  H+  H333  1  0.34234260  0.18711739  0.10834589  1
  H+  H334  1  0.53109362  0.38664336  0.82446611  1
  H+  H335  1  0.92065234  0.58143765  0.60437293  1
  H+  H336  1  0.83080841  0.90581920  0.42900096  1
  H+  H337  1  0.49312720  0.63482609  0.33655418  1
  H+  H338  1  0.07180170  0.92034125  0.73975823  1
  H+  H339  1  0.93151228  0.09304849  0.89318452  1
  H+  H340  1  0.35235162  0.42661511  0.38065901  1
  H+  H341  1  0.33335928  0.92027792  0.45045816  1
  H+  H342  1  0.16611353  0.59492771  0.23200541  1
  H+  H343  1  0.66782911  0.59240093  0.26055547  1
  H+  H344  1  0.14743443  0.20110221  0.73407460  1
  H+  H345  1  0.58332979  0.67532059  0.07673009  1
  H+  H346  1  0.18637887  0.35400669  0.59644333  1
  H+  H347  1  0.38687101  -0.00049801  0.84085254  1
  H+  H348  1  0.92679943  0.83639627  0.59492547  1
  H+  H349  1  0.66648204  0.33429200  0.90448058  1
  H+  H350  1  0.33535044  0.28080619  0.63380829  1
  H+  H351  1  0.67738010  0.33841446  0.26867036  1
  H+  H352  1  0.15696314  0.93181807  0.45324934  1
  H+  H353  1  0.38520966  0.62010761  0.64665626  1
  H+  H354  1  0.64292540  0.32929377  0.54936052  1
  H+  H355  1  0.42881379  0.84254459  0.60613680  1
  H+  H356  1  0.33526166  0.67860297  0.40069074  1
  H+  H357  1  0.59098138  0.16575542  0.77691173  1
  H+  H358  1  0.43018061  0.33514726  0.89128184  1
  H+  H359  1  0.07888323  0.92466971  0.09724294  1
  H+  H360  1  0.53083167  0.39107403  0.31516022  1
  H+  H361  1  0.34389613  0.42428994  0.77112088  1
  H+  H362  1  0.33178133  0.89753959  0.77209090  1
  H+  H363  1  0.56978552  0.86601952  0.37009785  1
  H+  H364  1  0.62297530  0.56849833  0.95738567  1
  H+  H365  1  0.91270531  0.83954515  0.22231133  1
  H+  H366  1  0.35727310  0.10457285  0.35961720  1
  H+  H367  1  0.38982299  0.60840042  0.18186546  1
  H+  H368  1  0.65906602  0.08308700  0.61151616  1
  H+  H369  1  0.88693581  0.06317544  0.59845988  1
  H+  H370  1  0.52846355  0.13373354  0.34185879  1
  H+  H371  1  0.58495030  0.93831615  0.44563497  1
  H+  H372  1  0.59323551  0.17458557  0.07296619  1
  H+  H373  1  0.17238825  0.82597626  0.61839297  1
  H+  H374  1  0.42218847  0.34660559  0.53879022  1
  H+  H375  1  0.14888588  0.76692096  0.67650308  1
  H+  H376  1  0.87688306  0.00765437  0.17277891  1
  H+  H377  1  0.32219081  0.63368554  0.10173070  1
  H+  H378  1  0.27844658  0.87328812  0.67867124  1
  H+  H379  1  0.13061084  0.51814126  0.66269709  1
  H+  H380  1  0.66014938  0.83550157  0.60260434  1
  H+  H381  1  0.41487568  0.58544535  0.55559548  1
  H+  H382  1  0.15546239  0.06462715  0.90999344  1
  H+  H383  1  0.80232426  0.90627713  0.10927519  1
  O2-  O384  1  0.06908681  0.16027563  0.15619136  1
  O2-  O385  1  0.07616478  0.17873218  0.47394925  1
  O2-  O386  1  0.09826678  0.18129706  0.79872850  1
  O2-  O387  1  0.08699187  0.42176924  0.15272007  1
  O2-  O388  1  0.08349807  0.42324064  0.48079871  1
  O2-  O389  1  0.07998832  0.41372785  0.80574692  1
  O2-  O390  1  0.07904331  0.66771378  0.14226396  1
  O2-  O391  1  0.13418746  0.69465077  0.46586213  1
  O2-  O392  1  0.08337924  0.66439115  0.81168819  1
  O2-  O393  1  0.07586310  0.93137181  0.14195829  1
  O2-  O394  1  0.10804469  0.92802282  0.47526880  1
  O2-  O395  1  0.07790952  0.90933894  0.80947325  1
  O2-  O396  1  0.33652263  0.17950376  0.15325029  1
  O2-  O397  1  0.33511300  0.17190602  0.48207105  1
  O2-  O398  1  0.32268495  0.16249507  0.82438669  1
  O2-  O399  1  0.33033908  0.40760413  0.16175216  1
  O2-  O400  1  0.33662768  0.42462671  0.45782525  1
  O2-  O401  1  0.34730183  0.41706071  0.81601561  1
  O2-  O402  1  0.33239778  0.64498219  0.14556596  1
  O2-  O403  1  0.33722919  0.67701020  0.48126615  1
  O2-  O404  1  0.31942447  0.63645442  0.74907198  1
  O2-  O405  1  0.32912671  0.92195986  0.13053302  1
  O2-  O406  1  0.32591620  0.91381968  0.49552186  1
  O2-  O407  1  0.32691420  0.89519959  0.81739691  1
  O2-  O408  1  0.58560431  0.17102983  0.15091019  1
  O2-  O409  1  0.56168946  0.15204144  0.48569402  1
  O2-  O410  1  0.59396065  0.16401611  0.82230322  1
  O2-  O411  1  0.58728976  0.41533518  0.15615286  1
  O2-  O412  1  0.58621139  0.42495034  0.46038660  1
  O2-  O413  1  0.59292482  0.41870063  0.81096994  1
  O2-  O414  1  0.57716819  0.66379237  0.14482812  1
  O2-  O415  1  0.58964255  0.68415947  0.46733639  1
  O2-  O416  1  0.60743620  0.68562657  0.81369189  1
  O2-  O417  1  0.58341868  0.91266982  0.14955550  1
  O2-  O418  1  0.58360760  0.92866804  0.48941245  1
  O2-  O419  1  0.60997693  0.92619609  0.82512988  1
  O2-  O420  1  0.82283228  0.16242938  0.15948690  1
  O2-  O421  1  0.84010846  0.18016668  0.49640067  1
  O2-  O422  1  0.83851247  0.17273347  0.81139606  1
  O2-  O423  1  0.83422434  0.41293921  0.14839885  1
  O2-  O424  1  0.83084724  0.41843014  0.48210555  1
  O2-  O425  1  0.84186851  0.43094650  0.83268224  1
  O2-  O426  1  0.83492333  0.67040804  0.14268405  1
  O2-  O427  1  0.84665257  0.67481637  0.46442445  1
  O2-  O428  1  0.85028512  0.67450575  0.80566056  1
  O2-  O429  1  0.82218184  0.91780815  0.15220556  1
  O2-  O430  1  0.83564692  0.90659575  0.47400427  1
  O2-  O431  1  0.83296807  0.91099457  0.80962235  1
  O2-  O432  1  0.16573408  0.09175752  0.18691322  1
  O2-  O433  1  0.16909211  0.07420220  0.52451881  1
  O2-  O434  1  0.15197582  0.05407192  0.86565679  1
  O2-  O435  1  0.16115244  0.33119127  0.19598498  1
  O2-  O436  1  0.17579987  0.34567043  0.51589722  1
  O2-  O437  1  0.19505184  0.37326716  0.86804617  1
  O2-  O438  1  0.16136311  0.59129116  0.18692353  1
  O2-  O439  1  0.17242971  0.58555370  0.52695159  1
  O2-  O440  1  0.17573568  0.57760318  0.85833524  1
  O2-  O441  1  0.09328204  0.81380926  0.19922701  1
  O2-  O442  1  0.16178976  0.82586584  0.53844160  1
  O2-  O443  1  0.16015798  0.81938194  0.84961748  1
  O2-  O444  1  0.41527114  0.08987358  0.18464213  1
  O2-  O445  1  0.40975460  0.08436071  0.53692416  1
  O2-  O446  1  0.41706971  0.06378531  0.84669043  1
  O2-  O447  1  0.42502211  0.34447605  0.20621345  1
  O2-  O448  1  0.41827331  0.33796064  0.49503333  1
  O2-  O449  1  0.42620252  0.33165752  0.84627866  1
  O2-  O450  1  0.42414321  0.58485219  0.20144388  1
  O2-  O451  1  0.41494038  0.58538545  0.50915960  1
  O2-  O452  1  0.43407374  0.57287337  0.86018400  1
  O2-  O453  1  0.40887196  0.85210711  0.18342820  1
  O2-  O454  1  0.41710497  0.83528377  0.53368654  1
  O2-  O455  1  0.36581047  0.77393351  0.85103431  1
  O2-  O456  1  0.65680421  0.07521030  0.18603639  1
  O2-  O457  1  0.66768219  0.09351441  0.53436107  1
  O2-  O458  1  0.67016867  0.07551396  0.86525283  1
  O2-  O459  1  0.67444652  0.33529708  0.19095967  1
  O2-  O460  1  0.65635606  0.33227506  0.50572350  1
  O2-  O461  1  0.66905350  0.33477235  0.85883234  1
  O2-  O462  1  0.67016969  0.58679771  0.18650655  1
  O2-  O463  1  0.68832333  0.56707809  0.52565643  1
  O2-  O464  1  0.68199185  0.58552357  0.84248477  1
  O2-  O465  1  0.66294507  0.83736636  0.22072035  1
  O2-  O466  1  0.66739579  0.84473605  0.52115355  1
  O2-  O467  1  0.68452480  0.84549117  0.86791400  1
  O2-  O468  1  0.91253790  0.07006271  0.19168870  1
  O2-  O469  1  0.91574292  0.08172043  0.48955905  1
  O2-  O470  1  0.92943110  0.08769216  0.77942564  1
  O2-  O471  1  0.91554744  0.33037897  0.19182983  1
  O2-  O472  1  0.92276177  0.34947763  0.52853345  1
  O2-  O473  1  0.92736764  0.33639102  0.85570947  1
  O2-  O474  1  0.91690205  0.58478225  0.18259213  1
  O2-  O475  1  0.91492149  0.58266272  0.53050625  1
  O2-  O476  1  0.93326689  0.59883231  0.86004701  1
  O2-  O477  1  0.90900434  0.83926908  0.17684016  1
  O2-  O478  1  0.93160982  0.83527495  0.51487805  1
  O2-  O479  1  0.91703934  0.83470885  0.85886696  1
  O2-  O480  1  0.17986399  0.08383167  0.30976567  1
  O2-  O481  1  0.16189244  0.07230766  0.65106216  1
  O2-  O482  1  0.16588795  0.08465575  0.98969897  1
  O2-  O483  1  0.18052906  0.32376164  0.31976001  1
  O2-  O484  1  0.19004592  0.35539851  0.64164662  1
  O2-  O485  1  0.16184955  0.32457735  0.98949562  1
  O2-  O486  1  0.17205240  0.60032932  0.31290370  1
  O2-  O487  1  0.15727965  0.58047224  0.65031196  1
  O2-  O488  1  0.04727674  0.52520630  0.94902667  1
  O2-  O489  1  0.16268407  0.84297148  0.31607590  1
  O2-  O490  1  0.18320123  0.82714400  0.66271061  1
  O2-  O491  1  0.15383215  0.82720956  0.97434909  1
  O2-  O492  1  0.41465748  0.04132990  0.36972067  1
  O2-  O493  1  0.41658670  0.07142952  0.65809558  1
  O2-  O494  1  0.43115617  0.10162315  0.98149235  1
  O2-  O495  1  0.42662542  0.34343688  0.27366461  1
  O2-  O496  1  0.38415197  0.30073359  0.66167234  1
  O2-  O497  1  0.43956416  0.35267698  0.97320283  1
  O2-  O498  1  0.42660235  0.59939754  0.34298486  1
  O2-  O499  1  0.41665322  0.59327010  0.62878637  1
  O2-  O500  1  0.42432987  0.58427764  0.98528772  1
  O2-  O501  1  0.41528770  0.85498368  0.31540895  1
  O2-  O502  1  0.43085791  0.84848372  0.65244195  1
  O2-  O503  1  0.45678365  0.85577111  0.95246619  1
  O2-  O504  1  0.63836607  0.04809105  0.30760243  1
  O2-  O505  1  0.65733676  0.07960246  0.65709697  1
  O2-  O506  1  0.66986952  0.08112634  0.98585079  1
  O2-  O507  1  0.67611686  0.33953402  0.31426782  1
  O2-  O508  1  0.63659416  0.32913121  0.63642245  1
  O2-  O509  1  0.67335916  0.33998589  0.98286372  1
  O2-  O510  1  0.66630866  0.59386552  0.30660206  1
  O2-  O511  1  0.67217924  0.60198919  0.64865808  1
  O2-  O512  1  0.65126786  0.58362386  0.99682808  1
  O2-  O513  1  0.67098303  0.83924815  0.28813803  1
  O2-  O514  1  0.66001857  0.83343107  0.64803154  1
  O2-  O515  1  0.69871084  0.84290456  0.99165519  1
  O2-  O516  1  0.92280988  0.06961186  0.30411545  1
  O2-  O517  1  0.84167988  0.03822475  0.62883804  1
  O2-  O518  1  0.89241225  0.05924477  1.00896704  1
  O2-  O519  1  0.89014754  0.31648471  0.30785411  1
  O2-  O520  1  0.91971984  0.33205636  0.65092107  1
  O2-  O521  1  0.91935416  0.34273443  1.03728528  1
  O2-  O522  1  0.91892219  0.59439901  0.30594988  1
  O2-  O523  1  0.92246822  0.58254995  0.65064758  1
  O2-  O524  1  0.92519084  0.59918667  0.98311830  1
  O2-  O525  1  0.91129146  0.83899046  0.30009364  1
  O2-  O526  1  0.92157170  0.83659902  0.64019189  1
  O2-  O527  1  0.90468326  0.83707659  0.98374764  1
  O2-  O528  1  0.07324107  0.15904188  0.03350584  1
  O2-  O529  1  0.09713992  0.16028060  0.34897031  1
  O2-  O530  1  0.17869631  0.21019346  0.69404581  1
  O2-  O531  1  0.12424414  0.44480460  0.03121148  1
  O2-  O532  1  0.06137175  0.42652319  0.35240095  1
  O2-  O533  1  0.08851289  0.41706778  0.68429269  1
  O2-  O534  1  0.07845391  0.67910259  0.02962158  1
  O2-  O535  1  0.08133958  0.67694727  0.34867313  1
  O2-  O536  1  0.08000172  0.65577592  0.69952484  1
  O2-  O537  1  0.07729419  0.91359810  0.01678171  1
  O2-  O538  1  0.07316667  0.92014675  0.34760907  1
  O2-  O539  1  0.07011317  0.92619913  0.69324123  1
  O2-  O540  1  0.34216944  0.18224926  0.02654992  1
  O2-  O541  1  0.33746398  0.14610934  0.36546015  1
  O2-  O542  1  0.31934880  0.13316511  0.70396833  1
  O2-  O543  1  0.32472863  0.41004190  0.03413900  1
  O2-  O544  1  0.35628677  0.43299092  0.33506749  1
  O2-  O545  1  0.34545264  0.43674056  0.69311389  1
  O2-  O546  1  0.29223994  0.60848249  0.01934239  1
  O2-  O547  1  0.33902470  0.67759449  0.35530311  1
  O2-  O548  1  0.32429575  0.66458177  0.68545664  1
  O2-  O549  1  0.30782484  0.94614549  0.02109700  1
  O2-  O550  1  0.35659743  0.94707224  0.37338060  1
  O2-  O551  1  0.34209901  0.90651429  0.69285720  1
  O2-  O552  1  0.59736934  0.17654092  0.02739284  1
  O2-  O553  1  0.59020532  0.16886865  0.33484500  1
  O2-  O554  1  0.57956372  0.16779746  0.69831211  1
  O2-  O555  1  0.58808690  0.41571639  0.03092391  1
  O2-  O556  1  0.58589790  0.42172244  0.33764815  1
  O2-  O557  1  0.58940240  0.43783075  0.69239662  1
  O2-  O558  1  0.58919245  0.67811669  0.02968805  1
  O2-  O559  1  0.58873663  0.68201467  0.34096772  1
  O2-  O560  1  0.60086870  0.68652375  0.69659801  1
  O2-  O561  1  0.59981787  0.90776213  0.02587131  1
  O2-  O562  1  0.57692965  0.88948299  0.32931413  1
  O2-  O563  1  0.58708483  0.92042764  0.70296554  1
  O2-  O564  1  0.82886759  0.16641299  0.03582958  1
  O2-  O565  1  0.87611401  0.17435781  0.36698159  1
  O2-  O566  1  0.82596630  0.16402292  0.68897691  1
  O2-  O567  1  0.84988867  0.42425246  -0.01752394  1
  O2-  O568  1  0.83630900  0.43334788  0.35706663  1
  O2-  O569  1  0.86017702  0.43297548  0.70832655  1
  O2-  O570  1  0.83030678  0.66761229  0.02142907  1
  O2-  O571  1  0.83413498  0.67569110  0.34022312  1
  O2-  O572  1  0.84552080  0.67434951  0.68333222  1
  O2-  O573  1  0.78440809  0.88759665  0.02416088  1
  O2-  O574  1  0.82736198  0.91482711  0.34222602  1
  O2-  O575  1  0.81998625  0.89941308  0.68548087  1
