# generated using pymatgen
data_H2O
_symmetry_space_group_name_H-M   'P 1'
_cell_length_a   17.99351736
_cell_length_b   17.98890190
_cell_length_c   22.01231332
_cell_angle_alpha   90.03839877
_cell_angle_beta   89.97195349
_cell_angle_gamma   119.99154423
_symmetry_Int_Tables_number   1
_chemical_formula_structural   H2O
_chemical_formula_sum   'H384 O192'
_cell_volume   6170.97705862
_cell_formula_units_Z   192
loop_
 _symmetry_equiv_pos_site_id
 _symmetry_equiv_pos_as_xyz
  1  'x, y, z'
loop_
 _atom_type_symbol
 _atom_type_oxidation_number
  H+  1.0
  O2-  -2.0
loop_
 _atom_site_type_symbol
 _atom_site_label
 _atom_site_symmetry_multiplicity
 _atom_site_fract_x
 _atom_site_fract_y
 _atom_site_fract_z
 _atom_site_occupancy
  H+  H0  1  0.87105210  -0.02599902  0.15303106  1
  H+  H1  1  0.42161536  0.83758276  0.23080731  1
  H+  H2  1  0.22768700  0.38049603  0.01357880  1
  H+  H3  1  0.38153946  0.23066788  0.34044935  1
  H+  H4  1  0.47882753  0.86096763  0.50516762  1
  H+  H5  1  0.89922618  0.63677038  0.84332235  1
  H+  H6  1  0.38132087  0.78076202  0.83812238  1
  H+  H7  1  0.63686763  0.11387366  0.99301078  1
  H+  H8  1  0.97751808  0.37338984  0.02151643  1
  H+  H9  1  0.36330363  0.89500543  0.82685418  1
  H+  H10  1  0.48602042  0.60388684  0.50492493  1
  H+  H11  1  0.53033961  0.65833032  0.98536123  1
  H+  H12  1  0.87981810  0.87156297  0.16669878  1
  H+  H13  1  0.51536191  0.13542618  0.00259474  1
  H+  H14  1  0.61019809  0.61348710  0.82912662  1
  H+  H15  1  0.48399178  0.13274777  0.65658077  1
  H+  H16  1  0.22227542  0.40056701  1.04189956  1
  H+  H17  1  0.37761743  0.41048949  0.00917299  1
  H+  H18  1  0.73963578  0.41761128  0.81977416  1
  H+  H19  1  0.21860721  0.60278031  0.65739316  1
  H+  H20  1  0.48577207  0.12011511  0.50010798  1
  H+  H21  1  0.36005460  0.97453011  0.15686689  1
  H+  H22  1  0.14292284  0.79052758  0.84813345  1
  H+  H23  1  0.89178260  0.12115742  0.17041661  1
  H+  H24  1  0.58062177  0.22490891  0.03153744  1
  H+  H25  1  0.14098237  0.86472664  0.33030129  1
  H+  H26  1  0.57925606  0.37871578  0.66732472  1
  H+  H27  1  0.75341537  0.62407031  0.66313064  1
  H+  H28  1  0.11423309  0.63659858  0.33845494  1
  H+  H29  1  0.71612306  0.54165554  0.30151719  1
  H+  H30  1  0.71617861  0.41951142  0.62900400  1
  H+  H31  1  0.48224365  0.86672270  0.32554799  1
  H+  H32  1  0.77311008  0.14105768  1.00350505  1
  H+  H33  1  0.23246210  0.36058861  0.66724595  1
  H+  H34  1  0.61771261  0.02312118  0.66406362  1
  H+  H35  1  0.87786114  0.48393490  0.47929482  1
  H+  H36  1  0.01491131  0.62584320  0.65054481  1
  H+  H37  1  0.38560549  0.27869574  0.64776677  1
  H+  H38  1  0.63499778  0.87190018  0.83936748  1
  H+  H39  1  0.85484714  0.47557992  1.00568274  1
  H+  H40  1  0.13513349  0.02420308  0.32729563  1
  H+  H41  1  0.62388995  0.90133166  0.15003730  1
  H+  H42  1  0.63242758  0.53561247  0.17411900  1
  H+  H43  1  0.36356844  0.22448418  0.16236618  1
  H+  H44  1  0.88654552  0.85600875  0.50729681  1
  H+  H45  1  0.61362702  0.89611645  0.00399112  1
  H+  H46  1  0.64805996  0.39183555  -0.00286284  1
  H+  H47  1  0.10826279  0.37875067  0.16016294  1
  H+  H48  1  0.62363838  0.90468470  0.34814114  1
  H+  H49  1  0.85212630  0.38664915  0.16041438  1
  H+  H50  1  0.13282350  0.52134195  1.01143478  1
  H+  H51  1  0.84392373  0.86305995  0.82148029  1
  H+  H52  1  0.18048791  0.40221781  0.52121054  1
  H+  H53  1  0.62327289  0.24645688  0.17927232  1
  H+  H54  1  0.40548857  0.33234187  0.49135480  1
  H+  H55  1  0.90031552  0.38749899  0.80318369  1
  H+  H56  1  0.27248032  0.88428095  0.15903371  1
  H+  H57  1  0.17845587  0.59573746  0.23685785  1
  H+  H58  1  0.84608045  0.14993000  0.76312251  1
  H+  H59  1  0.72539065  0.62215466  0.17571189  1
  H+  H60  1  0.37946950  0.46847517  0.49501632  1
  H+  H61  1  0.33716494  0.92740243  0.76568810  1
  H+  H62  1  0.38519071  0.36033211  0.17586862  1
  H+  H63  1  0.38817379  0.02448016  0.98794231  1
  H+  H64  1  -0.01644608  0.63116103  0.84061843  1
  H+  H65  1  0.42223232  0.19985967  0.49667808  1
  H+  H66  1  0.86491045  0.45185475  0.32660084  1
  H+  H67  1  0.13526765  0.76791727  0.65414445  1
  H+  H68  1  0.63685829  0.20235117  0.33776580  1
  H+  H69  1  0.08857474  0.66911903  0.39867600  1
  H+  H70  1  0.85715019  0.88782056  1.00608958  1
  H+  H71  1  0.28378334  0.89753953  0.49250577  1
  H+  H72  1  0.12170224  0.73626697  0.49441114  1
  H+  H73  1  0.62100903  0.54448293  1.00386557  1
  H+  H74  1  0.10266365  0.13832255  0.35257954  1
  H+  H75  1  0.85744072  0.95803366  0.83128884  1
  H+  H76  1  0.63917951  0.37821143  0.50433061  1
  H+  H77  1  0.87305316  0.60541700  0.64600364  1
  H+  H78  1  0.13653554  0.94794163  0.83321898  1
  H+  H79  1  0.63711022  0.28107126  0.82060661  1
  H+  H80  1  0.02978081  0.88067184  0.67249068  1
  H+  H81  1  0.51244098  0.87684155  0.67664829  1
  H+  H82  1  0.07658955  0.25364015  0.98166608  1
  H+  H83  1  0.88007814  0.02255004  1.00070137  1
  H+  H84  1  0.67066842  0.24322319  0.96785686  1
  H+  H85  1  0.37665041  0.44574309  0.86161834  1
  H+  H86  1  0.33415367  0.16458095  0.06734047  1
  H+  H87  1  0.60961968  0.14161470  0.67001780  1
  H+  H88  1  0.36406700  0.13844060  1.00598230  1
  H+  H89  1  0.48135822  0.11870520  0.83319030  1
  H+  H90  1  0.73079567  0.87848820  0.99344470  1
  H+  H91  1  0.91362498  0.23650492  0.85045680  1
  H+  H92  1  0.24625373  0.56707791  0.50350094  1
  H+  H93  1  0.35301842  0.46159535  0.33842613  1
  H+  H94  1  0.80730800  0.63654312  0.75585639  1
  H+  H95  1  0.70312805  0.36042447  0.54013304  1
  H+  H96  1  0.65270995  0.08194654  0.60443556  1
  H+  H97  1  0.78290018  0.13051988  0.82056419  1
  H+  H98  1  0.31706220  0.52182066  0.62278801  1
  H+  H99  1  0.83988479  0.47101261  0.80872639  1
  H+  H100  1  0.39043513  0.86834088  0.17177743  1
  H+  H101  1  0.35686672  0.72873317  1.00686942  1
  H+  H102  1  0.11937586  0.38600200  0.67429496  1
  H+  H103  1  0.65041308  0.11951209  0.83442518  1
  H+  H104  1  0.27434284  0.13524546  0.16075292  1
  H+  H105  1  0.86095103  0.73432246  0.16794850  1
  H+  H106  1  0.75590520  0.34829731  0.66900640  1
  H+  H107  1  0.95550213  0.13246934  0.51623786  1
  H+  H108  1  0.10733287  0.13800001  0.67953655  1
  H+  H109  1  0.11704173  0.13975044  0.15768950  1
  H+  H110  1  0.36546707  0.46888031  0.68436845  1
  H+  H111  1  0.27926351  0.14582067  0.82016520  1
  H+  H112  1  0.65448600  0.57399432  0.59075753  1
  H+  H113  1  0.60180391  0.31567687  0.20400282  1
  H+  H114  1  0.60294345  0.39883978  0.14207729  1
  H+  H115  1  0.10364119  0.62213731  0.65190751  1
  H+  H116  1  0.85476807  0.04399908  0.66831037  1
  H+  H117  1  0.04008429  0.37429131  0.82970075  1
  H+  H118  1  0.00672166  0.87973242  0.17160432  1
  H+  H119  1  0.62448111  0.76753423  0.66301233  1
  H+  H120  1  0.14553121  0.36979592  0.33894923  1
  H+  H121  1  0.39254590  0.03296053  0.83604279  1
  H+  H122  1  0.78829129  0.56225587  0.80221634  1
  H+  H123  1  0.59958268  0.39223982  0.82933674  1
  H+  H124  1  0.36748595  0.72721918  0.33617460  1
  H+  H125  1  0.71941962  0.84704386  0.51082974  1
  H+  H126  1  0.13868128  0.86475179  0.50464766  1
  H+  H127  1  0.81995892  0.15956632  0.10254991  1
  H+  H128  1  0.50564219  0.65290435  0.82689785  1
  H+  H129  1  0.27829767  0.20270785  0.52741762  1
  H+  H130  1  0.11027117  0.64221830  0.49656551  1
  H+  H131  1  0.37176828  0.13488147  0.81378193  1
  H+  H132  1  0.84726091  0.11846382  0.45846838  1
  H+  H133  1  0.09184230  0.10611834  0.51368041  1
  H+  H134  1  0.03054045  0.14456380  0.15946753  1
  H+  H135  1  0.49785889  0.41147162  0.01209334  1
  H+  H136  1  0.38554961  0.10856375  0.17030554  1
  H+  H137  1  0.40586362  0.10787289  0.31989685  1
  H+  H138  1  0.23494612  0.12792617  -0.00892972  1
  H+  H139  1  0.76152919  0.38246348  0.16498221  1
  H+  H140  1  0.87728690  0.27532626  0.16402411  1
  H+  H141  1  0.62181168  0.72684397  0.35858913  1
  H+  H142  1  0.96618199  0.85584864  0.97959661  1
  H+  H143  1  0.61683904  0.23228975  0.48680501  1
  H+  H144  1  0.96326730  0.76269033  0.62613056  1
  H+  H145  1  0.63901193  0.02524262  0.18875005  1
  H+  H146  1  0.63820371  0.47788983  0.66072153  1
  H+  H147  1  0.10489314  0.22697257  0.35116525  1
  H+  H148  1  0.36444221  0.88864000  0.00419353  1
  H+  H149  1  0.12771421  0.37864074  0.81979923  1
  H+  H150  1  0.17373872  0.09822138  0.50963792  1
  H+  H151  1  0.16351665  0.77141436  0.86817282  1
  H+  H152  1  0.61410433  0.63607489  0.34847465  1
  H+  H153  1  0.27453313  0.89868552  0.67234785  1
  H+  H154  1  0.72207625  0.62579919  0.00526606  1
  H+  H155  1  0.27862181  0.38856027  0.16210832  1
  H+  H156  1  0.25822540  0.93909468  0.84754217  1
  H+  H157  1  0.36220692  0.60799806  0.65849326  1
  H+  H158  1  0.39716825  0.52786955  0.17795945  1
  H+  H159  1  0.51235262  0.38830581  0.16686100  1
  H+  H160  1  0.75504651  0.61831716  0.49233958  1
  H+  H161  1  0.39169018  0.86504010  0.49801233  1
  H+  H162  1  0.36430059  0.58775289  0.32685717  1
  H+  H163  1  0.32655779  0.15094615  0.38670222  1
  H+  H164  1  0.75194394  0.33555969  0.97339034  1
  H+  H165  1  0.47097259  0.87004211  0.84152878  1
  H+  H166  1  0.73716613  0.87195589  0.34781454  1
  H+  H167  1  0.14696246  1.04359451  -0.02641656  1
  H+  H168  1  0.25367183  0.31823162  0.81772632  1
  H+  H169  1  0.13364936  0.59634923  0.82070632  1
  H+  H170  1  0.60604546  0.46065035  0.34219076  1
  H+  H171  1  0.10939599  0.22666300  0.67876090  1
  H+  H172  1  0.14976782  0.51944355  0.83094443  1
  H+  H173  1  0.87234291  0.10904889  0.34625009  1
  H+  H174  1  0.47891827  0.62148486  0.18241659  1
  H+  H175  1  0.87968139  0.61568910  0.49183860  1
  H+  H176  1  0.13936724  0.62078082  0.01901911  1
  H+  H177  1  0.81901590  0.41836018  0.06844890  1
  H+  H178  1  0.88429932  1.00223525  0.50084401  1
  H+  H179  1  0.13729408  0.85833374  0.66238875  1
  H+  H180  1  0.47393206  0.35447336  0.84924529  1
  H+  H181  1  0.33374774  0.91893767  0.06366756  1
  H+  H182  1  0.87782167  0.20761862  0.66574073  1
  H+  H183  1  0.12113896  0.25455056  0.83379990  1
  H+  H184  1  0.26676129  0.20584285  0.49482361  1
  H+  H185  1  0.36109536  0.74081204  0.16075789  1
  H+  H186  1  0.37236379  0.31404823  0.84434077  1
  H+  H187  1  0.11492087  0.89079585  -0.01028230  1
  H+  H188  1  0.26895413  0.13721343  0.66422803  1
  H+  H189  1  0.72774660  0.34339374  0.33604144  1
  H+  H190  1  0.89166783  0.79747173  0.32712908  1
  H+  H191  1  0.13970003  0.62564547  0.18142250  1
  H+  H192  1  0.51219953  0.63011782  0.67372388  1
  H+  H193  1  0.75364728  0.88413152  0.15532512  1
  H+  H194  1  0.61408470  0.61920237  0.49921104  1
  H+  H195  1  0.47343277  0.86510539  -0.00720907  1
  H+  H196  1  0.77601655  0.65896403  0.33559975  1
  H+  H197  1  0.01251430  0.86699137  0.48956963  1
  H+  H198  1  0.86718261  0.60085147  0.99911985  1
  H+  H199  1  0.25316137  0.64505973  0.16751203  1
  H+  H200  1  0.35966928  0.89672768  0.66740936  1
  H+  H201  1  0.63545630  0.02487930  0.99182415  1
  H+  H202  1  0.13388036  0.02090095  0.66378894  1
  H+  H203  1  0.36769117  0.71761374  0.49072120  1
  H+  H204  1  0.86254506  0.14054374  0.00689030  1
  H+  H205  1  0.08424975  0.91701464  0.39716149  1
  H+  H206  1  0.14270962  0.27721910  0.17578892  1
  H+  H207  1  0.09042969  0.66709417  0.08566382  1
  H+  H208  1  0.64079238  0.11478429  0.51356887  1
  H+  H209  1  0.22419254  0.35501436  0.33257577  1
  H+  H210  1  0.91810045  0.30748793  0.89518060  1
  H+  H211  1  0.37084839  0.38400987  0.67008185  1
  H+  H212  1  0.88871353  0.56499211  0.36800003  1
  H+  H213  1  0.61449320  0.65611800  0.16641262  1
  H+  H214  1  0.41464013  0.33102654  0.93383871  1
  H+  H215  1  0.97001270  0.11073395  0.99775777  1
  H+  H216  1  0.23186176  0.61419116  0.00862026  1
  H+  H217  1  0.38554803  0.28056887  0.99906988  1
  H+  H218  1  0.12553792  0.72720922  1.02636025  1
  H+  H219  1  0.60758969  0.37392893  0.35172197  1
  H+  H220  1  0.89876225  0.88893034  0.32802720  1
  H+  H221  1  0.81433303  0.06781900  0.29043717  1
  H+  H222  1  0.00729456  0.12435580  0.82824059  1
  H+  H223  1  0.23178188  0.62178421  0.32877134  1
  H+  H224  1  0.41235096  0.83551593  0.93386822  1
  H+  H225  1  0.27868237  0.88369208  0.34102988  1
  H+  H226  1  0.27651777  0.64751159  0.82265262  1
  H+  H227  1  0.93159659  0.31110102  0.59896944  1
  H+  H228  1  0.14538655  0.53274090  0.33435841  1
  H+  H229  1  0.54197425  0.06617169  0.78640957  1
  H+  H230  1  0.37263591  -0.01285273  0.49069806  1
  H+  H231  1  1.01678752  0.63584448  0.17479869  1
  H+  H232  1  0.23531619  0.86687312  0.99621473  1
  H+  H233  1  0.63305203  0.10880434  0.18715286  1
  H+  H234  1  0.93441532  0.79761852  0.83657737  1
  H+  H235  1  0.84662333  0.70962944  0.66853062  1
  H+  H236  1  0.09941015  0.23465693  0.50397974  1
  H+  H237  1  0.08449878  0.17249957  0.06437665  1
  H+  H238  1  0.39280668  0.01377493  0.31793370  1
  H+  H239  1  0.85679068  -0.01207021  0.34071522  1
  H+  H240  1  0.21903608  0.11563068  0.32189050  1
  H+  H241  1  0.61580137  0.98367968  0.82727556  1
  H+  H242  1  0.87942486  0.33911041  0.31984291  1
  H+  H243  1  0.86670933  0.66480421  0.33953154  1
  H+  H244  1  0.85951917  0.64328232  0.17035560  1
  H+  H245  1  0.69334208  0.60362820  0.82691893  1
  H+  H246  1  0.37907284  0.63439651  0.48579818  1
  H+  H247  1  0.35157344  0.72141490  0.67353084  1
  H+  H248  1  0.15470573  1.08137236  0.83009159  1
  H+  H249  1  0.76050416  0.90174428  0.67393345  1
  H+  H250  1  0.40535475  0.46277230  0.88910047  1
  H+  H251  1  0.40493766  0.55443914  -0.01202585  1
  H+  H252  1  0.87418441  0.37689015  0.83203417  1
  H+  H253  1  0.63720097  1.02521452  0.51542869  1
  H+  H254  1  0.60192246  0.73445047  0.82207972  1
  H+  H255  1  0.06570808  0.40768654  0.40977000  1
  H+  H256  1  0.72112963  0.86457185  0.83626014  1
  H+  H257  1  0.11458144  0.14885781  1.00196730  1
  H+  H258  1  0.62245584  0.60343499  0.65183378  1
  H+  H259  1  0.62990384  0.39260733  0.96653326  1
  H+  H260  1  0.36171293  0.14219710  0.66058668  1
  H+  H261  1  0.58277735  0.92627010  0.06321546  1
  H+  H262  1  0.64138052  0.23893265  0.69156841  1
  H+  H263  1  0.13369017  0.01985930  0.17226333  1
  H+  H264  1  0.01775309  0.37829721  0.15709168  1
  H+  H265  1  0.76873365  0.13479563  0.16653663  1
  H+  H266  1  0.02843902  0.89520900  0.33646227  1
  H+  H267  1  0.13899804  0.77404887  0.33093365  1
  H+  H268  1  0.87629631  0.08730548  0.84198951  1
  H+  H269  1  0.87482900  0.52105922  0.18138063  1
  H+  H270  1  0.85520740  0.72366334  0.01306123  1
  H+  H271  1  0.41091971  0.34624438  0.59354573  1
  H+  H272  1  0.76399227  0.16573123  0.38533632  1
  H+  H273  1  0.04295275  0.93848187  0.83325654  1
  H+  H274  1  0.36535650  0.64435482  0.00569249  1
  H+  H275  1  0.38319132  0.35504735  0.32896472  1
  H+  H276  1  0.08918642  0.96234741  0.49413856  1
  H+  H277  1  0.38698333  0.56034927  0.84554397  1
  H+  H278  1  -0.01642932  0.34358500  0.65999046  1
  H+  H279  1  0.51105062  0.11887963  0.16355578  1
  H+  H280  1  0.39208856  0.86271023  0.32554018  1
  H+  H281  1  0.61697472  0.74452696  0.15981160  1
  H+  H282  1  0.13441892  0.86088847  0.18549100  1
  H+  H283  1  0.97488867  0.62513046  0.49376253  1
  H+  H284  1  0.37245998  0.65803954  0.83032652  1
  H+  H285  1  0.47452000  0.35762937  0.33038780  1
  H+  H286  1  0.86920875  0.75758506  0.50252293  1
  H+  H287  1  0.61022226  0.87937696  0.49691629  1
  H+  H288  1  0.33689566  0.66756053  0.39605660  1
  H+  H289  1  0.42033550  0.61379533  0.92470514  1
  H+  H290  1  0.16641657  0.80321753  0.94643144  1
  H+  H291  1  0.17519357  0.33655252  0.60691949  1
  H+  H292  1  0.92568977  0.81247372  0.59230181  1
  H+  H293  1  0.15855141  0.47245868  0.42540248  1
  H+  H294  1  0.57831765  0.91983095  0.76970559  1
  H+  H295  1  0.08563407  0.92203218  0.73328801  1
  H+  H296  1  0.17491577  0.52847141  0.55405422  1
  H+  H297  1  0.57602664  0.14727911  0.10695185  1
  H+  H298  1  0.56808913  0.66455630  0.73397953  1
  H+  H299  1  0.41563561  0.32970318  0.23558653  1
  H+  H300  1  0.91122936  0.84607197  0.23136623  1
  H+  H301  1  0.90527661  0.06489896  0.90520830  1
  H+  H302  1  0.30140835  0.77904599  0.61759216  1
  H+  H303  1  0.69291724  0.87995837  0.21171966  1
  H+  H304  1  0.92223620  0.09581452  0.22966420  1
  H+  H305  1  0.42596301  0.09578937  0.55871413  1
  H+  H306  1  0.67254340  0.82448469  0.29374273  1
  H+  H307  1  0.41368331  0.07239032  0.22924499  1
  H+  H308  1  0.16788464  0.33614977  0.23542337  1
  H+  H309  1  0.58724941  0.65656964  0.44167880  1
  H+  H310  1  0.34221192  0.91838879  0.39818876  1
  H+  H311  1  0.90947306  0.59004213  0.58255246  1
  H+  H312  1  0.84109318  0.72313059  0.83971671  1
  H+  H313  1  0.63370285  0.75568959  0.50930314  1
  H+  H314  1  0.88039675  0.27312130  0.01829821  1
  H+  H315  1  0.59745614  0.16321844  0.43394164  1
  H+  H316  1  0.17340137  0.83393728  0.24032418  1
  H+  H317  1  0.08626235  0.41301028  0.73270142  1
  H+  H318  1  0.45134712  0.48396613  0.04162056  1
  H+  H319  1  0.74424321  0.36550700  0.73557842  1
  H+  H320  1  0.39025278  0.82084688  0.58472879  1
  H+  H321  1  0.17045967  0.83769850  0.56455010  1
  H+  H322  1  0.62367657  0.74879275  0.98878371  1
  H+  H323  1  0.06709682  0.17509283  0.44449730  1
  H+  H324  1  0.60114632  0.87787854  0.67368270  1
  H+  H325  1  0.13235264  0.51262191  0.65683502  1
  H+  H326  1  0.41943507  0.08779189  0.92931725  1
  H+  H327  1  0.67354683  0.85322708  0.93129460  1
  H+  H328  1  0.15289044  0.31901620  0.89030464  1
  H+  H329  1  0.88187652  0.10012538  0.56652259  1
  H+  H330  1  0.81748436  0.66709770  0.43288694  1
  H+  H331  1  0.82664701  0.66861465  0.07496555  1
  H+  H332  1  0.89109315  0.80824889  0.93157761  1
  H+  H333  1  0.10813877  0.69865424  0.79850611  1
  H+  H334  1  0.57828852  0.15385850  0.75079850  1
  H+  H335  1  0.31823024  0.35495141  0.76277386  1
  H+  H336  1  0.39748224  0.04079825  0.65685611  1
  H+  H337  1  0.41589017  0.57685272  0.55841449  1
  H+  H338  1  0.55170424  0.44908685  0.07526325  1
  H+  H339  1  0.67864340  0.31338890  0.88584768  1
  H+  H340  1  0.19855830  0.12343840  0.89375986  1
  H+  H341  1  0.58481465  0.91777695  0.44012795  1
  H+  H342  1  0.16252801  0.08128028  0.22970298  1
  H+  H343  1  0.33450863  0.16168661  0.74869798  1
  H+  H344  1  0.65358513  0.82463664  0.60296887  1
  H+  H345  1  0.90341015  0.57704411  0.24229957  1
  H+  H346  1  0.08713308  0.94092548  0.03478073  1
  H+  H347  1  0.24106659  0.36276802  0.51407373  1
  H+  H348  1  0.63177306  0.64535327  0.98965426  1
  H+  H349  1  0.95246086  0.31483536  0.31720367  1
  H+  H350  1  0.88640514  0.39975356  0.48246252  1
  H+  H351  1  0.02897907  0.28413128  0.93339100  1
  H+  H352  1  0.43663706  0.24156239  0.43300541  1
  H+  H353  1  0.06528374  0.63928331  0.74237455  1
  H+  H354  1  0.91139355  0.58767677  0.94088525  1
  H+  H355  1  0.32526586  0.67545623  0.10048599  1
  H+  H356  1  0.83465422  0.91652900  0.07074373  1
  H+  H357  1  0.84672731  0.41024194  0.39422636  1
  H+  H358  1  0.33638736  0.40283955  0.39911251  1
  H+  H359  1  0.06805120  0.88397034  0.11846748  1
  H+  H360  1  0.40115327  0.56366328  0.26872125  1
  H+  H361  1  0.87626905  0.37064640  0.01927260  1
  H+  H362  1  0.66593537  0.30941092  0.27936684  1
  H+  H363  1  0.21026810  0.92791849  0.90992620  1
  H+  H364  1  0.85691460  0.94313589  0.40422711  1
  H+  H365  1  0.06422732  0.16019916  0.76666342  1
  H+  H366  1  0.67704416  0.09264667  0.89685984  1
  H+  H367  1  0.61119369  0.47856884  0.45363537  1
  H+  H368  1  0.58744119  0.47389095  0.82551308  1
  H+  H369  1  0.82352375  0.92962036  0.72965222  1
  H+  H370  1  0.61642421  0.99049755  0.35134369  1
  H+  H371  1  0.90916544  0.33117181  0.22316956  1
  H+  H372  1  0.66461104  0.10595455  0.28749009  1
  H+  H373  1  0.34751384  0.42615198  0.10623224  1
  H+  H374  1  0.97953376  0.62187934  0.33772623  1
  H+  H375  1  0.14322688  0.07594595  0.60522369  1
  H+  H376  1  0.33334110  0.67208087  0.73852652  1
  H+  H377  1  0.53055132  0.89305191  0.15815078  1
  H+  H378  1  0.07881198  0.41356465  0.07486649  1
  H+  H379  1  0.67093376  0.57999453  0.26156759  1
  H+  H380  1  0.10648663  0.72711411  0.17507987  1
  H+  H381  1  0.08527201  0.38181551  0.00401039  1
  H+  H382  1  0.81566204  0.46688301  0.61348877  1
  H+  H383  1  0.95539298  0.98714434  0.47404964  1
  O2-  O384  1  0.09075741  0.17395452  0.14333324  1
  O2-  O385  1  0.06231430  0.17450872  0.49054214  1
  O2-  O386  1  0.06592908  0.16138077  0.81245161  1
  O2-  O387  1  0.07721524  0.40551573  0.14079112  1
  O2-  O388  1  -0.00241347  0.33441174  0.47535360  1
  O2-  O389  1  0.09545078  0.40980650  0.80888219  1
  O2-  O390  1  0.07753897  0.66590421  0.16057414  1
  O2-  O391  1  0.08765907  0.67583469  0.47764554  1
  O2-  O392  1  0.06737613  0.63905363  0.78809148  1
  O2-  O393  1  0.07101922  0.90484312  0.15965545  1
  O2-  O394  1  0.07361914  0.90529783  0.47681491  1
  O2-  O395  1  0.09268191  0.95341943  0.80788457  1
  O2-  O396  1  0.33500472  0.16454139  0.14607909  1
  O2-  O397  1  0.42876601  0.25138883  0.47563675  1
  O2-  O398  1  0.33636434  0.15812560  0.79499577  1
  O2-  O399  1  0.34029475  0.41388901  0.15079189  1
  O2-  O400  1  0.34990944  0.40492989  0.48432277  1
  O2-  O401  1  0.30069643  0.31461777  0.79713659  1
  O2-  O402  1  0.32119500  0.67975353  0.14578611  1
  O2-  O403  1  0.34159269  0.65844486  0.47398699  1
  O2-  O404  1  0.33808120  0.68494751  0.80948265  1
  O2-  O405  1  0.33126128  0.91360291  0.14118226  1
  O2-  O406  1  0.34354435  0.92549128  0.47698816  1
  O2-  O407  1  0.33962550  0.93152494  0.81092073  1
  O2-  O408  1  0.57463818  0.14901787  0.15171623  1
  O2-  O409  1  0.58935718  0.16925759  0.47761962  1
  O2-  O410  1  0.56851489  0.12736003  0.79551655  1
  O2-  O411  1  0.57205174  0.42953592  0.14935851  1
  O2-  O412  1  0.62279235  0.47756339  0.49704766  1
  O2-  O413  1  0.56165603  0.41203869  0.81349647  1
  O2-  O414  1  0.58050214  0.68216491  0.15290653  1
  O2-  O415  1  0.58657595  0.65493796  0.48784650  1
  O2-  O416  1  0.56509237  0.67556360  0.80580267  1
  O2-  O417  1  0.58956905  0.93067330  0.14209036  1
  O2-  O418  1  0.58083081  0.91143315  0.48524128  1
  O2-  O419  1  0.57853249  0.92242562  0.81506881  1
  O2-  O420  1  0.82679010  0.16472472  0.14743953  1
  O2-  O421  1  0.82669111  0.11438092  0.41582741  1
  O2-  O422  1  0.84350333  0.15093747  0.80846999  1
  O2-  O423  1  0.82027177  0.41769693  0.14883098  1
  O2-  O424  1  0.85821159  0.42672722  0.46081196  1
  O2-  O425  1  0.78595776  0.46611260  0.79550511  1
  O2-  O426  1  0.82927494  0.67248782  0.15402717  1
  O2-  O427  1  0.81896053  0.65903503  0.47731896  1
  O2-  O428  1  0.80222587  0.62370189  0.80078744  1
  O2-  O429  1  0.83909141  0.91384276  0.13941380  1
  O2-  O430  1  0.89322135  0.95692430  0.47971557  1
  O2-  O431  1  0.82230977  0.90158453  0.80961065  1
  O2-  O432  1  0.16633697  0.08123537  0.18445865  1
  O2-  O433  1  0.11447427  0.06579664  0.52399624  1
  O2-  O434  1  0.20581745  0.12883074  0.84875163  1
  O2-  O435  1  0.17122164  0.33798106  0.19024525  1
  O2-  O436  1  0.18305904  0.34896889  0.52781518  1
  O2-  O437  1  0.16246282  0.31738696  0.84639494  1
  O2-  O438  1  0.17980496  0.60380355  0.19165261  1
  O2-  O439  1  0.19396193  0.51336780  0.51619338  1
  O2-  O440  1  0.17342191  0.58123818  0.84061272  1
  O2-  O441  1  0.16789771  0.83187194  0.19469500  1
  O2-  O442  1  0.17187214  0.83722943  0.51906682  1
  O2-  O443  1  0.21912420  0.95390255  0.86982024  1
  O2-  O444  1  0.41331777  0.07458413  0.18222893  1
  O2-  O445  1  0.42424133  0.09418846  0.51355410  1
  O2-  O446  1  0.42211991  0.09436822  0.85047936  1
  O2-  O447  1  0.41721085  0.33020353  0.18993028  1
  O2-  O448  1  0.40845766  0.38175044  0.51472874  1
  O2-  O449  1  0.41820514  0.31466988  0.87080046  1
  O2-  O450  1  0.41947299  0.58398083  0.19806590  1
  O2-  O451  1  0.42207849  0.57321908  0.51393527  1
  O2-  O452  1  0.41940900  0.62001830  0.85872516  1
  O2-  O453  1  0.42030666  0.83683126  0.18509257  1
  O2-  O454  1  0.41540706  0.82965569  0.51514542  1
  O2-  O455  1  0.41023267  0.84130292  0.85593313  1
  O2-  O456  1  0.66661556  0.08447740  0.20621691  1
  O2-  O457  1  0.66701520  0.08354257  0.53270111  1
  O2-  O458  1  0.68097115  0.09105831  0.85170807  1
  O2-  O459  1  0.65023516  0.30675222  0.19681730  1
  O2-  O460  1  0.65976560  0.33709208  0.50734059  1
  O2-  O461  1  0.65806642  0.32976227  0.84822059  1
  O2-  O462  1  0.66536128  0.59373025  0.19253059  1
  O2-  O463  1  0.66645392  0.56937307  0.51572605  1
  O2-  O464  1  0.63525362  0.57848514  0.84391671  1
  O2-  O465  1  0.68683510  0.86088587  0.16978046  1
  O2-  O466  1  0.65922396  0.81781133  0.52275213  1
  O2-  O467  1  0.66288912  0.83987073  0.85530966  1
  O2-  O468  1  0.92681801  0.09587511  0.18511243  1
  O2-  O469  1  0.89267079  0.09418105  0.52292704  1
  O2-  O470  1  0.90391774  0.05618651  0.86035202  1
  O2-  O471  1  0.90760703  0.33653401  0.17754419  1
  O2-  O472  1  0.95057486  0.34889661  0.51098828  1
  O2-  O473  1  0.95278634  0.28498464  0.87806755  1
  O2-  O474  1  0.90708900  0.58109073  0.19771678  1
  O2-  O475  1  0.91397265  0.58840763  0.50561758  1
  O2-  O476  1  0.94630966  0.64098437  0.86862240  1
  O2-  O477  1  0.91119663  0.83917264  0.18650174  1
  O2-  O478  1  0.90908757  0.81777742  0.51847939  1
  O2-  O479  1  0.87826146  0.78418316  0.85215440  1
  O2-  O480  1  0.15870421  0.08373397  0.31001162  1
  O2-  O481  1  0.16100333  0.08102380  0.64827733  1
  O2-  O482  1  0.17813570  0.10655462  0.96992899  1
  O2-  O483  1  0.16346297  0.33238361  0.31860499  1
  O2-  O484  1  0.17209019  0.33578991  0.65209434  1
  O2-  O485  1  0.07976781  0.30397439  0.96008934  1
  O2-  O486  1  0.16987424  0.58937705  0.31403321  1
  O2-  O487  1  0.16268777  0.57052246  0.63604269  1
  O2-  O488  1  0.16679040  0.58490773  1.00011959  1
  O2-  O489  1  0.17213945  0.83476863  0.31643541  1
  O2-  O490  1  0.16813091  0.83046891  0.64372052  1
  O2-  O491  1  0.17197937  0.83588532  0.98346525  1
  O2-  O492  1  0.42281921  0.07086210  0.29777850  1
  O2-  O493  1  0.42444582  0.09978526  0.63989871  1
  O2-  O494  1  0.41975459  0.08593074  0.97486795  1
  O2-  O495  1  0.41526517  0.32603788  0.31284744  1
  O2-  O496  1  0.41882059  0.34052700  0.63725095  1
  O2-  O497  1  0.41154522  0.33885137  0.98163015  1
  O2-  O498  1  0.38529663  0.54941081  0.31318582  1
  O2-  O499  1  0.37438361  0.56613918  0.63535795  1
  O2-  O500  1  0.42480802  0.61364340  0.97321181  1
  O2-  O501  1  0.42327904  0.83401152  0.30846679  1
  O2-  O502  1  0.36265813  0.81031234  0.62699089  1
  O2-  O503  1  0.41188655  0.83432329  0.97958169  1
  O2-  O504  1  0.66720614  0.10938013  0.33308273  1
  O2-  O505  1  0.64157639  0.08229090  0.64955402  1
  O2-  O506  1  0.66819525  0.08642089  0.97691037  1
  O2-  O507  1  0.66559430  0.30901746  0.32430138  1
  O2-  O508  1  0.76206758  0.41147971  0.60913497  1
  O2-  O509  1  0.71844593  0.28799147  0.94444597  1
  O2-  O510  1  0.68204201  0.56980100  0.30599895  1
  O2-  O511  1  0.65635702  0.57761130  0.63678082  1
  O2-  O512  1  0.66391275  0.60213088  0.98552008  1
  O2-  O513  1  0.67408147  0.83867649  0.33660390  1
  O2-  O514  1  0.65120211  0.82796452  0.64797934  1
  O2-  O515  1  0.67073178  0.85197758  0.97698340  1
  O2-  O516  1  0.86937905  0.07949741  0.30708683  1
  O2-  O517  1  0.88300947  0.10396015  0.65001005  1
  O2-  O518  1  0.90891719  0.08296991  0.98400270  1
  O2-  O519  1  0.90225181  0.30794139  0.29569491  1
  O2-  O520  1  0.92553636  0.30379200  0.64305218  1
  O2-  O521  1  0.91129126  0.33824163  1.01142356  1
  O2-  O522  1  0.91546193  0.59436341  0.32999715  1
  O2-  O523  1  0.90916885  0.58352644  0.62775416  1
  O2-  O524  1  0.89283545  0.56719999  0.98310853  1
  O2-  O525  1  0.92660737  0.85712832  0.31121360  1
  O2-  O526  1  0.93996816  0.80045184  0.63417867  1
  O2-  O527  1  0.90306084  0.82199437  0.97547364  1
  O2-  O528  1  0.07621050  0.16852002  0.01924912  1
  O2-  O529  1  0.07577091  0.16923075  0.37057717  1
  O2-  O530  1  0.07548423  0.16648737  0.69289774  1
  O2-  O531  1  0.07118054  0.42122288  0.02811837  1
  O2-  O532  1  0.12140561  0.44528120  0.38995887  1
  O2-  O533  1  0.08586221  0.41435585  0.68710465  1
  O2-  O534  1  0.10132817  0.66778185  0.04080259  1
  O2-  O535  1  0.08337034  0.66701101  0.35349739  1
  O2-  O536  1  0.07533134  0.65492830  0.66634614  1
  O2-  O537  1  0.08327467  0.92331075  -0.00751511  1
  O2-  O538  1  0.08905305  0.92131311  0.35194603  1
  O2-  O539  1  0.08931897  0.91521875  0.68853792  1
  O2-  O540  1  0.33259718  0.16652414  0.02197742  1
  O2-  O541  1  0.37110909  0.17312672  0.35581584  1
  O2-  O542  1  0.33017414  0.16994627  0.67819060  1
  O2-  O543  1  0.38964450  0.46263444  0.03315696  1
  O2-  O544  1  0.32887792  0.39906279  0.35462591  1
  O2-  O545  1  0.33589386  0.40675064  0.69124278  1
  O2-  O546  1  0.32929189  0.66897936  0.02370557  1
  O2-  O547  1  0.33079583  0.66715402  0.35091246  1
  O2-  O548  1  0.32718749  0.66394720  0.69212259  1
  O2-  O549  1  0.33331195  0.91950054  0.01789135  1
  O2-  O550  1  0.34034340  0.91242525  0.35295192  1
  O2-  O551  1  0.33560580  0.93054815  0.68592272  1
  O2-  O552  1  0.57495635  0.16932268  0.02185691  1
  O2-  O553  1  0.60794871  0.14020607  0.35055918  1
  O2-  O554  1  0.58778642  0.18048310  0.68803694  1
  O2-  O555  1  0.54130692  0.46550848  0.03461804  1
  O2-  O556  1  0.57603347  0.40423045  0.36223335  1
  O2-  O557  1  0.63892646  0.42417255  0.66944820  1
  O2-  O558  1  0.59283466  0.68508371  -0.00320222  1
  O2-  O559  1  0.58914821  0.66556436  0.37005783  1
  O2-  O560  1  0.57160070  0.66030429  0.68772008  1
  O2-  O561  1  0.58036367  0.92453739  0.01766612  1
  O2-  O562  1  0.58679672  0.92835547  0.36101035  1
  O2-  O563  1  0.57126395  0.90797663  0.69143008  1
  O2-  O564  1  0.83196245  0.17135805  0.02183414  1
  O2-  O565  1  0.81656786  0.18999762  0.41054347  1
  O2-  O566  1  0.84341231  0.14620487  0.68275167  1
  O2-  O567  1  0.82815082  0.41419859  0.02409326  1
  O2-  O568  1  0.83513563  0.39717725  0.34805937  1
  O2-  O569  1  0.73824136  0.31876407  0.70933796  1
  O2-  O570  1  0.82172037  0.66421106  0.02971302  1
  O2-  O571  1  0.83466727  0.69328803  0.35326010  1
  O2-  O572  1  0.81307840  0.64883615  0.68110176  1
  O2-  O573  1  0.83110926  0.92024048  0.02340412  1
  O2-  O574  1  0.84100841  0.93161016  0.36036614  1
  O2-  O575  1  0.82006384  0.94273164  0.68646979  1
