# generated using pymatgen
data_H2O
_symmetry_space_group_name_H-M   'P 1'
_cell_length_a   17.97250179
_cell_length_b   17.96934120
_cell_length_c   21.99229025
_cell_angle_alpha   89.99961236
_cell_angle_beta   90.03659175
_cell_angle_gamma   119.99611772
_symmetry_Int_Tables_number   1
_chemical_formula_structural   H2O
_chemical_formula_sum   'H384 O192'
_cell_volume   6151.18306786
_cell_formula_units_Z   192
loop_
 _symmetry_equiv_pos_site_id
 _symmetry_equiv_pos_as_xyz
  1  'x, y, z'
loop_
 _atom_type_symbol
 _atom_type_oxidation_number
  H+  1.0
  O2-  -2.0
loop_
 _atom_site_type_symbol
 _atom_site_label
 _atom_site_symmetry_multiplicity
 _atom_site_fract_x
 _atom_site_fract_y
 _atom_site_fract_z
 _atom_site_occupancy
  H+  H0  1  0.08229607  0.38893308  0.00245122  1
  H+  H1  1  0.38466222  0.17329687  0.49205914  1
  H+  H2  1  0.35150819  0.63203852  1.00198144  1
  H+  H3  1  0.87201281  0.97074221  0.18189119  1
  H+  H4  1  0.48604829  0.52495887  0.29869654  1
  H+  H5  1  0.90748325  0.33172839  0.59789008  1
  H+  H6  1  0.38995672  0.56630745  0.64584193  1
  H+  H7  1  0.25050633  0.34826180  0.00208472  1
  H+  H8  1  0.09482893  0.92536330  0.71730571  1
  H+  H9  1  0.36424497  0.13334280  0.00720192  1
  H+  H10  1  0.14415384  0.62265799  0.99109420  1
  H+  H11  1  0.81850677  0.39529384  0.26560562  1
  H+  H12  1  0.72709839  0.10427327  0.99029905  1
  H+  H13  1  0.62485486  0.47899264  -0.00084773  1
  H+  H14  1  0.70266021  0.59863305  0.55880760  1
  H+  H15  1  0.51777961  0.83567886  0.80320584  1
  H+  H16  1  0.32685542  0.44187915  0.67534331  1
  H+  H17  1  0.57673022  0.65751999  -0.02770615  1
  H+  H18  1  0.60004569  0.38121473  0.48243258  1
  H+  H19  1  -0.02835686  0.11567188  0.32810232  1
  H+  H20  1  0.13455900  0.87298269  0.82452262  1
  H+  H21  1  0.73248056  0.32302074  0.33807247  1
  H+  H22  1  0.48033794  0.36867792  0.18115847  1
  H+  H23  1  0.27447022  0.37984431  0.34977178  1
  H+  H24  1  0.57121783  0.20026895  0.73987071  1
  H+  H25  1  0.48748825  0.10262641  0.20295463  1
  H+  H26  1  0.65012307  0.30928730  0.54129804  1
  H+  H27  1  0.50097787  0.10026078  0.87348907  1
  H+  H28  1  0.86454706  0.50858549  0.33945623  1
  H+  H29  1  0.88413582  0.62075486  0.82940998  1
  H+  H30  1  0.24567684  0.62869107  -0.00621646  1
  H+  H31  1  0.85661243  0.22076400  1.00833409  1
  H+  H32  1  0.73293403  0.60840749  0.84289223  1
  H+  H33  1  0.12729553  0.22454039  1.01980643  1
  H+  H34  1  0.82452969  0.09891994  0.31226165  1
  H+  H35  1  0.84731549  0.16467583  0.72335755  1
  H+  H36  1  0.40007661  0.49838686  0.33197255  1
  H+  H37  1  0.72418245  0.08829438  0.24018173  1
  H+  H38  1  0.13820743  0.77523418  0.50140904  1
  H+  H39  1  -0.01521944  0.60816424  0.64239533  1
  H+  H40  1  0.24252370  0.62651582  0.18142815  1
  H+  H41  1  0.46615240  0.35006427  0.82811432  1
  H+  H42  1  0.32817000  0.07099718  0.84998835  1
  H+  H43  1  0.40988919  0.63645205  0.83905709  1
  H+  H44  1  0.37644371  0.73679007  0.49246034  1
  H+  H45  1  0.11885457  0.00840090  0.35928895  1
  H+  H46  1  0.94197060  0.76254858  0.32418277  1
  H+  H47  1  0.28105250  0.14329678  1.00733384  1
  H+  H48  1  0.20678956  0.33712519  0.65962747  1
  H+  H49  1  0.48458450  0.61459615  0.84009704  1
  H+  H50  1  0.86422231  0.62079194  0.66367183  1
  H+  H51  1  0.14071518  0.86612757  0.64888281  1
  H+  H52  1  0.72840317  0.36533894  0.63664448  1
  H+  H53  1  0.36482508  0.12256609  0.16639384  1
  H+  H54  1  0.91545045  0.56895001  0.58379998  1
  H+  H55  1  0.86369339  0.48827854  -0.01984969  1
  H+  H56  1  0.38115455  0.35974572  0.33318284  1
  H+  H57  1  0.22310783  0.11234644  0.83996352  1
  H+  H58  1  0.27662751  0.87964351  0.00759728  1
  H+  H59  1  0.36104659  0.73549104  0.34348467  1
  H+  H60  1  0.63972804  0.07115329  0.49358157  1
  H+  H61  1  0.14379828  0.40498210  0.49403125  1
  H+  H62  1  0.62778472  0.10881804  0.37196805  1
  H+  H63  1  0.36596737  0.73809834  0.16272294  1
  H+  H64  1  0.53016557  0.38071521  -0.00371275  1
  H+  H65  1  0.23995766  0.13752420  0.50960055  1
  H+  H66  1  0.13383051  0.47869197  0.34471210  1
  H+  H67  1  0.39153676  0.38588027  0.00579559  1
  H+  H68  1  0.18562496  0.60209610  0.73088596  1
  H+  H69  1  0.46582420  0.10139790  -0.02360660  1
  H+  H70  1  0.13444239  0.12190722  0.33149923  1
  H+  H71  1  1.03530284  0.14799257  0.81594754  1
  H+  H72  1  0.90467240  0.35205849  1.05532792  1
  H+  H73  1  0.78014141  0.40242850  0.80809133  1
  H+  H74  1  0.61534728  0.47655309  0.15926415  1
  H+  H75  1  0.88836665  0.37162181  0.81725448  1
  H+  H76  1  0.37659397  0.46773687  1.00386293  1
  H+  H77  1  0.37056349  0.99328186  0.48845899  1
  H+  H78  1  0.64685394  0.16118428  0.50587468  1
  H+  H79  1  0.83479653  0.91041258  0.10003271  1
  H+  H80  1  0.29046831  0.23168859  0.70742725  1
  H+  H81  1  0.39629513  0.01952988  0.18440389  1
  H+  H82  1  0.86148933  0.72911993  0.80756629  1
  H+  H83  1  0.12244545  0.77133701  0.82481269  1
  H+  H84  1  0.62833234  0.78001457  0.34278277  1
  H+  H85  1  0.88039804  0.22966427  0.66769937  1
  H+  H86  1  0.62261602  0.99801043  0.66325155  1
  H+  H87  1  0.87922675  0.88276074  0.18171410  1
  H+  H88  1  0.47109671  0.11590704  0.33876401  1
  H+  H89  1  0.14495794  0.77324003  0.17297740  1
  H+  H90  1  0.52779272  0.63647839  0.34855797  1
  H+  H91  1  0.36956103  0.77318571  0.88157076  1
  H+  H92  1  0.38943538  0.12454734  0.65662059  1
  H+  H93  1  0.85921777  0.31674941  0.32469639  1
  H+  H94  1  0.57424910  0.91705618  0.05909622  1
  H+  H95  1  0.47912383  0.88993396  0.65239308  1
  H+  H96  1  0.64270445  0.85020750  0.83705251  1
  H+  H97  1  0.61775367  0.14564585  0.66399065  1
  H+  H98  1  0.62885000  0.38570874  0.98511927  1
  H+  H99  1  0.87074801  0.48845175  0.81062004  1
  H+  H100  1  0.22856463  0.36903544  0.82500033  1
  H+  H101  1  0.87774168  0.98408462  0.05264420  1
  H+  H102  1  0.67512541  0.10436025  0.59588450  1
  H+  H103  1  0.76265250  0.88718518  0.35206683  1
  H+  H104  1  0.38008941  0.38312001  0.16814840  1
  H+  H105  1  0.14257862  0.86218479  0.17331223  1
  H+  H106  1  0.62566490  0.71569928  0.67365995  1
  H+  H107  1  0.41484320  0.84671537  0.56222450  1
  H+  H108  1  0.69944256  0.75963257  0.23454510  1
  H+  H109  1  0.74177040  0.84408457  0.19663331  1
  H+  H110  1  0.60416786  0.89075694  0.35322869  1
  H+  H111  1  0.64701450  0.86946431  0.99871215  1
  H+  H112  1  0.38088574  0.64866116  0.49065780  1
  H+  H113  1  0.64548395  0.30200200  0.81873487  1
  H+  H114  1  0.86600733  0.72352892  1.03166811  1
  H+  H115  1  0.60913350  -0.03183604  0.99787789  1
  H+  H116  1  0.39185539  0.67890512  0.66816695  1
  H+  H117  1  0.81640476  0.60784114  0.50075452  1
  H+  H118  1  0.38622291  0.86711374  0.18187415  1
  H+  H119  1  0.52189387  0.38747031  0.64366486  1
  H+  H120  1  0.88702325  1.02224130  0.33285762  1
  H+  H121  1  0.11010663  0.63898080  0.49969560  1
  H+  H122  1  0.77648959  0.62423029  0.66321377  1
  H+  H123  1  0.13202338  0.36810218  0.81585194  1
  H+  H124  1  0.11780301  0.39495737  0.65968937  1
  H+  H125  1  0.40838592  0.52458867  0.50590418  1
  H+  H126  1  1.03377883  0.89139050  1.01511041  1
  H+  H127  1  0.87222410  0.84971963  0.50913849  1
  H+  H128  1  1.00906534  0.40670659  0.15220366  1
  H+  H129  1  0.39115736  0.87638728  0.49990603  1
  H+  H130  1  0.36008460  0.14035936  0.34390887  1
  H+  H131  1  0.84422554  0.37216694  0.48246061  1
  H+  H132  1  0.13642654  0.11431610  0.83353019  1
  H+  H133  1  0.78999550  0.11801445  0.82312519  1
  H+  H134  1  0.62225766  0.52326233  0.32904562  1
  H+  H135  1  0.38109787  0.03222390  0.65683715  1
  H+  H136  1  -0.03536613  0.60436134  0.49849493  1
  H+  H137  1  0.87705693  0.35032298  0.18952297  1
  H+  H138  1  0.22328857  0.85696302  0.82102459  1
  H+  H139  1  0.45470043  0.60929277  0.99726182  1
  H+  H140  1  0.64807220  0.58070540  0.26733435  1
  H+  H141  1  0.22782095  0.62491021  0.50625457  1
  H+  H142  1  0.64307558  0.74390388  0.00263457  1
  H+  H143  1  0.14211673  0.61600336  0.33589876  1
  H+  H144  1  0.65870518  0.61310775  0.99762905  1
  H+  H145  1  0.24573423  0.14747271  0.66888288  1
  H+  H146  1  0.37925832  0.28163580  0.63334510  1
  H+  H147  1  0.12242843  0.98105978  0.00719098  1
  H+  H148  1  0.64232723  0.60106913  0.84831983  1
  H+  H149  1  0.64584041  0.60866406  0.65224663  1
  H+  H150  1  0.64756984  0.12322059  0.82002733  1
  H+  H151  1  0.78229650  0.63061459  0.01997701  1
  H+  H152  1  0.03830823  0.64295887  0.01384664  1
  H+  H153  1  0.66406290  0.11622423  0.20566873  1
  H+  H154  1  0.77464848  0.89780506  0.82360963  1
  H+  H155  1  0.35877131  0.21883732  0.82838626  1
  H+  H156  1  0.12837032  0.48954826  0.67056280  1
  H+  H157  1  0.90029795  0.02685131  0.51455704  1
  H+  H158  1  0.33335527  0.98547959  0.84914483  1
  H+  H159  1  0.53842396  0.30669872  0.77573939  1
  H+  H160  1  0.85974414  0.25209845  0.51158064  1
  H+  H161  1  0.47733427  0.87487513  0.18129014  1
  H+  H162  1  0.65830605  0.84858174  0.67989358  1
  H+  H163  1  0.46856268  0.84970105  0.97976119  1
  H+  H164  1  0.02937323  0.39148516  0.81140341  1
  H+  H165  1  0.81582702  0.96751181  0.77149692  1
  H+  H166  1  0.11329646  0.72968778  0.65636627  1
  H+  H167  1  0.87708455  0.51203463  0.49404689  1
  H+  H168  1  0.15219928  0.53739887  0.18501711  1
  H+  H169  1  0.13297002  0.64673421  0.16634429  1
  H+  H170  1  0.46464190  0.40315332  0.49007696  1
  H+  H171  1  0.63162648  0.60870563  0.16658872  1
  H+  H172  1  0.51807029  0.39357798  0.33683072  1
  H+  H173  1  0.77365015  0.89231879  0.50580799  1
  H+  H174  1  0.62385065  0.71740304  0.82757582  1
  H+  H175  1  0.01727543  0.62295324  0.34783745  1
  H+  H176  1  0.32296599  0.16158859  0.76818615  1
  H+  H177  1  0.62691125  0.47987879  0.48833656  1
  H+  H178  1  1.03040291  0.88410864  0.66089743  1
  H+  H179  1  0.87532729  0.72181974  0.17503223  1
  H+  H180  1  0.82578386  0.66832031  0.27004145  1
  H+  H181  1  0.61947124  0.64968955  0.34526417  1
  H+  H182  1  0.34216350  0.88702871  0.34123263  1
  H+  H183  1  0.03308486  0.89781419  0.80815001  1
  H+  H184  1  0.64132625  0.10623230  0.97348448  1
  H+  H185  1  0.86927558  0.85945966  0.65991633  1
  H+  H186  1  0.64439292  0.38597432  0.81897208  1
  H+  H187  1  0.89297606  0.27288928  0.16749990  1
  H+  H188  1  0.87971837  0.39222959  0.66266317  1
  H+  H189  1  0.14067350  0.11368883  1.00229187  1
  H+  H190  1  0.47446911  0.60039590  0.17075518  1
  H+  H191  1  0.74137057  0.84619250  0.65747553  1
  H+  H192  1  0.57445150  0.90607485  0.43202135  1
  H+  H193  1  0.27672082  0.88757512  0.16464691  1
  H+  H194  1  0.13619695  0.27221085  0.81389251  1
  H+  H195  1  0.87238846  0.13699977  0.50078471  1
  H+  H196  1  0.89160728  0.03167072  0.97067478  1
  H+  H197  1  0.35653398  0.37386067  0.66627442  1
  H+  H198  1  0.86795256  0.13831290  -0.00089516  1
  H+  H199  1  0.14263829  0.86755713  0.99203548  1
  H+  H200  1  0.78881882  0.13939697  0.16069484  1
  H+  H201  1  0.85221068  0.39573877  -0.02498557  1
  H+  H202  1  0.29898486  0.66600864  0.68454870  1
  H+  H203  1  0.10600691  0.42962157  0.43887417  1
  H+  H204  1  0.53416672  0.63452256  0.66912404  1
  H+  H205  1  0.64236193  0.51898696  0.64305451  1
  H+  H206  1  -0.01362348  0.37701740  0.64850266  1
  H+  H207  1  0.90823754  0.13029758  0.83200373  1
  H+  H208  1  0.12653095  0.23630593  0.48458116  1
  H+  H209  1  0.15605995  0.62740551  0.67141643  1
  H+  H210  1  0.35929615  0.72701889  -0.00266813  1
  H+  H211  1  0.99136265  0.85779801  0.17001855  1
  H+  H212  1  0.15679911  0.54414219  0.81951998  1
  H+  H213  1  0.48687317  0.06011794  0.85470693  1
  H+  H214  1  0.22537778  0.12180151  0.33659075  1
  H+  H215  1  0.10181701  0.71440126  0.33974031  1
  H+  H216  1  0.88945097  0.86674377  0.02994111  1
  H+  H217  1  0.10038381  0.87620152  0.49582324  1
  H+  H218  1  0.22407851  0.09244443  0.17982008  1
  H+  H219  1  0.32978393  0.67990827  0.10298154  1
  H+  H220  1  0.58433244  0.17428998  0.03287524  1
  H+  H221  1  0.85705372  0.48949357  0.20899237  1
  H+  H222  1  0.81990512  0.18370674  0.30700288  1
  H+  H223  1  0.23517396  0.64240240  0.82880082  1
  H+  H224  1  0.66383538  -0.01007931  0.83882602  1
  H+  H225  1  0.25688752  0.36442806  0.50577872  1
  H+  H226  1  0.73185788  0.38180283  -0.03820959  1
  H+  H227  1  0.61563508  0.22995833  -0.02595510  1
  H+  H228  1  0.61916072  -0.00305291  0.16189595  1
  H+  H229  1  0.11100059  0.64961425  0.80993345  1
  H+  H230  1  0.19276449  0.85545059  0.32895088  1
  H+  H231  1  0.74010168  0.87855272  1.00823702  1
  H+  H232  1  0.15184307  0.30054486  0.22907827  1
  H+  H233  1  0.90750689  0.04187678  0.83725639  1
  H+  H234  1  0.60053717  0.67639613  0.43833865  1
  H+  H235  1  0.91685874  0.07901761  0.23758203  1
  H+  H236  1  0.13234129  0.39016515  0.34375262  1
  H+  H237  1  0.26366943  0.63930810  0.34439418  1
  H+  H238  1  0.12201036  0.98554058  0.82015431  1
  H+  H239  1  0.60422970  0.98252676  0.37191269  1
  H+  H240  1  0.66529311  0.15691759  0.84449938  1
  H+  H241  1  0.11883840  0.97098996  0.16720560  1
  H+  H242  1  0.52553064  0.14160184  0.65636806  1
  H+  H243  1  0.03507331  0.14808709  0.48959362  1
  H+  H244  1  0.60684240  0.90898369  0.63985211  1
  H+  H245  1  0.40289349  0.26823917  0.99340436  1
  H+  H246  1  0.38378717  0.35845367  0.84365692  1
  H+  H247  1  0.32747138  0.84189622  0.80941779  1
  H+  H248  1  0.75204094  0.37496863  0.21234949  1
  H+  H249  1  0.27006631  0.89407945  0.66448503  1
  H+  H250  1  0.72139135  0.61039867  0.17815080  1
  H+  H251  1  0.75805845  0.63072613  0.32124561  1
  H+  H252  1  0.12876158  0.02887203  0.64769656  1
  H+  H253  1  0.86610482  0.59847837  0.33008923  1
  H+  H254  1  0.89182924  0.88120706  0.80580306  1
  H+  H255  1  0.63963021  0.77534588  0.51107182  1
  H+  H256  1  0.62549723  0.36079152  0.19059175  1
  H+  H257  1  0.64154365  0.65088135  0.49356984  1
  H+  H258  1  0.36142826  0.47883304  0.82540401  1
  H+  H259  1  0.49602415  0.61654791  0.50260075  1
  H+  H260  1  1.03408262  0.17191907  0.17936604  1
  H+  H261  1  0.08732669  0.12453139  0.65681742  1
  H+  H262  1  0.60945337  0.38296468  0.64535697  1
  H+  H263  1  0.46432445  0.86389778  0.33862286  1
  H+  H264  1  0.78191644  0.13163448  0.49089222  1
  H+  H265  1  0.12590662  0.73289592  0.00101110  1
  H+  H266  1  0.03558966  0.14088558  0.01705416  1
  H+  H267  1  0.01866182  0.64427864  0.81788724  1
  H+  H268  1  0.40501116  0.35346372  0.58038858  1
  H+  H269  1  0.15021921  0.53237239  -0.00762747  1
  H+  H270  1  0.66320712  0.35106435  0.90926297  1
  H+  H271  1  0.84750404  0.88028514  0.35110929  1
  H+  H272  1  0.36343901  0.90318859  0.66583155  1
  H+  H273  1  0.73908549  0.12485492  0.65307642  1
  H+  H274  1  0.00369104  0.86472575  0.49555023  1
  H+  H275  1  0.39366804  0.79914970  0.65845167  1
  H+  H276  1  0.86064970  0.22041011  0.81619035  1
  H+  H277  1  0.61659263  0.20929276  0.19214880  1
  H+  H278  1  0.37555036  0.47804480  0.16180190  1
  H+  H279  1  0.38488755  0.27287518  0.32779541  1
  H+  H280  1  0.42344797  0.56046691  0.23242548  1
  H+  H281  1  0.89713622  0.75729289  0.65349625  1
  H+  H282  1  0.14858001  0.13130659  0.50208236  1
  H+  H283  1  0.61269079  0.18603966  0.25983424  1
  H+  H284  1  0.38173380  0.85258531  -0.01466975  1
  H+  H285  1  0.92270760  0.55648896  1.06283731  1
  H+  H286  1  0.87141223  0.59408809  0.19050707  1
  H+  H287  1  0.17652658  0.36602021  1.01449575  1
  H+  H288  1  0.38947518  0.72494180  0.76720438  1
  H+  H289  1  0.04470308  0.50064407  0.12584213  1
  H+  H290  1  0.58589098  0.66867113  0.09418268  1
  H+  H291  1  0.34002173  0.40848249  0.41083713  1
  H+  H292  1  0.84500823  0.41465943  0.09401376  1
  H+  H293  1  0.59016543  0.41105947  0.10340445  1
  H+  H294  1  0.17219657  0.84078770  0.93132576  1
  H+  H295  1  0.37691157  0.05316437  0.93791214  1
  H+  H296  1  0.36540079  0.96655553  0.00895878  1
  H+  H297  1  0.43065999  0.32692361  0.93155283  1
  H+  H298  1  0.14527355  0.53459603  0.51051157  1
  H+  H299  1  0.88571719  0.49508225  0.65369332  1
  H+  H300  1  0.90151293  0.82945762  0.96906098  1
  H+  H301  1  0.22610366  0.86880482  0.49952949  1
  H+  H302  1  0.59772705  0.20608773  0.40441327  1
  H+  H303  1  0.07442341  0.67366622  0.71627616  1
  H+  H304  1  0.16538413  0.08630947  0.93891368  1
  H+  H305  1  0.15492666  0.82000122  0.26306524  1
  H+  H306  1  0.95694025  0.37038586  0.99562333  1
  H+  H307  1  0.33496240  0.41249824  0.76912158  1
  H+  H308  1  0.11237167  0.22922342  0.33199555  1
  H+  H309  1  0.89165049  0.10545865  0.17443690  1
  H+  H310  1  0.59063829  0.65575703  0.76925570  1
  H+  H311  1  0.61396959  0.71903403  0.15808902  1
  H+  H312  1  0.84087883  0.89204216  0.71797115  1
  H+  H313  1  0.68307820  0.83966274  0.89964591  1
  H+  H314  1  0.83135053  0.65789767  0.75581058  1
  H+  H315  1  0.33153537  0.92906520  0.43201563  1
  H+  H316  1  0.87683719  0.45576423  0.10965723  1
  H+  H317  1  0.94495783  0.09091872  0.56994586  1
  H+  H318  1  0.08814012  0.41937862  0.75146027  1
  H+  H319  1  0.09727716  0.43752189  0.06677072  1
  H+  H320  1  0.49835335  0.15343871  0.50073275  1
  H+  H321  1  0.75850684  0.37365102  0.47382151  1
  H+  H322  1  0.95221307  0.82635176  0.23492864  1
  H+  H323  1  0.35454522  0.41386988  0.09996901  1
  H+  H324  1  0.58371282  0.89802805  0.75360516  1
  H+  H325  1  0.16332239  0.06776161  0.23818633  1
  H+  H326  1  0.83431911  0.65544617  0.12032139  1
  H+  H327  1  0.08112769  0.17299062  0.39316969  1
  H+  H328  1  0.08030405  0.16628609  0.75099765  1
  H+  H329  1  0.04321164  0.90171681  0.35108487  1
  H+  H330  1  0.09619505  0.91782639  0.10310341  1
  H+  H331  1  0.85789660  0.75342212  0.50696698  1
  H+  H332  1  0.91549582  0.34246601  0.87638577  1
  H+  H333  1  0.90848786  0.58216579  0.88689337  1
  H+  H334  1  1.04248096  0.80759943  0.30655267  1
  H+  H335  1  0.84468311  0.42889837  0.72026564  1
  H+  H336  1  0.43293316  0.10958832  0.55634311  1
  H+  H337  1  0.55902597  0.39020950  0.73908683  1
  H+  H338  1  0.60852734  0.87795007  0.50190537  1
  H+  H339  1  0.89600971  0.61553998  1.02748125  1
  H+  H340  1  0.16322164  0.09719585  0.59094761  1
  H+  H341  1  0.91916220  0.81539511  0.59329426  1
  H+  H342  1  0.91324423  0.30753780  0.27158050  1
  H+  H343  1  0.33669268  0.91370491  0.10525384  1
  H+  H344  1  0.41334180  0.08299885  0.27875051  1
  H+  H345  1  0.54179720  0.99246020  0.12729804  1
  H+  H346  1  0.93896292  0.10618054  0.92533926  1
  H+  H347  1  0.37196185  0.25666490  0.48604112  1
  H+  H348  1  0.07955574  0.66473510  0.43916801  1
  H+  H349  1  0.33410593  0.15090293  0.10726011  1
  H+  H350  1  0.07651193  0.92916973  0.42938947  1
  H+  H351  1  0.79390590  0.27004742  0.54516147  1
  H+  H352  1  0.83109200  0.91882665  0.44638324  1
  H+  H353  1  0.33634989  0.17943210  0.40131924  1
  H+  H354  1  0.84242585  0.16342836  0.09845774  1
  H+  H355  1  0.68549976  0.58182839  0.93684566  1
  H+  H356  1  0.91898476  0.85302166  0.86371378  1
  H+  H357  1  0.54771932  0.22797538  0.11136640  1
  H+  H358  1  0.10509656  0.21377009  0.13030072  1
  H+  H359  1  0.51683038  0.88345304  0.50027427  1
  H+  H360  1  0.43732688  0.61106317  0.58587317  1
  H+  H361  1  0.69490273  0.04684981  0.89833776  1
  H+  H362  1  0.70696045  0.09380910  0.35668768  1
  H+  H363  1  0.64048266  0.27573966  0.64065846  1
  H+  H364  1  0.33727810  0.67323706  0.40574792  1
  H+  H365  1  0.41317790  0.83568408  0.27512800  1
  H+  H366  1  0.17179927  0.83558340  0.59059284  1
  H+  H367  1  0.62977221  0.31240608  0.25247743  1
  H+  H368  1  0.31814737  0.89964764  0.75477053  1
  H+  H369  1  0.34791141  0.97831653  0.34220871  1
  H+  H370  1  0.52945565  0.18128324  0.10305325  1
  H+  H371  1  0.18401874  0.33397261  0.55818235  1
  H+  H372  1  0.41822753  0.34254798  0.24109037  1
  H+  H373  1  0.11139862  0.26250449  0.64728496  1
  H+  H374  1  0.11016977  0.67506057  0.10316423  1
  H+  H375  1  0.66156323  0.83650314  0.28380348  1
  H+  H376  1  0.90718933  0.57254188  0.25462447  1
  H+  H377  1  0.66253460  0.83062749  0.57248447  1
  H+  H378  1  0.52734725  0.16909357  0.80548757  1
  H+  H379  1  0.57980644  0.42638215  0.39444836  1
  H+  H380  1  0.80751229  0.38349839  0.38593492  1
  H+  H381  1  0.93657279  0.13252973  0.66531190  1
  H+  H382  1  0.18170849  0.59486459  0.27585716  1
  H+  H383  1  0.41157004  0.58311109  0.93120899  1
  O2-  O384  1  0.08471612  0.22689255  0.16784513  1
  O2-  O385  1  0.09227954  0.17552891  0.46946561  1
  O2-  O386  1  0.09339978  0.17719171  0.79546071  1
  O2-  O387  1  0.05968175  0.45560188  0.13021701  1
  O2-  O388  1  0.11154458  0.43448690  0.48427472  1
  O2-  O389  1  0.09032407  0.41870530  0.79763400  1
  O2-  O390  1  0.09993441  0.67179110  0.14736556  1
  O2-  O391  1  0.07649622  0.66706810  0.48431552  1
  O2-  O392  1  0.07802380  0.67957114  0.80068071  1
  O2-  O393  1  0.08894429  0.90978775  0.14784482  1
  O2-  O394  1  0.06527633  0.90328133  0.48436097  1
  O2-  O395  1  0.09622962  0.92583515  0.80145908  1
  O2-  O396  1  0.32437788  0.14027489  0.15113557  1
  O2-  O397  1  0.34606070  0.19467744  0.47721862  1
  O2-  O398  1  0.32585832  0.15847217  0.81300500  1
  O2-  O399  1  0.34796271  0.41427749  0.14525527  1
  O2-  O400  1  0.36205051  0.41978568  0.48611206  1
  O2-  O401  1  0.33019237  0.41680924  0.81412791  1
  O2-  O402  1  0.33049255  0.67826355  0.14752766  1
  O2-  O403  1  0.34895213  0.67715641  0.47596613  1
  O2-  O404  1  0.41050731  0.73811470  0.81082255  1
  O2-  O405  1  0.33820667  0.91694246  0.15047544  1
  O2-  O406  1  0.33935527  0.93142863  0.47748396  1
  O2-  O407  1  0.30775455  0.88316907  0.79970690  1
  O2-  O408  1  0.59936417  0.15759136  0.21691577  1
  O2-  O409  1  0.60388498  0.21633714  0.47866737  1
  O2-  O410  1  0.55900541  0.21989013  0.77982028  1
  O2-  O411  1  0.58699084  0.41425028  0.14778169  1
  O2-  O412  1  0.58018930  0.42298807  0.47512761  1
  O2-  O413  1  0.54840545  0.36599261  0.78129552  1
  O2-  O414  1  0.58230661  0.66141135  0.13871022  1
  O2-  O415  1  0.60507251  0.67657559  0.48392529  1
  O2-  O416  1  0.58846886  0.65651959  0.81470195  1
  O2-  O417  1  0.56729542  0.95693427  0.13693093  1
  O2-  O418  1  0.57831392  0.90849415  0.48399491  1
  O2-  O419  1  0.57885483  0.87963660  0.79644451  1
  O2-  O420  1  0.84864499  0.17023283  0.14332362  1
  O2-  O421  1  0.84352397  0.16636871  0.48210789  1
  O2-  O422  1  0.84507592  0.16192099  0.80263128  1
  O2-  O423  1  0.81699287  0.40333289  0.22061497  1
  O2-  O424  1  0.82075148  0.40574713  0.46215265  1
  O2-  O425  1  0.84106681  0.42894216  0.79313900  1
  O2-  O426  1  0.83674576  0.65806203  0.16591603  1
  O2-  O427  1  0.79020837  0.64392838  0.49111606  1
  O2-  O428  1  0.83385795  0.66642033  0.80129718  1
  O2-  O429  1  0.84134210  0.90700529  0.17086940  1
  O2-  O430  1  0.83405916  0.91740540  0.49156563  1
  O2-  O431  1  0.83077610  0.93654539  0.80121320  1
  O2-  O432  1  0.16269766  0.06052440  0.19373387  1
  O2-  O433  1  0.17977325  0.10648081  0.52418057  1
  O2-  O434  1  0.16104481  0.08110951  0.85219376  1
  O2-  O435  1  0.19556072  0.35262993  0.25105685  1
  O2-  O436  1  0.19296456  0.33571952  0.51383923  1
  O2-  O437  1  0.16313544  0.33472529  0.83018709  1
  O2-  O438  1  0.18327273  0.59594475  0.20178728  1
  O2-  O439  1  0.16910124  0.59665152  0.52252183  1
  O2-  O440  1  0.17778870  0.60543471  0.81074393  1
  O2-  O441  1  0.17389615  0.83327574  0.19030518  1
  O2-  O442  1  0.16625749  0.83674985  0.51539904  1
  O2-  O443  1  0.16009584  0.83474407  0.83919557  1
  O2-  O444  1  0.42385948  0.07741915  0.20368770  1
  O2-  O445  1  0.43570942  0.11494778  0.51163777  1
  O2-  O446  1  0.32023538  0.02180516  0.87512590  1
  O2-  O447  1  0.42071083  0.34648126  0.19509337  1
  O2-  O448  1  0.40536556  0.37067364  0.50657057  1
  O2-  O449  1  0.41351983  0.32628435  0.85441420  1
  O2-  O450  1  0.41645623  0.56364689  0.18779326  1
  O2-  O451  1  0.43474475  0.58826375  0.51580052  1
  O2-  O452  1  0.42363222  0.59254611  0.85385623  1
  O2-  O453  1  0.41889837  0.83944449  0.19854342  1
  O2-  O454  1  0.41936485  0.84445152  0.51680488  1
  O2-  O455  1  0.34391898  0.75179234  0.84047947  1
  O2-  O456  1  0.69667627  0.08473323  0.19953574  1
  O2-  O457  1  0.66811930  0.12082612  0.52065937  1
  O2-  O458  1  0.71550673  0.03210077  0.86072096  1
  O2-  O459  1  0.65273248  0.33063361  0.21081546  1
  O2-  O460  1  0.64851484  0.31046797  0.49603434  1
  O2-  O461  1  0.67914283  0.36137557  0.83607519  1
  O2-  O462  1  0.65884311  0.57815187  0.18687840  1
  O2-  O463  1  0.70033569  0.59518275  0.51264302  1
  O2-  O464  1  0.67817580  0.57863708  0.86575477  1
  O2-  O465  1  0.68473128  0.79838549  0.21344521  1
  O2-  O466  1  0.66155350  0.83536025  0.52730701  1
  O2-  O467  1  0.68212775  0.83167674  0.85492028  1
  O2-  O468  1  0.91911184  0.07407337  0.19206418  1
  O2-  O469  1  0.93304515  0.08879435  0.52588258  1
  O2-  O470  1  0.94148830  0.10308743  0.84942555  1
  O2-  O471  1  0.92122863  0.33365876  0.18325217  1
  O2-  O472  1  0.85428909  0.30039936  0.53301203  1
  O2-  O473  1  0.91792205  0.34003283  0.83219287  1
  O2-  O474  1  0.89744946  0.56001323  0.20881924  1
  O2-  O475  1  0.90371604  0.57009807  0.51346234  1
  O2-  O476  1  0.91527541  0.58913793  0.84286082  1
  O2-  O477  1  0.93345070  0.82547151  0.19205122  1
  O2-  O478  1  0.89880970  0.81367607  0.51940640  1
  O2-  O479  1  0.92050847  0.84909750  0.81953904  1
  O2-  O480  1  0.16345135  0.08690593  0.32398655  1
  O2-  O481  1  0.15206264  0.09085097  0.63795923  1
  O2-  O482  1  0.17078678  0.08433045  0.98359865  1
  O2-  O483  1  0.18083690  0.33137334  0.31574846  1
  O2-  O484  1  0.15283248  0.32429386  0.63904473  1
  O2-  O485  1  0.18862499  0.32538986  0.99318167  1
  O2-  O486  1  0.18195269  0.59552603  0.32187626  1
  O2-  O487  1  0.19048758  0.60140516  0.68579234  1
  O2-  O488  1  0.17732624  0.59299487  0.97599064  1
  O2-  O489  1  0.13931116  0.81321318  0.30789673  1
  O2-  O490  1  0.17076668  0.83406065  0.63653513  1
  O2-  O491  1  0.17135546  0.83551336  0.97577954  1
  O2-  O492  1  0.41049954  0.08419800  0.32444893  1
  O2-  O493  1  0.41647583  0.09272114  0.64134221  1
  O2-  O494  1  0.40267948  0.06769600  0.98021535  1
  O2-  O495  1  0.41449515  0.33440429  0.31389934  1
  O2-  O496  1  0.41131305  0.34403460  0.62515547  1
  O2-  O497  1  0.43870220  0.32953053  0.97685097  1
  O2-  O498  1  0.44859672  0.54813271  0.30855429  1
  O2-  O499  1  0.43648571  0.62128949  0.63181966  1
  O2-  O500  1  0.39980081  0.57541432  0.97641844  1
  O2-  O501  1  0.40573295  0.83170898  0.32072732  1
  O2-  O502  1  0.41802440  0.85756896  0.63905127  1
  O2-  O503  1  0.40725908  0.81903110  0.96681618  1
  O2-  O504  1  0.65356783  0.07236728  0.38244784  1
  O2-  O505  1  0.67733237  0.09857851  0.64128213  1
  O2-  O506  1  0.66937155  0.07086609  0.97059860  1
  O2-  O507  1  0.63561227  0.24595171  0.31699721  1
  O2-  O508  1  0.66867878  0.33478747  0.62208435  1
  O2-  O509  1  0.66655196  0.34803860  0.95533268  1
  O2-  O510  1  0.65275766  0.58614833  0.31239005  1
  O2-  O511  1  0.67816706  0.58210179  0.63403565  1
  O2-  O512  1  0.68370310  0.57751824  0.98378454  1
  O2-  O513  1  0.65825331  0.84175658  0.32857767  1
  O2-  O514  1  0.67583462  0.82058899  0.64970365  1
  O2-  O515  1  0.68522273  0.84621603  0.98563346  1
  O2-  O516  1  0.91072183  0.07897895  0.31314420  1
  O2-  O517  1  0.96671943  0.10070076  0.65314962  1
  O2-  O518  1  0.92687135  0.09415983  0.97013945  1
  O2-  O519  1  0.88590105  0.28332118  0.31088087  1
  O2-  O520  1  0.92253567  0.34378698  0.64255985  1
  O2-  O521  1  0.89892612  0.33692991  1.01204977  1
  O2-  O522  1  0.90100813  0.56863884  0.32630877  1
  O2-  O523  1  0.92190794  0.57036273  0.63062601  1
  O2-  O524  1  0.92674536  0.58160818  1.02258964  1
  O2-  O525  1  0.98999877  0.81427095  0.30616388  1
  O2-  O526  1  0.92742326  0.81797819  0.63871653  1
  O2-  O527  1  0.91436679  0.83219390  1.01231642  1
  O2-  O528  1  0.09312701  0.16367752  0.03482544  1
  O2-  O529  1  0.07644609  0.16809413  0.34764262  1
  O2-  O530  1  0.05634203  0.15578556  0.67373847  1
  O2-  O531  1  0.12296393  0.43952896  0.02540793  1
  O2-  O532  1  0.10305963  0.42010722  0.36098609  1
  O2-  O533  1  0.08965369  0.42641147  0.67681735  1
  O2-  O534  1  0.10214306  0.67287305  0.01718896  1
  O2-  O535  1  0.07860167  0.65639571  0.35917070  1
  O2-  O536  1  0.08081309  0.66859249  0.67195298  1
  O2-  O537  1  0.09643350  0.91983355  0.02193447  1
  O2-  O538  1  0.08509770  0.94691679  0.37903382  1
  O2-  O539  1  0.09233142  0.92247620  0.67236421  1
  O2-  O540  1  0.34253554  0.17233796  0.02029972  1
  O2-  O541  1  0.33045504  0.17272336  0.35598856  1
  O2-  O542  1  0.30291324  0.18953452  0.68922107  1
  O2-  O543  1  0.35866622  0.41186598  0.02366179  1
  O2-  O544  1  0.33643770  0.41002654  0.36498598  1
  O2-  O545  1  0.31762913  0.38767692  0.69196338  1
  O2-  O546  1  0.32385526  0.66609138  0.01488752  1
  O2-  O547  1  0.33076974  0.67342257  0.35921012  1
  O2-  O548  1  0.36251732  0.70459410  0.69122185  1
  O2-  O549  1  0.33678985  0.90500129  0.02257693  1
  O2-  O550  1  0.31205040  0.91698058  0.35606161  1
  O2-  O551  1  0.32886889  0.92788974  0.68369591  1
  O2-  O552  1  0.58719724  0.16969476  -0.01130412  1
  O2-  O553  1  0.58543189  0.17685461  0.36258598  1
  O2-  O554  1  0.58609590  0.17748887  0.67101948  1
  O2-  O555  1  0.59503395  0.41437293  0.00973593  1
  O2-  O556  1  0.57934084  0.43126514  0.34949965  1
  O2-  O557  1  0.58023901  0.41350366  0.66207801  1
  O2-  O558  1  0.61082127  0.67919235  0.00937915  1
  O2-  O559  1  0.58749005  0.67741619  0.36299334  1
  O2-  O560  1  0.59174229  0.65444016  0.68726315  1
  O2-  O561  1  0.57891099  0.90835531  0.01499984  1
  O2-  O562  1  0.56967335  0.91340937  0.37399654  1
  O2-  O563  1  0.58865894  0.93381882  0.67200824  1
  O2-  O564  1  0.83096127  0.15905920  0.01789534  1
  O2-  O565  1  0.78208608  0.11833116  0.30568813  1
  O2-  O566  1  0.85236116  0.16778351  0.67810025  1
  O2-  O567  1  0.83305779  0.43353396  -0.04321207  1
  O2-  O568  1  0.79477426  0.37190269  0.34139958  1
  O2-  O569  1  0.84856417  0.42677465  0.67392369  1
  O2-  O570  1  0.83829947  0.66130496  0.04249328  1
  O2-  O571  1  0.82233391  0.65831973  0.31385954  1
  O2-  O572  1  0.83668289  0.65229448  0.68036003  1
  O2-  O573  1  0.84042562  0.92170094  0.05391629  1
  O2-  O574  1  0.82403619  0.91519740  0.36643215  1
  O2-  O575  1  0.83495321  0.88690058  0.67379760  1
