# generated using pymatgen
data_H2O
_symmetry_space_group_name_H-M   'P 1'
_cell_length_a   17.98755829
_cell_length_b   17.99132127
_cell_length_c   22.01028321
_cell_angle_alpha   90.01524839
_cell_angle_beta   89.99039967
_cell_angle_gamma   119.97153434
_symmetry_Int_Tables_number   1
_chemical_formula_structural   H2O
_chemical_formula_sum   'H384 O192'
_cell_volume   6170.43839590
_cell_formula_units_Z   192
loop_
 _symmetry_equiv_pos_site_id
 _symmetry_equiv_pos_as_xyz
  1  'x, y, z'
loop_
 _atom_type_symbol
 _atom_type_oxidation_number
  H+  1.0
  O2-  -2.0
loop_
 _atom_site_type_symbol
 _atom_site_label
 _atom_site_symmetry_multiplicity
 _atom_site_fract_x
 _atom_site_fract_y
 _atom_site_fract_z
 _atom_site_occupancy
  H+  H0  1  0.13498790  0.61047354  0.98335771  1
  H+  H1  1  0.72161250  0.09648475  -0.01020915  1
  H+  H2  1  0.46823696  0.85810648  0.17728189  1
  H+  H3  1  0.64174965  0.34584524  1.00487821  1
  H+  H4  1  0.13336306  0.77166513  0.65881787  1
  H+  H5  1  0.22701863  0.37133399  0.32953996  1
  H+  H6  1  0.89603383  0.86028596  0.00383393  1
  H+  H7  1  0.83947141  0.49501609  0.67718001  1
  H+  H8  1  0.60656895  0.22597320  0.67336601  1
  H+  H9  1  0.11907923  0.52399983  0.50758484  1
  H+  H10  1  0.36107579  0.38625048  0.01537026  1
  H+  H11  1  0.35364193  0.60369695  -0.00876090  1
  H+  H12  1  0.89000410  0.36100341  -0.01148798  1
  H+  H13  1  0.86287095  -0.02900698  0.34815143  1
  H+  H14  1  0.65008203  0.88028502  0.80285865  1
  H+  H15  1  0.86390183  0.38579553  0.81937818  1
  H+  H16  1  0.87244476  0.64831663  0.35721839  1
  H+  H17  1  0.86842796  0.40769516  0.34810831  1
  H+  H18  1  0.35583497  0.41064363  0.82293104  1
  H+  H19  1  0.37236752  0.51133898  0.65957923  1
  H+  H20  1  0.22463234  0.35220484  1.00246625  1
  H+  H21  1  0.65980086  0.34480349  0.57251002  1
  H+  H22  1  0.38809504  0.03749526  0.98565936  1
  H+  H23  1  0.85605822  0.87813305  0.49830488  1
  H+  H24  1  0.26673294  0.11575229  0.67581921  1
  H+  H25  1  0.61301001  0.88315327  0.49898815  1
  H+  H26  1  0.72472084  0.10856629  0.50930939  1
  H+  H27  1  0.21376931  0.84999819  0.97575483  1
  H+  H28  1  0.63497463  0.54949672  -0.00043512  1
  H+  H29  1  0.87278268  0.19322918  0.74218393  1
  H+  H30  1  0.90813254  0.87103225  0.14119975  1
  H+  H31  1  0.11753951  0.21565735  0.01558281  1
  H+  H32  1  0.47839545  0.88915054  0.81695442  1
  H+  H33  1  0.33218831  0.94544428  0.83572586  1
  H+  H34  1  0.07710634  0.42179348  0.41087166  1
  H+  H35  1  0.34311434  0.18166054  0.10175840  1
  H+  H36  1  0.77505975  0.38670625  0.82608980  1
  H+  H37  1  0.26391148  0.38468958  0.68466720  1
  H+  H38  1  0.13117846  0.52499927  0.33102015  1
  H+  H39  1  0.36767740  0.38711345  0.33457760  1
  H+  H40  1  0.35904291  0.11815490  0.67601279  1
  H+  H41  1  0.50994024  0.88850441  0.99903702  1
  H+  H42  1  0.89349905  0.10579725  0.33659849  1
  H+  H43  1  0.41852973  0.66665290  0.84301495  1
  H+  H44  1  -0.00145460  0.37893160  0.50149976  1
  H+  H45  1  0.88661359  0.51454499  0.99165943  1
  H+  H46  1  0.55236707  0.77465909  0.90713004  1
  H+  H47  1  0.41660080  0.07778059  0.60102072  1
  H+  H48  1  0.90296261  0.52763992  0.16400277  1
  H+  H49  1  0.50853031  0.35717827  0.64681726  1
  H+  H50  1  0.62104287  0.12060651  -0.00728029  1
  H+  H51  1  0.51751420  0.13299842  0.67167508  1
  H+  H52  1  0.77751661  0.40367326  0.33849967  1
  H+  H53  1  0.86469676  0.10767139  0.83265679  1
  H+  H54  1  0.60435687  0.65126921  -0.00403442  1
  H+  H55  1  0.43907843  0.11765986  0.89691698  1
  H+  H56  1  0.10949050  0.88039308  0.66436825  1
  H+  H57  1  0.18114983  0.84517500  0.27600059  1
  H+  H58  1  0.62258790  0.12902979  0.82105129  1
  H+  H59  1  0.15419928  0.88805270  0.18363274  1
  H+  H60  1  0.16137657  0.08106471  0.60602660  1
  H+  H61  1  0.11078808  0.47219411  0.67465185  1
  H+  H62  1  0.88870964  0.76798435  0.51034364  1
  H+  H63  1  1.03231153  0.14584244  0.35192532  1
  H+  H64  1  0.47667033  0.86801695  0.51045890  1
  H+  H65  1  0.43327417  0.71121252  0.23427755  1
  H+  H66  1  0.87584459  0.62828651  0.51175480  1
  H+  H67  1  0.53923769  0.62157181  0.18052172  1
  H+  H68  1  0.32314712  0.53179163  0.94035265  1
  H+  H69  1  0.12098688  0.88590554  0.81122982  1
  H+  H70  1  0.19482986  0.61982573  0.17162034  1
  H+  H71  1  0.62696195  0.84186335  0.17219145  1
  H+  H72  1  0.26082344  0.05081391  0.43889222  1
  H+  H73  1  0.03988732  0.75116202  0.10936768  1
  H+  H74  1  0.61596471  -0.04784308  0.15396969  1
  H+  H75  1  0.32369134  0.65351106  0.15929692  1
  H+  H76  1  0.82520548  0.93895787  -0.01255083  1
  H+  H77  1  0.64678213  0.26064598  -0.00415597  1
  H+  H78  1  0.27431453  0.90020668  0.15204367  1
  H+  H79  1  0.38131341  0.11877996  0.17367601  1
  H+  H80  1  0.09547762  0.39561854  0.50464229  1
  H+  H81  1  0.07910198  0.15752500  0.07455927  1
  H+  H82  1  0.58964336  0.16553633  0.75401828  1
  H+  H83  1  0.38094940  0.26874628  0.99506310  1
  H+  H84  1  0.51946852  0.88071971  0.34627241  1
  H+  H85  1  0.47129466  0.85185435  0.66030699  1
  H+  H86  1  1.00570810  0.64586350  0.67143148  1
  H+  H87  1  0.03692901  0.65556249  0.34020256  1
  H+  H88  1  0.33446855  0.17392264  0.39307485  1
  H+  H89  1  0.11380267  0.24113496  0.34533426  1
  H+  H90  1  0.75835112  0.88915244  0.15605436  1
  H+  H91  1  0.14206175  0.27560981  0.84545297  1
  H+  H92  1  0.59787929  0.46289870  0.84193732  1
  H+  H93  1  0.64444819  0.44224666  0.66597009  1
  H+  H94  1  0.27910351  0.88624942  0.35280866  1
  H+  H95  1  0.78765947  0.39621104  0.15919713  1
  H+  H96  1  0.39145873  0.07013727  0.26950395  1
  H+  H97  1  0.87666519  0.35010459  0.59950972  1
  H+  H98  1  0.54602497  0.16049588  0.82338148  1
  H+  H99  1  0.01374270  0.42674551  0.12498342  1
  H+  H100  1  0.37692263  0.24148236  0.16134286  1
  H+  H101  1  0.10433968  0.71679991  0.98831102  1
  H+  H102  1  0.65515723  0.39104526  0.16556770  1
  H+  H103  1  0.37370485  0.77037772  0.83747922  1
  H+  H104  1  0.87123546  0.52705609  0.31774246  1
  H+  H105  1  0.15695225  0.58178652  0.59971883  1
  H+  H106  1  0.35855849  0.87916058  0.67683822  1
  H+  H107  1  0.75268134  0.40599587  0.49487100  1
  H+  H108  1  0.86003043  0.21832262  0.50197359  1
  H+  H109  1  0.85990521  0.21116972  0.34538723  1
  H+  H110  1  0.86715056  0.38163656  0.17014865  1
  H+  H111  1  0.87705041  0.09695757  0.51106014  1
  H+  H112  1  0.12148740  0.14575701  0.16803143  1
  H+  H113  1  0.86855946  0.63730950  0.15029066  1
  H+  H114  1  0.58122827  0.91047398  0.40546854  1
  H+  H115  1  0.51786300  0.38107720  0.99390278  1
  H+  H116  1  0.22548451  0.85948003  0.66332443  1
  H+  H117  1  0.63229205  0.76343195  0.51194848  1
  H+  H118  1  0.89313336  0.32122565  0.39109182  1
  H+  H119  1  0.64576567  0.24217482  0.30961156  1
  H+  H120  1  0.52542427  0.63670331  0.34546669  1
  H+  H121  1  0.24332620  0.12892566  0.83506954  1
  H+  H122  1  0.14307060  0.86460328  0.33783507  1
  H+  H123  1  0.86248740  -0.03758178  0.67511942  1
  H+  H124  1  0.72294128  0.59392038  0.51431056  1
  H+  H125  1  0.03695130  0.13246163  0.83034291  1
  H+  H126  1  0.12332577  0.60987019  0.65748283  1
  H+  H127  1  0.27905387  0.13776459  0.00875444  1
  H+  H128  1  1.03593236  0.88605331  1.01769043  1
  H+  H129  1  0.63007892  0.01077730  0.98359429  1
  H+  H130  1  0.45878752  0.60159249  0.65238393  1
  H+  H131  1  0.16781617  0.32197928  0.94060003  1
  H+  H132  1  0.51339054  0.70415849  0.71402102  1
  H+  H133  1  0.66625111  0.82689763  0.60200924  1
  H+  H134  1  0.36507279  0.14553901  0.33483706  1
  H+  H135  1  0.26433513  0.96455799  0.01455214  1
  H+  H136  1  0.41166195  0.07969015  0.83042906  1
  H+  H137  1  0.46260985  0.38396900  0.78181762  1
  H+  H138  1  0.10756654  0.92306608  0.06935064  1
  H+  H139  1  0.46954798  0.12078309  0.18273576  1
  H+  H140  1  0.48621595  0.11585933  0.98742451  1
  H+  H141  1  0.64745799  0.30116132  0.18026257  1
  H+  H142  1  0.32612910  0.64874177  0.39471341  1
  H+  H143  1  0.72187227  0.85250875  0.51074901  1
  H+  H144  1  0.67745567  0.74815107  0.84049560  1
  H+  H145  1  0.36890557  0.89538344  0.50147666  1
  H+  H146  1  0.24452198  0.88131413  0.50932823  1
  H+  H147  1  0.86155640  0.13826969  0.01179773  1
  H+  H148  1  0.12484977  0.02746232  0.51312714  1
  H+  H149  1  0.14551606  0.12765805  0.51251263  1
  H+  H150  1  0.98969678  0.37778790  0.84033974  1
  H+  H151  1  0.74350122  0.61917703  0.16108200  1
  H+  H152  1  0.37206027  0.01933831  0.33274510  1
  H+  H153  1  0.12878680  0.25162376  0.50014763  1
  H+  H154  1  0.33272145  0.16898988  0.75529217  1
  H+  H155  1  0.92542953  0.83805124  0.83259678  1
  H+  H156  1  0.26920652  0.34803155  0.48280547  1
  H+  H157  1  0.63523387  0.86179209  0.32940776  1
  H+  H158  1  0.04353421  0.90490754  0.15915166  1
  H+  H159  1  0.90364983  0.78376546  0.15414539  1
  H+  H160  1  0.12847744  0.14011194  0.82756478  1
  H+  H161  1  0.53042811  0.39832959  0.15411584  1
  H+  H162  1  0.37445918  0.86734760  0.98482824  1
  H+  H163  1  0.89670363  1.02166962  0.18075895  1
  H+  H164  1  0.14401916  0.62323601  0.50515320  1
  H+  H165  1  0.86617416  0.21285781  0.17775445  1
  H+  H166  1  0.50803899  0.62949140  0.99606156  1
  H+  H167  1  0.90717155  0.28655915  0.83117126  1
  H+  H168  1  0.48011454  0.73636163  0.22659895  1
  H+  H169  1  0.09660332  0.48536392  0.16394653  1
  H+  H170  1  0.10850461  0.22888354  0.16747179  1
  H+  H171  1  0.77299959  0.12001401  0.34382138  1
  H+  H172  1  0.24851652  0.10850742  0.48573196  1
  H+  H173  1  0.12197029  0.89607316  0.50352934  1
  H+  H174  1  0.72571023  0.85370030  0.66273649  1
  H+  H175  1  0.86058045  0.87172479  0.67717474  1
  H+  H176  1  0.52255326  0.62121056  0.49509237  1
  H+  H177  1  0.22623977  0.37048831  0.85199712  1
  H+  H178  1  0.64744055  0.38177646  0.32713128  1
  H+  H179  1  0.06888617  0.66039051  0.72641306  1
  H+  H180  1  0.63550672  0.01099466  0.33574466  1
  H+  H181  1  0.63824033  1.02441372  0.66197898  1
  H+  H182  1  0.62879550  0.49211860  0.34472173  1
  H+  H183  1  0.14079163  0.75201021  0.49160363  1
  H+  H184  1  0.23489545  0.13319834  0.17465027  1
  H+  H185  1  0.62519680  0.26715132  0.52609919  1
  H+  H186  1  0.61226196  0.43355834  -0.03274784  1
  H+  H187  1  0.14118096  0.10413641  1.00373474  1
  H+  H188  1  0.97129491  0.35391732  0.19900875  1
  H+  H189  1  0.11580000  0.39117509  0.83591858  1
  H+  H190  1  0.61277162  0.83818122  0.79311664  1
  H+  H191  1  0.60443614  0.13779715  0.52318257  1
  H+  H192  1  0.88506878  0.10141533  0.65791502  1
  H+  H193  1  0.63834200  0.11413375  0.66191863  1
  H+  H194  1  0.34574919  0.62069443  0.66373437  1
  H+  H195  1  0.61242443  0.72795053  0.34399668  1
  H+  H196  1  0.39475367  0.36801870  0.17678980  1
  H+  H197  1  0.61663079  0.97460472  0.49819581  1
  H+  H198  1  0.33417451  0.66394864  0.76149737  1
  H+  H199  1  0.13952571  0.61781604  0.32645248  1
  H+  H200  1  0.97859395  0.34861036  0.99012569  1
  H+  H201  1  0.13225674  -0.02007607  0.81257354  1
  H+  H202  1  0.13249823  0.27072240  0.66189340  1
  H+  H203  1  0.59916482  0.18524427  0.22834839  1
  H+  H204  1  0.27655342  0.63529997  0.82177029  1
  H+  H205  1  0.22755884  0.62118215  0.98584317  1
  H+  H206  1  0.38715715  0.86161173  0.33803617  1
  H+  H207  1  0.67690751  0.05726406  0.27319120  1
  H+  H208  1  0.10012388  0.35279370  0.00866545  1
  H+  H209  1  0.59700518  0.73512902  0.67603424  1
  H+  H210  1  -0.02774255  0.60566066  -0.01292726  1
  H+  H211  1  0.77486721  0.85616839  0.83944771  1
  H+  H212  1  0.27360551  0.63102963  0.33296482  1
  H+  H213  1  0.98794752  0.11015313  0.18238634  1
  H+  H214  1  0.12864195  0.36784539  0.17459626  1
  H+  H215  1  0.96026492  0.22359415  0.77491415  1
  H+  H216  1  0.21693560  0.36684188  0.17868233  1
  H+  H217  1  0.62367119  0.71776285  0.17455567  1
  H+  H218  1  0.13033575  0.99702983  0.16508884  1
  H+  H219  1  0.64034007  0.14791268  0.30902620  1
  H+  H220  1  0.36392434  0.36133165  0.48805805  1
  H+  H221  1  0.40606198  0.55673989  0.55734205  1
  H+  H222  1  0.15090969  0.57783611  0.23520247  1
  H+  H223  1  0.86527912  0.22012881  0.64070766  1
  H+  H224  1  0.85969346  0.62678462  0.99859644  1
  H+  H225  1  0.54366776  0.65621896  0.83152369  1
  H+  H226  1  0.34148782  0.92334779  0.41118228  1
  H+  H227  1  0.41575802  0.60300184  0.18571504  1
  H+  H228  1  0.77765463  0.13982978  0.66328617  1
  H+  H229  1  0.10601483  0.71415134  0.81534463  1
  H+  H230  1  0.38589845  0.51631048  0.33451581  1
  H+  H231  1  0.31449437  0.93900858  0.06310981  1
  H+  H232  1  0.60712675  0.01713353  0.82897544  1
  H+  H233  1  0.14414714  0.79714786  0.17615478  1
  H+  H234  1  0.64444855  0.62173216  0.17166970  1
  H+  H235  1  0.94043833  0.56903626  0.54121853  1
  H+  H236  1  0.90239231  0.77603551  1.00673133  1
  H+  H237  1  0.88582473  0.51351167  0.83457629  1
  H+  H238  1  0.63841676  0.60594970  0.51271631  1
  H+  H239  1  0.74415308  0.09117613  0.17902345  1
  H+  H240  1  0.89528161  0.77817166  0.35419257  1
  H+  H241  1  0.73734397  0.62416504  0.34944122  1
  H+  H242  1  0.47354363  0.34932749  0.49544654  1
  H+  H243  1  0.85051364  0.60809924  0.82524397  1
  H+  H244  1  0.17881918  0.10817855  0.23659590  1
  H+  H245  1  0.21994076  0.84397734  0.82415126  1
  H+  H246  1  0.13350187  0.36160531  0.66876378  1
  H+  H247  1  0.88926967  0.75714606  0.66139968  1
  H+  H248  1  0.60750774  0.46564928  0.49439302  1
  H+  H249  1  0.85363255  -0.03352665  0.49932502  1
  H+  H250  1  0.24565969  0.14738296  0.32140868  1
  H+  H251  1  0.64693624  0.57251071  0.66818545  1
  H+  H252  1  0.38075463  0.76251268  0.66140397  1
  H+  H253  1  0.36122871  0.46534716  0.17316057  1
  H+  H254  1  0.99284875  0.13972423  0.99098579  1
  H+  H255  1  0.26118582  0.62919419  0.66965169  1
  H+  H256  1  0.88617454  0.08302695  0.89702531  1
  H+  H257  1  0.52358651  0.37239833  0.86492959  1
  H+  H258  1  0.61548955  0.88545245  0.67145759  1
  H+  H259  1  0.37354589  0.14752714  0.00447743  1
  H+  H260  1  0.97375574  0.10142583  0.66303449  1
  H+  H261  1  1.01621164  0.65159000  0.51112282  1
  H+  H262  1  0.51182404  0.13286409  0.53337016  1
  H+  H263  1  0.86801635  0.73915300  0.83755641  1
  H+  H264  1  0.97833267  0.20400510  0.95181750  1
  H+  H265  1  0.71744036  0.58689674  0.83983575  1
  H+  H266  1  0.63381380  0.59690869  0.83943995  1
  H+  H267  1  0.36023985  -0.01025772  0.14768364  1
  H+  H268  1  0.64935070  0.52700890  0.16105378  1
  H+  H269  1  0.60850854  0.37718757  0.49394786  1
  H+  H270  1  0.97416060  0.84982734  0.66053893  1
  H+  H271  1  0.84457347  0.97337382  0.82779099  1
  H+  H272  1  0.72663845  0.38266714  0.66915780  1
  H+  H273  1  0.38332978  0.49607411  0.49877319  1
  H+  H274  1  0.12624396  1.01401612  0.66090786  1
  H+  H275  1  0.80463637  0.54537518  0.48367894  1
  H+  H276  1  0.37241591  -0.01163885  0.50761709  1
  H+  H277  1  0.38271022  0.18176399  0.81975689  1
  H+  H278  1  0.11066484  0.39343382  0.35090944  1
  H+  H279  1  0.65163918  0.08144246  0.18103078  1
  H+  H280  1  0.03115758  0.87921022  0.35112269  1
  H+  H281  1  0.78256620  0.37554010  0.01092780  1
  H+  H282  1  0.15461592  0.14352251  0.32673005  1
  H+  H283  1  0.14003722  0.61216520  0.83046457  1
  H+  H284  1  0.34405989  0.74922940  0.16136375  1
  H+  H285  1  0.12189641  0.48413831  0.83073598  1
  H+  H286  1  0.49306474  0.38013546  0.32525185  1
  H+  H287  1  0.34712523  0.60189499  0.48303363  1
  H+  H288  1  0.33299058  0.40342043  0.39720244  1
  H+  H289  1  0.39330391  1.02198620  0.66586723  1
  H+  H290  1  0.92310236  0.33652047  0.92096969  1
  H+  H291  1  0.10702360  0.68988515  0.43211830  1
  H+  H292  1  0.08981361  0.41989002  0.73645422  1
  H+  H293  1  0.17352452  0.59050369  0.89303944  1
  H+  H294  1  0.38585137  0.10289856  0.52133468  1
  H+  H295  1  0.06971377  0.39007593  0.06416238  1
  H+  H296  1  0.80911947  0.89604796  0.05119815  1
  H+  H297  1  0.83174415  0.15655118  0.44209402  1
  H+  H298  1  0.54076344  0.18376757  0.41696835  1
  H+  H299  1  0.32618514  0.41039171  0.11190704  1
  H+  H300  1  0.59157665  0.42092261  0.39859320  1
  H+  H301  1  0.11092840  0.13014134  0.67313989  1
  H+  H302  1  0.82403863  0.90843448  0.40532273  1
  H+  H303  1  0.26185345  0.61029372  0.48762428  1
  H+  H304  1  0.42362003  0.32784949  0.55706824  1
  H+  H305  1  0.92883100  0.07767602  0.27980517  1
  H+  H306  1  0.49678557  0.96042008  0.76848747  1
  H+  H307  1  0.68098373  0.34103141  0.90486211  1
  H+  H308  1  0.66507400  0.59038153  0.93361835  1
  H+  H309  1  0.38492596  0.77082024  0.33260294  1
  H+  H310  1  0.32747294  0.90811134  0.73667870  1
  H+  H311  1  0.36039749  0.73525043  0.00223202  1
  H+  H312  1  0.42638916  0.56801620  0.24931711  1
  H+  H313  1  0.91356210  0.57208122  0.89509303  1
  H+  H314  1  0.22187553  0.43053438  0.53348852  1
  H+  H315  1  0.66561365  0.82876851  0.23542659  1
  H+  H316  1  0.83656888  0.66422744  0.09018611  1
  H+  H317  1  0.12884048  0.74197557  0.33703550  1
  H+  H318  1  0.82042219  0.62972434  0.76319804  1
  H+  H319  1  0.43960962  0.62868166  0.90117144  1
  H+  H320  1  0.83296226  0.91227502  0.76743572  1
  H+  H321  1  0.82187865  0.14388004  0.07516194  1
  H+  H322  1  0.66778767  0.07898525  0.56908494  1
  H+  H323  1  0.32317490  0.68225538  0.06398879  1
  H+  H324  1  0.35063360  0.46979962  0.01403684  1
  H+  H325  1  0.89422427  0.86344518  0.34168051  1
  H+  H326  1  0.35969792  0.85656433  0.83628687  1
  H+  H327  1  0.57122015  0.91397663  0.72446176  1
  H+  H328  1  0.77790780  0.64187736  -0.00064563  1
  H+  H329  1  0.91252951  0.82072761  0.57185336  1
  H+  H330  1  0.72522376  0.86256740  0.32968109  1
  H+  H331  1  0.61110209  0.17250222  0.15564494  1
  H+  H332  1  0.65643215  0.07384861  0.88852669  1
  H+  H333  1  0.51977098  0.13569304  0.41580718  1
  H+  H334  1  0.68508936  0.36601666  0.26510519  1
  H+  H335  1  0.84839726  0.40758180  0.06705417  1
  H+  H336  1  0.64269723  0.36545997  0.84771601  1
  H+  H337  1  0.57622613  0.89749544  0.09338500  1
  H+  H338  1  0.92007362  0.58804950  0.22151941  1
  H+  H339  1  0.68169727  0.81165163  0.89411026  1
  H+  H340  1  0.07623561  0.67328959  0.05236603  1
  H+  H341  1  0.12724260  0.84909341  0.98222435  1
  H+  H342  1  0.59179040  0.75839936  0.96480237  1
  H+  H343  1  0.66895345  0.55952727  0.60008326  1
  H+  H344  1  0.47847594  0.42293318  0.63321771  1
  H+  H345  1  0.08495365  0.16371751  0.73183275  1
  H+  H346  1  0.58672669  0.66171138  0.43933887  1
  H+  H347  1  0.87802657  0.12975016  0.17484206  1
  H+  H348  1  0.83655379  0.64881670  0.42364107  1
  H+  H349  1  0.39440446  0.32814114  0.93739044  1
  H+  H350  1  0.40544941  0.28846923  0.32524921  1
  H+  H351  1  0.01668270  0.66717700  0.14528776  1
  H+  H352  1  0.31466262  0.45343604  0.78869413  1
  H+  H353  1  0.09176762  0.91016651  0.40903904  1
  H+  H354  1  0.58510959  0.42419311  0.09156948  1
  H+  H355  1  0.58896807  0.14447488  0.05347615  1
  H+  H356  1  0.14642719  0.01842099  0.99899002  1
  H+  H357  1  0.17803987  0.84189921  0.56647989  1
  H+  H358  1  0.18392168  0.08775734  0.89475103  1
  H+  H359  1  0.82162937  0.42396960  0.72880774  1
  H+  H360  1  0.12493540  0.20397498  0.43852537  1
  H+  H361  1  0.16180596  0.34587844  0.27349285  1
  H+  H362  1  0.58602648  0.66286765  0.76707473  1
  H+  H363  1  1.02747945  0.88533044  0.50315958  1
  H+  H364  1  0.82730622  0.57217840  0.28401968  1
  H+  H365  1  0.15360286  0.81701783  0.88014715  1
  H+  H366  1  0.40176368  0.83478038  0.92557180  1
  H+  H367  1  0.38419707  0.60596864  0.32904063  1
  H+  H368  1  0.90893620  0.06486407  0.56723962  1
  H+  H369  1  0.37552124  0.29657054  0.78602841  1
  H+  H370  1  0.41489429  0.83588804  0.56781818  1
  H+  H371  1  0.78677869  0.60782281  0.66488661  1
  H+  H372  1  1.01915750  0.62327345  0.82049256  1
  H+  H373  1  0.41320820  0.83543488  0.23839530  1
  H+  H374  1  0.79065671  0.97219734  0.11675633  1
  H+  H375  1  0.58765136  0.87471250  -0.01425971  1
  H+  H376  1  0.97883322  0.36781173  0.35309995  1
  H+  H377  1  0.08212290  0.91136775  0.72446904  1
  H+  H378  1  0.16714694  0.35635902  0.58000633  1
  H+  H379  1  0.81510245  0.44491141  0.43699917  1
  H+  H380  1  0.64821264  0.62090829  0.33899801  1
  H+  H381  1  0.90666778  0.32090458  0.25504139  1
  H+  H382  1  0.34947877  0.39465956  0.71709854  1
  H+  H383  1  0.43645033  0.34631225  0.23329024  1
  O2-  O384  1  0.08305741  0.16876014  0.15269734  1
  O2-  O385  1  0.15149835  0.21880643  0.47990801  1
  O2-  O386  1  0.09477521  0.16901415  0.81456135  1
  O2-  O387  1  0.05911477  0.42315267  0.14677003  1
  O2-  O388  1  0.06016576  0.41723829  0.48471091  1
  O2-  O389  1  0.08693767  0.42138452  0.81875366  1
  O2-  O390  1  0.06450475  0.71635145  0.12278011  1
  O2-  O391  1  0.11034604  0.69026240  0.47718215  1
  O2-  O392  1  0.07824174  0.65190177  0.80269503  1
  O2-  O393  1  0.10660067  0.93683753  0.14962133  1
  O2-  O394  1  0.08746105  0.92277336  0.48936755  1
  O2-  O395  1  0.09668286  0.92166481  0.79620436  1
  O2-  O396  1  0.34115037  0.18093936  0.14684177  1
  O2-  O397  1  0.29185102  0.10728274  0.45775474  1
  O2-  O398  1  0.33849244  0.19114749  0.80092525  1
  O2-  O399  1  0.32353579  0.40607318  0.15710099  1
  O2-  O400  1  0.32913810  0.38939761  0.47253138  1
  O2-  O401  1  0.32328756  0.44107798  0.83111548  1
  O2-  O402  1  0.30494430  0.69043588  0.14075053  1
  O2-  O403  1  0.31509653  0.62729132  0.46414182  1
  O2-  O404  1  0.33753768  0.66897732  0.80683032  1
  O2-  O405  1  0.32645365  0.93338500  0.12637719  1
  O2-  O406  1  0.33962009  0.92771185  0.48691280  1
  O2-  O407  1  0.31822919  0.89535470  0.81124949  1
  O2-  O408  1  0.58361736  0.19334868  0.18330820  1
  O2-  O409  1  0.57786312  0.17211725  0.53454215  1
  O2-  O410  1  0.59882750  0.16884480  0.80172820  1
  O2-  O411  1  0.59034887  0.42884769  0.13605097  1
  O2-  O412  1  0.58103269  0.40869222  0.47421066  1
  O2-  O413  1  0.56371068  0.39974361  0.83160587  1
  O2-  O414  1  0.59788082  0.65554133  0.16247791  1
  O2-  O415  1  0.58487390  0.65694315  0.48478071  1
  O2-  O416  1  0.59539175  0.65960975  0.81135528  1
  O2-  O417  1  0.57807185  0.89315996  0.13842362  1
  O2-  O418  1  0.58524887  0.91430906  0.48172400  1
  O2-  O419  1  0.52632924  0.93510270  0.78984577  1
  O2-  O420  1  0.84194198  0.15468813  0.15978288  1
  O2-  O421  1  0.82867882  0.15589156  0.48699592  1
  O2-  O422  1  0.90011597  0.20387870  0.78385753  1
  O2-  O423  1  0.84843135  0.41609711  0.14616403  1
  O2-  O424  1  0.80555247  0.45699623  0.47904359  1
  O2-  O425  1  0.83323012  0.41562501  0.80570016  1
  O2-  O426  1  0.83794537  0.66758235  0.13624188  1
  O2-  O427  1  0.81863823  0.60732122  0.49055537  1
  O2-  O428  1  0.81098344  0.62716662  0.80782587  1
  O2-  O429  1  0.80946499  0.93344780  0.13219130  1
  O2-  O430  1  0.82226898  0.90442028  0.48376212  1
  O2-  O431  1  0.83556357  0.91607603  0.81318867  1
  O2-  O432  1  0.17464860  0.10213829  0.18964413  1
  O2-  O433  1  0.16133219  0.08635620  0.53015384  1
  O2-  O434  1  0.18248901  0.09296410  0.85014778  1
  O2-  O435  1  0.15591916  0.33784842  0.19306706  1
  O2-  O436  1  0.17059129  0.37410969  0.53591824  1
  O2-  O437  1  0.16450152  0.33225428  0.86572084  1
  O2-  O438  1  0.14072310  0.57539082  0.19022135  1
  O2-  O439  1  0.16156802  0.58273448  0.52235974  1
  O2-  O440  1  0.17442900  0.58648620  0.84694990  1
  O2-  O441  1  0.18082094  0.85274654  0.19650712  1
  O2-  O442  1  0.18064193  0.84810991  0.52126812  1
  O2-  O443  1  0.15570773  0.81585346  0.83521986  1
  O2-  O444  1  0.40679018  0.08317139  0.18708869  1
  O2-  O445  1  0.41483605  0.07403363  0.53843800  1
  O2-  O446  1  0.44871601  0.13282823  0.85222827  1
  O2-  O447  1  0.43453073  0.34631420  0.18712171  1
  O2-  O448  1  0.41429411  0.32042399  0.51251215  1
  O2-  O449  1  0.40022064  0.35963271  0.77829656  1
  O2-  O450  1  0.43366099  0.56449340  0.20277966  1
  O2-  O451  1  0.41192595  0.55723561  0.51225601  1
  O2-  O452  1  0.46710460  0.66891395  0.86722849  1
  O2-  O453  1  0.40956955  0.83491694  0.19316152  1
  O2-  O454  1  0.41586965  0.84185064  0.52313787  1
  O2-  O455  1  0.39817857  0.82931321  0.85469197  1
  O2-  O456  1  0.68199489  0.05112786  0.19157401  1
  O2-  O457  1  0.66384478  0.07601284  0.52398994  1
  O2-  O458  1  0.65093490  0.07567649  0.84354795  1
  O2-  O459  1  0.68701909  0.36466517  0.18420443  1
  O2-  O460  1  0.65655689  0.33388018  0.52806930  1
  O2-  O461  1  0.68190111  0.34470019  0.86020643  1
  O2-  O462  1  0.68246950  0.58679415  0.17860789  1
  O2-  O463  1  0.66260567  0.57048637  0.52912733  1
  O2-  O464  1  0.65918655  0.56514537  0.85990714  1
  O2-  O465  1  0.66505862  0.82148866  0.18990258  1
  O2-  O466  1  0.66166387  0.82360609  0.52763962  1
  O2-  O467  1  0.71825936  0.79801751  0.86653851  1
  O2-  O468  1  0.92765742  0.07907791  0.19972885  1
  O2-  O469  1  0.90404204  0.06222451  0.52239206  1
  O2-  O470  1  0.85303465  0.05886916  0.85937388  1
  O2-  O471  1  0.90971195  0.31959089  0.21055069  1
  O2-  O472  1  0.90656656  0.31531832  0.52450851  1
  O2-  O473  1  0.92681887  0.34178266  0.85324921  1
  O2-  O474  1  0.92605822  0.58855667  0.17635363  1
  O2-  O475  1  0.96240251  0.63029612  0.53584878  1
  O2-  O476  1  0.91612316  0.57445073  0.84987018  1
  O2-  O477  1  0.93505944  0.84536453  0.16506184  1
  O2-  O478  1  0.91566552  0.82634664  0.52612914  1
  O2-  O479  1  0.89633736  0.79199877  0.86205063  1
  O2-  O480  1  0.18598394  0.11929873  0.30498792  1
  O2-  O481  1  0.15903935  0.07703646  0.65160240  1
  O2-  O482  1  0.17618076  0.08043990  0.98615349  1
  O2-  O483  1  0.16501845  0.34706826  0.31865581  1
  O2-  O484  1  0.16564783  0.33292930  0.65144225  1
  O2-  O485  1  0.16498342  0.31746971  0.98636266  1
  O2-  O486  1  0.16398846  0.58217281  0.31101219  1
  O2-  O487  1  0.15669581  0.58169116  0.64538903  1
  O2-  O488  1  0.17050761  0.58741932  0.96635934  1
  O2-  O489  1  0.17728189  0.83676296  0.32090274  1
  O2-  O490  1  0.16693122  0.83258883  0.64455274  1
  O2-  O491  1  0.15345391  0.81770353  0.96198205  1
  O2-  O492  1  0.38875332  0.07578892  0.31392001  1
  O2-  O493  1  0.42293360  0.08227254  0.65109124  1
  O2-  O494  1  0.42767758  0.09804849  0.97145625  1
  O2-  O495  1  0.43332707  0.34864057  0.30808340  1
  O2-  O496  1  0.45866527  0.36178223  0.63289513  1
  O2-  O497  1  0.40981306  0.33129768  0.98019966  1
  O2-  O498  1  0.41796451  0.57660435  0.31791816  1
  O2-  O499  1  0.40025949  0.56667394  0.63568729  1
  O2-  O500  1  0.36858747  0.56272437  0.97022244  1
  O2-  O501  1  0.41695932  0.83219227  0.31962668  1
  O2-  O502  1  0.40947950  0.82429960  0.64964188  1
  O2-  O503  1  0.40563536  0.83844102  0.97222043  1
  O2-  O504  1  0.67324745  0.06945964  0.31665406  1
  O2-  O505  1  0.67134517  0.08580998  0.64926383  1
  O2-  O506  1  0.66432846  0.07186514  0.96872534  1
  O2-  O507  1  0.68244018  0.35637530  0.30974573  1
  O2-  O508  1  0.66028424  0.34285727  0.65309270  1
  O2-  O509  1  0.67793285  0.32402829  0.98820684  1
  O2-  O510  1  0.68122464  0.59206440  0.32824465  1
  O2-  O511  1  0.67764046  0.55043544  0.64474441  1
  O2-  O512  1  0.66817622  0.60432699  0.97843671  1
  O2-  O513  1  0.66532614  0.83220172  0.31225623  1
  O2-  O514  1  0.66516788  0.82810083  0.64809019  1
  O2-  O515  1  0.60106535  0.80603259  0.93534065  1
  O2-  O516  1  0.92780057  0.07821459  0.32500640  1
  O2-  O517  1  0.91254316  0.06623409  0.64963633  1
  O2-  O518  1  0.94835139  0.14482866  0.96616454  1
  O2-  O519  1  0.91297974  0.33444553  0.34894303  1
  O2-  O520  1  0.90590595  0.31749259  0.59150274  1
  O2-  O521  1  0.91957594  0.33097252  0.96850600  1
  O2-  O522  1  0.88403267  0.58144737  0.29479218  1
  O2-  O523  1  0.89025071  0.59825544  0.66388935  1
  O2-  O524  1  0.91016292  0.57288589  0.97434462  1
  O2-  O525  1  0.92698711  0.83391693  0.33300618  1
  O2-  O526  1  0.91144978  0.81712900  0.64780251  1
  O2-  O527  1  0.93579662  0.83872585  1.01301022  1
  O2-  O528  1  0.08151900  0.15474735  0.02909878  1
  O2-  O529  1  0.09348083  0.18375551  0.36403790  1
  O2-  O530  1  0.08010270  0.16151630  0.68696641  1
  O2-  O531  1  0.05773522  0.37059426  0.02171381  1
  O2-  O532  1  0.07793175  0.42191797  0.36477002  1
  O2-  O533  1  0.08859855  0.41377934  0.69174747  1
  O2-  O534  1  0.07535475  0.65906724  0.00861688  1
  O2-  O535  1  0.09673453  0.67879069  0.35187793  1
  O2-  O536  1  0.06726331  0.66625566  0.68116415  1
  O2-  O537  1  0.10094731  0.91511783  0.02426505  1
  O2-  O538  1  0.09252087  0.90406731  0.36433685  1
  O2-  O539  1  0.07513517  0.90729112  0.67846404  1
  O2-  O540  1  0.34133233  0.17509791  0.02086220  1
  O2-  O541  1  0.34847158  0.18905645  0.34943254  1
  O2-  O542  1  0.32588159  0.14509485  0.69264843  1
  O2-  O543  1  0.32773455  0.41189780  0.03240682  1
  O2-  O544  1  0.33345828  0.41227379  0.35192157  1
  O2-  O545  1  0.32074760  0.42624370  0.70330531  1
  O2-  O546  1  0.33103247  0.67605743  0.01964947  1
  O2-  O547  1  0.33342912  0.65855768  0.34881115  1
  O2-  O548  1  0.32268724  0.65502980  0.68318948  1
  O2-  O549  1  0.30650559  0.94540809  0.01515671  1
  O2-  O550  1  0.34065960  0.91740427  0.36543497  1
  O2-  O551  1  0.33037712  0.91182880  0.69082076  1
  O2-  O552  1  0.59144795  0.15326456  0.00970896  1
  O2-  O553  1  0.61731305  0.18352869  0.29227705  1
  O2-  O554  1  0.58032703  0.16577600  0.68806745  1
  O2-  O555  1  0.58042508  0.41178722  0.00521833  1
  O2-  O556  1  0.59577050  0.42768951  0.35313315  1
  O2-  O557  1  0.61253872  0.38171881  0.68066853  1
  O2-  O558  1  0.56622793  0.67507895  0.00517581  1
  O2-  O559  1  0.58534567  0.66860087  0.36112317  1
  O2-  O560  1  0.54954766  0.68271460  0.69758820  1
  O2-  O561  1  0.57113910  0.91044736  0.01094501  1
  O2-  O562  1  0.58126756  0.91072911  0.35964235  1
  O2-  O563  1  0.58194450  0.91483670  0.68017216  1
  O2-  O564  1  0.81146817  0.13750497  0.03100268  1
  O2-  O565  1  0.83391368  0.15135613  0.35938522  1
  O2-  O566  1  0.84156144  0.17128707  0.66964031  1
  O2-  O567  1  0.84511869  0.40597643  0.02160035  1
  O2-  O568  1  0.83803046  0.43996355  0.35508124  1
  O2-  O569  1  0.81278755  0.43070147  0.68482766  1
  O2-  O570  1  0.83582451  0.66168955  0.01647214  1
  O2-  O571  1  0.84199028  0.67136504  0.38074469  1
  O2-  O572  1  0.84450166  0.64260144  0.68429550  1
  O2-  O573  1  0.81069469  0.88515996  0.00740884  1
  O2-  O574  1  0.82526978  0.90964900  0.35981620  1
  O2-  O575  1  0.83041578  0.90245677  0.69182883  1
