# generated using pymatgen
data_H2O
_symmetry_space_group_name_H-M   'P 1'
_cell_length_a   17.98773367
_cell_length_b   17.98322447
_cell_length_c   21.97242531
_cell_angle_alpha   89.95419190
_cell_angle_beta   90.01301892
_cell_angle_gamma   120.02826897
_symmetry_Int_Tables_number   1
_chemical_formula_structural   H2O
_chemical_formula_sum   'H384 O192'
_cell_volume   6153.59221337
_cell_formula_units_Z   192
loop_
 _symmetry_equiv_pos_site_id
 _symmetry_equiv_pos_as_xyz
  1  'x, y, z'
loop_
 _atom_type_symbol
 _atom_type_oxidation_number
  H+  1.0
  O2-  -2.0
loop_
 _atom_site_type_symbol
 _atom_site_label
 _atom_site_symmetry_multiplicity
 _atom_site_fract_x
 _atom_site_fract_y
 _atom_site_fract_z
 _atom_site_occupancy
  H+  H0  1  0.88933628  0.51015488  -0.00187924  1
  H+  H1  1  0.88194777  0.90705649  0.45660929  1
  H+  H2  1  0.63066090  0.86667853  0.84605986  1
  H+  H3  1  -0.00698326  0.62967073  0.49276574  1
  H+  H4  1  0.44049182  0.99657414  0.82234176  1
  H+  H5  1  0.49396103  0.60862699  0.49936462  1
  H+  H6  1  0.16526231  0.13805527  0.92148907  1
  H+  H7  1  0.07151855  0.65836818  0.08428540  1
  H+  H8  1  0.63228110  0.15201489  1.01211324  1
  H+  H9  1  0.09580002  0.41383642  0.90204436  1
  H+  H10  1  0.37775439  1.02668581  0.33401470  1
  H+  H11  1  0.88452383  0.52276600  0.83043307  1
  H+  H12  1  0.10789327  0.23725830  0.32740923  1
  H+  H13  1  0.85796678  0.11998894  0.16462442  1
  H+  H14  1  0.87594930  0.76154871  0.17089155  1
  H+  H15  1  0.33560773  0.52318080  0.63475674  1
  H+  H16  1  0.82218002  0.16410220  0.39985932  1
  H+  H17  1  0.86999464  0.23078606  0.01462738  1
  H+  H18  1  0.92266445  0.83432180  0.71074839  1
  H+  H19  1  0.70795391  0.85943640  0.66379950  1
  H+  H20  1  0.98695636  0.61478286  0.82346434  1
  H+  H21  1  0.10255793  0.41478664  0.67683722  1
  H+  H22  1  0.11756834  0.62715130  0.48474140  1
  H+  H23  1  0.39863583  0.61662161  0.65455836  1
  H+  H24  1  0.33117051  0.66983658  0.75543308  1
  H+  H25  1  0.37878432  0.87372878  0.33199627  1
  H+  H26  1  0.61989769  0.50034398  0.51994364  1
  H+  H27  1  0.84853295  0.61890503  0.15384183  1
  H+  H28  1  0.64877123  0.06448945  0.45228934  1
  H+  H29  1  0.11898787  0.87932489  0.47642016  1
  H+  H30  1  0.12301805  0.41000997  0.10785365  1
  H+  H31  1  0.58562035  0.11519757  0.49894961  1
  H+  H32  1  0.38759205  0.86820281  0.17529524  1
  H+  H33  1  0.75311811  0.12016256  0.99989345  1
  H+  H34  1  0.60870954  0.61481618  0.49717150  1
  H+  H35  1  0.62954359  0.35767036  0.32758779  1
  H+  H36  1  0.38038996  0.73421143  1.01126676  1
  H+  H37  1  0.14333610  0.37103784  0.33138511  1
  H+  H38  1  0.77061698  0.12569543  0.49217482  1
  H+  H39  1  0.43625308  0.10186302  0.62901359  1
  H+  H40  1  0.24142212  0.39336553  1.06993901  1
  H+  H41  1  0.62203568  0.26052003  0.17306175  1
  H+  H42  1  0.86965368  0.34255130  0.17869484  1
  H+  H43  1  0.73454108  0.63633636  0.30111535  1
  H+  H44  1  0.09784672  0.61915233  0.81746206  1
  H+  H45  1  0.64450375  0.37130986  0.84270744  1
  H+  H46  1  0.68076075  0.34664374  0.90276619  1
  H+  H47  1  0.89660617  0.86641755  0.03198030  1
  H+  H48  1  0.40881271  0.08527525  0.23415222  1
  H+  H49  1  0.66976511  0.13223327  0.65515006  1
  H+  H50  1  0.63022502  0.77239102  0.17375040  1
  H+  H51  1  0.01603178  0.38090578  0.33745800  1
  H+  H52  1  0.48549063  0.36189881  0.66502726  1
  H+  H53  1  0.46842726  0.11422078  0.32945649  1
  H+  H54  1  0.45527290  0.12760414  0.73418738  1
  H+  H55  1  1.02741365  0.63152125  0.32671544  1
  H+  H56  1  0.13289215  0.52219973  0.84589586  1
  H+  H57  1  0.15065686  0.51667822  0.16503860  1
  H+  H58  1  0.15038467  0.31485171  0.53546271  1
  H+  H59  1  0.36608219  0.39249748  0.14319065  1
  H+  H60  1  0.11021343  0.14033405  0.83030405  1
  H+  H61  1  0.36064099  0.98048861  0.16418716  1
  H+  H62  1  0.64848997  0.62154996  0.99863093  1
  H+  H63  1  0.13480618  0.10628360  0.64625400  1
  H+  H64  1  -0.00633088  0.85608501  0.31743370  1
  H+  H65  1  0.24555245  0.62180582  0.99156341  1
  H+  H66  1  0.52965204  0.39435549  0.00611324  1
  H+  H67  1  0.85304863  0.36490512  0.49436677  1
  H+  H68  1  0.61662992  -0.00860916  0.49925560  1
  H+  H69  1  0.87396754  0.98667391  0.47699577  1
  H+  H70  1  0.37374335  0.48281685  0.49468035  1
  H+  H71  1  0.60619178  0.13549972  0.34319678  1
  H+  H72  1  0.74195154  0.11602510  0.84375360  1
  H+  H73  1  0.05790963  0.64550610  0.19432124  1
  H+  H74  1  0.38162771  0.84463125  0.84159257  1
  H+  H75  1  0.60568991  0.13012813  0.16477303  1
  H+  H76  1  0.92926931  0.71492389  0.48902762  1
  H+  H77  1  0.74221416  0.86707253  0.17601707  1
  H+  H78  1  0.39275964  0.87688679  0.00265428  1
  H+  H79  1  0.86971575  0.14088139  0.82619443  1
  H+  H80  1  0.58809009  0.93140890  0.07033816  1
  H+  H81  1  0.90955811  0.13189131  0.99432742  1
  H+  H82  1  0.37615732  0.42559626  1.07564349  1
  H+  H83  1  0.12847559  1.02598953  0.17350659  1
  H+  H84  1  0.90244835  0.86866655  0.89345010  1
  H+  H85  1  0.77363438  0.38833069  0.65881905  1
  H+  H86  1  0.87148335  0.38619749  0.66226825  1
  H+  H87  1  0.62850653  0.49527748  0.15812601  1
  H+  H88  1  0.23671975  0.32745135  0.67513963  1
  H+  H89  1  0.13426354  0.86595672  0.17838655  1
  H+  H90  1  0.27272915  0.39501323  0.33788174  1
  H+  H91  1  0.64897336  0.28157905  0.99433589  1
  H+  H92  1  0.11312813  0.21585797  0.46751353  1
  H+  H93  1  0.16778732  0.57164967  0.25953215  1
  H+  H94  1  0.16810356  0.08318660  0.25775878  1
  H+  H95  1  0.89239763  0.51572597  0.32043577  1
  H+  H96  1  0.20508314  0.18077581  1.01256710  1
  H+  H97  1  0.36051793  0.77085498  0.51970941  1
  H+  H98  1  0.89113034  0.36633823  0.84082159  1
  H+  H99  1  0.77858476  0.63563045  0.00294932  1
  H+  H100  1  0.81409513  0.73504233  0.43864746  1
  H+  H101  1  0.61858788  0.25470900  0.51192366  1
  H+  H102  1  0.85739626  0.72274399  0.82280840  1
  H+  H103  1  0.50995388  0.83948044  0.49273750  1
  H+  H104  1  0.77113951  0.92845116  0.03082073  1
  H+  H105  1  0.52378598  0.65101384  0.31339371  1
  H+  H106  1  0.61803893  0.38706006  0.67599677  1
  H+  H107  1  0.51126154  0.89213798  0.34266567  1
  H+  H108  1  0.13057187  0.01437341  0.49433331  1
  H+  H109  1  0.58543907  0.66074567  0.74422355  1
  H+  H110  1  0.85971575  0.74989421  0.55648080  1
  H+  H111  1  1.00197595  0.16461568  0.19386761  1
  H+  H112  1  0.09884066  0.93702439  0.81462457  1
  H+  H113  1  0.62076476  0.48057695  0.00855678  1
  H+  H114  1  0.38680389  0.28215462  0.66674063  1
  H+  H115  1  0.37970027  0.63414160  0.49832218  1
  H+  H116  1  0.97682782  0.38230133  0.66621718  1
  H+  H117  1  0.34700018  0.67405195  0.06944882  1
  H+  H118  1  0.12699456  0.10176886  0.49032636  1
  H+  H119  1  0.13373820  0.40481562  -0.00067046  1
  H+  H120  1  0.24271577  0.63664535  0.65329118  1
  H+  H121  1  0.92404238  0.08691819  0.55830209  1
  H+  H122  1  0.42275463  0.51008074  0.69279803  1
  H+  H123  1  0.23100922  0.85807742  0.47479569  1
  H+  H124  1  0.87250401  0.48307766  0.65575011  1
  H+  H125  1  0.22116784  0.00189227  0.99852830  1
  H+  H126  1  0.13957249  0.26961290  0.81138999  1
  H+  H127  1  0.76646529  0.37968550  0.33842607  1
  H+  H128  1  0.35574254  0.10548756  0.65116118  1
  H+  H129  1  0.23262379  0.60439947  0.50696183  1
  H+  H130  1  0.75522197  0.36680594  0.15899070  1
  H+  H131  1  0.75583267  0.13257472  0.33902120  1
  H+  H132  1  0.15307445  0.55070937  0.66925118  1
  H+  H133  1  0.61705720  0.85101431  0.67256659  1
  H+  H134  1  0.35002885  0.13875252  0.47208769  1
  H+  H135  1  -0.02227439  0.36204228  0.85151693  1
  H+  H136  1  0.61580255  0.70539910  0.48179794  1
  H+  H137  1  0.65884187  0.28266859  0.66324768  1
  H+  H138  1  0.26853993  0.14732439  0.66726653  1
  H+  H139  1  0.13545446  0.35924643  0.47985954  1
  H+  H140  1  0.21369173  0.61358718  0.82550695  1
  H+  H141  1  0.40128153  -0.00820457  0.80621245  1
  H+  H142  1  0.10091622  0.15293992  0.17686601  1
  H+  H143  1  0.98075962  0.61108869  0.64847415  1
  H+  H144  1  0.51585438  0.13040060  0.16195580  1
  H+  H145  1  0.26518887  0.16185813  0.83645549  1
  H+  H146  1  0.77985041  0.38519566  1.00443194  1
  H+  H147  1  0.62887729  0.78746458  0.31569772  1
  H+  H148  1  0.15030914  0.86457774  0.63640484  1
  H+  H149  1  0.32709504  0.17780015  0.38693794  1
  H+  H150  1  0.64625439  0.55250914  0.31937542  1
  H+  H151  1  0.02466263  0.86367965  0.47100941  1
  H+  H152  1  0.32621133  0.91386879  0.07455692  1
  H+  H153  1  0.13075034  0.89182389  0.33026210  1
  H+  H154  1  0.46658227  0.35814860  0.51234413  1
  H+  H155  1  0.86657130  0.22855306  0.82663199  1
  H+  H156  1  0.14382462  0.77199587  0.32486885  1
  H+  H157  1  0.51941582  0.88775479  0.16174364  1
  H+  H158  1  0.90411415  0.13203748  0.65397862  1
  H+  H159  1  0.71138397  0.59600330  0.66874528  1
  H+  H160  1  0.28029974  0.39223551  0.48792925  1
  H+  H161  1  0.92558071  0.57533344  0.94048956  1
  H+  H162  1  0.02277493  0.13119705  0.47852297  1
  H+  H163  1  0.85718687  0.21893573  0.49359839  1
  H+  H164  1  0.72624146  0.59712483  0.15535952  1
  H+  H165  1  0.62492796  0.60257442  0.67349462  1
  H+  H166  1  0.36693609  0.48388313  0.84038244  1
  H+  H167  1  0.52736148  0.38647949  0.83474948  1
  H+  H168  1  0.60048726  0.89114162  0.33774728  1
  H+  H169  1  0.13631546  0.60621301  0.31600006  1
  H+  H170  1  0.40124776  0.61554002  0.00279711  1
  H+  H171  1  0.56270012  0.15022809  0.69265532  1
  H+  H172  1  0.85406992  0.61623526  0.67104111  1
  H+  H173  1  0.62676952  0.26791701  0.33084629  1
  H+  H174  1  0.73381041  0.85227020  0.48058387  1
  H+  H175  1  0.92553413  0.74849553  0.98345217  1
  H+  H176  1  0.97970879  0.13589753  0.29336899  1
  H+  H177  1  0.60547650  0.37465328  0.15626067  1
  H+  H178  1  0.17341994  0.34290540  0.76269015  1
  H+  H179  1  0.12460079  0.71938316  0.47820774  1
  H+  H180  1  0.51888557  0.43384396  0.34914988  1
  H+  H181  1  0.90425670  0.78629546  0.34366955  1
  H+  H182  1  0.46562568  0.15706288  0.76113323  1
  H+  H183  1  0.64232756  0.24918084  0.83654728  1
  H+  H184  1  0.62772023  0.01850348  0.17811685  1
  H+  H185  1  1.05262111  0.17180948  0.99405177  1
  H+  H186  1  0.23055065  0.83253343  1.00450439  1
  H+  H187  1  0.40408504  0.77431371  0.85422921  1
  H+  H188  1  0.39000042  0.78004579  0.17614718  1
  H+  H189  1  0.98679991  0.36517231  0.98916626  1
  H+  H190  1  0.15111658  0.02001789  0.32070225  1
  H+  H191  1  0.89454735  0.28507660  0.66458859  1
  H+  H192  1  0.64310831  0.84247960  0.49208225  1
  H+  H193  1  0.54372999  0.65152270  0.00957378  1
  H+  H194  1  0.55864904  0.51500683  0.39359291  1
  H+  H195  1  0.00398945  0.89576615  0.67170227  1
  H+  H196  1  0.31938190  0.96288625  0.01627723  1
  H+  H197  1  0.64148102  0.87533520  1.00056652  1
  H+  H198  1  0.35833048  0.72497474  0.33218759  1
  H+  H199  1  0.58328533  0.41208503  0.77272092  1
  H+  H200  1  0.70910759  0.34159012  0.50514190  1
  H+  H201  1  0.11997639  0.74773276  0.84527161  1
  H+  H202  1  0.46998833  0.36254341  0.17072621  1
  H+  H203  1  0.87288515  0.34918362  0.32906575  1
  H+  H204  1  0.84679530  0.86706523  0.17179856  1
  H+  H205  1  0.71888617  0.09898638  0.17540108  1
  H+  H206  1  0.27249084  0.89043580  0.16568990  1
  H+  H207  1  0.36567151  0.01726581  0.47409754  1
  H+  H208  1  0.83970947  0.89006475  0.81759694  1
  H+  H209  1  0.71632565  0.88390045  0.31512595  1
  H+  H210  1  0.63182076  0.74122448  1.01156079  1
  H+  H211  1  0.52575031  0.64155801  0.84160385  1
  H+  H212  1  0.23340903  0.86440190  0.33274745  1
  H+  H213  1  0.41982694  0.41435036  0.69301916  1
  H+  H214  1  0.61639206  0.66139190  0.30623081  1
  H+  H215  1  0.21784014  0.11649092  0.17432527  1
  H+  H216  1  0.61565165  0.98198259  0.83190322  1
  H+  H217  1  0.67765401  0.85080795  0.94285251  1
  H+  H218  1  0.14189557  0.42185911  0.58097352  1
  H+  H219  1  -0.02514117  0.11362987  0.83794632  1
  H+  H220  1  0.11023016  0.73049888  0.66382420  1
  H+  H221  1  0.89047895  0.11315642  0.49940132  1
  H+  H222  1  0.65868453  0.12475201  0.85148204  1
  H+  H223  1  0.60969316  -0.11146099  0.15979337  1
  H+  H224  1  0.13099854  0.48916182  0.98063883  1
  H+  H225  1  1.06086343  0.87912663  1.00095499  1
  H+  H226  1  0.86614576  1.00940698  0.03257424  1
  H+  H227  1  0.22587252  0.36405370  0.18790229  1
  H+  H228  1  0.27407514  0.63293192  0.32773518  1
  H+  H229  1  0.38608699  0.61846086  0.30888823  1
  H+  H230  1  0.37997094  0.11617240  0.17493114  1
  H+  H231  1  0.53081446  0.90679448  1.00931185  1
  H+  H232  1  0.41633226  0.53294046  0.99502044  1
  H+  H233  1  0.18844329  0.38610107  0.62185297  1
  H+  H234  1  0.83286044  0.68827368  0.65146302  1
  H+  H235  1  0.26184943  0.13661261  0.47448555  1
  H+  H236  1  0.11812749  0.64753771  0.66773820  1
  H+  H237  1  0.64964029  0.02376583  1.00033470  1
  H+  H238  1  0.24162216  0.12270942  0.31786844  1
  H+  H239  1  0.14415511  1.05436038  0.88684540  1
  H+  H240  1  0.38346278  0.61463928  0.85257058  1
  H+  H241  1  0.12825740  0.38859978  0.17513534  1
  H+  H242  1  0.11548117  0.71214486  1.01693423  1
  H+  H243  1  0.35364375  0.22998677  0.17122999  1
  H+  H244  1  0.86520737  0.91320247  0.67461451  1
  H+  H245  1  0.36826710  0.90057157  0.43743614  1
  H+  H246  1  0.35087508  0.96936773  0.67161792  1
  H+  H247  1  0.15082449  0.60760132  0.16513715  1
  H+  H248  1  0.23185952  0.85294597  0.64177115  1
  H+  H249  1  0.88215144  0.02825351  0.84006086  1
  H+  H250  1  0.01819639  0.88303542  0.15868074  1
  H+  H251  1  0.52443553  0.89503528  0.83738045  1
  H+  H252  1  0.37991995  0.37623758  0.51203580  1
  H+  H253  1  0.39288570  0.52882891  0.15305372  1
  H+  H254  1  0.12134607  0.73950941  0.16999825  1
  H+  H255  1  0.35345030  0.12365269  0.85975204  1
  H+  H256  1  0.13535265  0.86856971  0.02195616  1
  H+  H257  1  0.60972993  0.47266515  0.67904915  1
  H+  H258  1  0.01214439  0.62182663  0.01873455  1
  H+  H259  1  0.66235988  0.57203326  0.21585833  1
  H+  H260  1  0.85141613  0.99767464  0.30668342  1
  H+  H261  1  0.36395447  0.14975079  0.33037427  1
  H+  H262  1  0.80315596  0.04797193  0.11544335  1
  H+  H263  1  0.52629586  0.64746373  0.15977047  1
  H+  H264  1  0.50000380  0.12164025  0.49277449  1
  H+  H265  1  0.11948444  0.25341458  0.18291047  1
  H+  H266  1  0.28429136  0.64182057  0.15902007  1
  H+  H267  1  0.88921062  0.61842290  0.83122205  1
  H+  H268  1  0.64713461  0.37016957  0.99289613  1
  H+  H269  1  0.11018361  0.47058406  0.48795566  1
  H+  H270  1  0.15128782  0.84734059  0.84747138  1
  H+  H271  1  0.88838543  0.87574847  1.00008640  1
  H+  H272  1  0.55793170  0.15771532  0.83028886  1
  H+  H273  1  0.26453832  0.35290117  0.64850352  1
  H+  H274  1  0.97494626  0.35614472  0.50170066  1
  H+  H275  1  0.94985903  0.32849499  0.17916500  1
  H+  H276  1  0.37295371  0.70722469  0.60599694  1
  H+  H277  1  0.39857075  0.37352441  0.85147289  1
  H+  H278  1  0.11346532  0.21187672  0.67040007  1
  H+  H279  1  0.24944175  0.81995483  0.81805528  1
  H+  H280  1  0.13725270  0.98666548  0.65345233  1
  H+  H281  1  0.62659237  0.02075058  0.33169188  1
  H+  H282  1  0.77729292  0.39617252  0.82599825  1
  H+  H283  1  0.79952542  0.15702689  0.66673262  1
  H+  H284  1  0.39732339  0.29697095  0.32386678  1
  H+  H285  1  0.38817815  0.38105923  0.32377848  1
  H+  H286  1  0.30716316  0.14541364  0.01717462  1
  H+  H287  1  0.94726263  0.58303047  0.15180607  1
  H+  H288  1  0.37185233  0.05609918  0.54138073  1
  H+  H289  1  0.07158221  0.65856632  0.75716085  1
  H+  H290  1  0.86048560  0.62188896  0.00759504  1
  H+  H291  1  0.89270134  0.58401321  0.47833376  1
  H+  H292  1  0.43244546  0.57982687  0.56083673  1
  H+  H293  1  0.68951226  0.09874661  0.59411905  1
  H+  H294  1  0.59339573  0.17596745  0.06808877  1
  H+  H295  1  0.30477702  0.05215643  0.95394071  1
  H+  H296  1  0.39160219  0.44888496  0.75887924  1
  H+  H297  1  0.35137525  0.24968442  0.01710448  1
  H+  H298  1  0.85420887  0.23314542  0.33640587  1
  H+  H299  1  0.32002334  0.17893700  0.11008792  1
  H+  H300  1  0.17057989  0.58272967  0.56368449  1
  H+  H301  1  0.07437257  0.41398104  0.42687576  1
  H+  H302  1  0.42364282  0.84750308  0.94394429  1
  H+  H303  1  0.92014396  0.33063225  0.56375429  1
  H+  H304  1  0.16914453  0.08473603  0.58412856  1
  H+  H305  1  0.10433550  0.47286045  0.33460494  1
  H+  H306  1  0.02019952  0.12906741  0.66515970  1
  H+  H307  1  0.92238742  0.58656284  0.58779199  1
  H+  H308  1  0.08698268  0.91370136  0.10382308  1
  H+  H309  1  0.89927725  0.31419515  0.26859725  1
  H+  H310  1  0.30714113  0.86020905  0.75683572  1
  H+  H311  1  0.62999246  0.18947841  0.74428756  1
  H+  H312  1  0.67047125  0.33099109  0.59841609  1
  H+  H313  1  0.41142837  0.84486521  0.27222701  1
  H+  H314  1  0.59087745  0.36200301  0.49386901  1
  H+  H315  1  0.83447457  0.66449469  0.76164051  1
  H+  H316  1  0.40458459  0.75298476  0.66769416  1
  H+  H317  1  0.28468912  0.39215624  0.81915194  1
  H+  H318  1  0.38419420  0.90268874  0.67662686  1
  H+  H319  1  0.81111448  0.78982345  0.89757092  1
  H+  H320  1  0.83409829  0.94809653  0.37019261  1
  H+  H321  1  0.82569844  0.92520626  0.12204881  1
  H+  H322  1  0.85092537  0.18119341  0.73056483  1
  H+  H323  1  0.82838901  0.65777916  0.09417707  1
  H+  H324  1  0.41450586  0.34659810  0.57866658  1
  H+  H325  1  0.65979976  0.08051116  0.27120966  1
  H+  H326  1  0.68768097  0.08598415  0.93500752  1
  H+  H327  1  0.58133295  0.40906756  0.09409821  1
  H+  H328  1  0.41748060  0.34920890  0.23192333  1
  H+  H329  1  0.32070687  0.17345447  0.73119072  1
  H+  H330  1  0.84657660  0.44867795  0.49894286  1
  H+  H331  1  0.86924593  0.38296556  0.00916311  1
  H+  H332  1  0.55278483  0.90932075  0.73847175  1
  H+  H333  1  0.91038433  0.81644580  0.23185372  1
  H+  H334  1  0.95992070  0.79411992  0.92020917  1
  H+  H335  1  0.75758987  0.89785228  0.82467282  1
  H+  H336  1  0.36040503  0.24028813  0.83228141  1
  H+  H337  1  0.93120896  0.09245677  0.93752186  1
  H+  H338  1  0.63603670  0.52158183  0.84315426  1
  H+  H339  1  0.18376841  0.83140499  0.54087489  1
  H+  H340  1  0.48101759  0.88289858  0.62690664  1
  H+  H341  1  0.17088843  0.83827843  0.23674459  1
  H+  H342  1  0.91448631  0.56786600  0.25875448  1
  H+  H343  1  0.16469258  0.31126182  1.03975358  1
  H+  H344  1  0.88689960  0.03550996  0.65444304  1
  H+  H345  1  0.08201613  0.43504782  0.74375311  1
  H+  H346  1  0.38398971  0.05519107  0.86955840  1
  H+  H347  1  0.91453384  0.32781783  0.93926583  1
  H+  H348  1  0.72472779  0.60935130  0.83974097  1
  H+  H349  1  0.65135919  0.56518098  0.57524153  1
  H+  H350  1  0.57431252  0.16288958  0.40311054  1
  H+  H351  1  0.41897874  0.58861422  0.91128529  1
  H+  H352  1  0.07834965  0.15098525  0.76304132  1
  H+  H353  1  0.65314836  0.32407464  0.23090044  1
  H+  H354  1  0.12752628  0.93037986  0.71267455  1
  H+  H355  1  0.16843719  0.79617646  0.94442463  1
  H+  H356  1  0.37524241  0.64699020  0.15703340  1
  H+  H357  1  0.09819741  0.92335878  0.38717351  1
  H+  H358  1  0.87708240  0.80469562  0.61616240  1
  H+  H359  1  0.61390709  0.63973090  0.84121129  1
  H+  H360  1  0.60660668  0.71404713  0.68365087  1
  H+  H361  1  0.86142160  0.49565516  0.16482603  1
  H+  H362  1  0.19821517  0.98532977  0.80672767  1
  H+  H363  1  0.34074382  0.42901489  0.39385494  1
  H+  H364  1  0.63565723  0.77959725  0.84956811  1
  H+  H365  1  0.42643398  0.34397114  0.91075158  1
  H+  H366  1  0.06553312  0.16002933  0.37470004  1
  H+  H367  1  0.38808953  0.53074142  0.31439972  1
  H+  H368  1  0.56604793  0.41075675  0.44157682  1
  H+  H369  1  0.08706652  0.65822589  0.38612418  1
  H+  H370  1  0.83517493  0.15470109  0.06882188  1
  H+  H371  1  0.82034032  0.39687515  0.10122166  1
  H+  H372  1  0.59512216  0.68230245  0.10598964  1
  H+  H373  1  0.83418650  0.42149692  0.76437304  1
  H+  H374  1  0.82178296  0.93743443  0.72672645  1
  H+  H375  1  0.67018686  0.58572641  0.93807234  1
  H+  H376  1  0.18771710  0.60585730  0.93265925  1
  H+  H377  1  0.82432524  0.40445203  0.39801703  1
  H+  H378  1  0.56282004  0.89147346  0.43358506  1
  H+  H379  1  0.11812206  0.38330963  0.83938745  1
  H+  H380  1  0.41317689  0.57857638  0.21840759  1
  H+  H381  1  0.65793762  0.84103540  0.23414384  1
  H+  H382  1  0.30469875  0.73263037  0.78620691  1
  H+  H383  1  0.17430476  0.34416528  0.26808117  1
  O2-  O384  1  0.07649527  0.18959216  0.16687375  1
  O2-  O385  1  0.08021093  0.15358180  0.45888492  1
  O2-  O386  1  0.07921346  0.16458356  0.80719182  1
  O2-  O387  1  0.10420694  0.41900387  0.14786343  1
  O2-  O388  1  0.07696128  0.41002064  0.47328841  1
  O2-  O389  1  0.08848960  0.41317912  0.85584598  1
  O2-  O390  1  0.09087825  0.67547823  0.15816079  1
  O2-  O391  1  0.08828472  0.65702422  0.46759111  1
  O2-  O392  1  0.06438191  0.64875572  0.80288111  1
  O2-  O393  1  0.08059612  0.91554238  0.14889612  1
  O2-  O394  1  0.08560568  0.90762928  0.46418955  1
  O2-  O395  1  0.14596772  0.93076700  0.79840598  1
  O2-  O396  1  0.32313158  0.16994645  0.15477361  1
  O2-  O397  1  0.32139031  0.17050086  0.45845653  1
  O2-  O398  1  0.32067877  0.18173100  0.81503049  1
  O2-  O399  1  0.35110634  0.42740696  0.11608627  1
  O2-  O400  1  0.34350040  0.41986148  0.48098289  1
  O2-  O401  1  0.34875934  0.42777730  0.81879294  1
  O2-  O402  1  0.34513150  0.67929165  0.14494706  1
  O2-  O403  1  0.34380454  0.66286001  0.49208734  1
  O2-  O404  1  0.31367894  0.68253099  0.79428934  1
  O2-  O405  1  0.33247545  0.91945855  0.14950071  1
  O2-  O406  1  0.32867287  0.92213767  0.42968863  1
  O2-  O407  1  0.29684197  0.82267118  0.79284126  1
  O2-  O408  1  0.57713654  0.16121813  0.14805480  1
  O2-  O409  1  0.56367726  0.15287372  0.48486827  1
  O2-  O410  1  0.61932824  0.18777561  0.82102135  1
  O2-  O411  1  0.57986422  0.40969888  0.14045571  1
  O2-  O412  1  0.55606756  0.38969299  0.48418135  1
  O2-  O413  1  0.58751132  0.41635369  0.81808601  1
  O2-  O414  1  0.58912655  0.68433183  0.15081965  1
  O2-  O415  1  0.57881522  0.64180529  0.47563196  1
  O2-  O416  1  0.58645653  0.67343068  0.82798903  1
  O2-  O417  1  0.58002637  0.91964913  0.14527563  1
  O2-  O418  1  0.56599125  0.88632206  0.47903768  1
  O2-  O419  1  0.58168447  0.92197402  0.81689463  1
  O2-  O420  1  0.81079133  0.10196699  0.13280673  1
  O2-  O421  1  0.82902836  0.16015456  0.47496700  1
  O2-  O422  1  0.83779557  0.16914058  0.80935637  1
  O2-  O423  1  0.81729803  0.39686620  0.14663566  1
  O2-  O424  1  0.81774341  0.39137533  0.48097861  1
  O2-  O425  1  0.83822484  0.42690781  0.80907881  1
  O2-  O426  1  0.82006312  0.65171619  0.13981806  1
  O2-  O427  1  0.91900521  0.76422500  0.48235109  1
  O2-  O428  1  0.83788127  0.66428963  0.80764489  1
  O2-  O429  1  0.81575614  0.90025461  0.16425961  1
  O2-  O430  1  0.84570980  0.93272542  0.45232408  1
  O2-  O431  1  0.81727371  0.92806906  0.80637395  1
  O2-  O432  1  0.15754212  0.08511580  0.19088095  1
  O2-  O433  1  0.15897404  0.07476108  0.50903133  1
  O2-  O434  1  0.16851755  0.11559519  0.87923478  1
  O2-  O435  1  0.16838905  0.33930993  0.20474413  1
  O2-  O436  1  0.16769426  0.32942864  0.49295115  1
  O2-  O437  1  0.17407783  0.33462736  0.80656678  1
  O2-  O438  1  0.18112729  0.57908159  0.18104808  1
  O2-  O439  1  0.17069479  0.57409255  0.51905979  1
  O2-  O440  1  0.15597127  0.58579113  0.84517992  1
  O2-  O441  1  0.16682509  0.83650689  0.19081145  1
  O2-  O442  1  0.17474444  0.82634270  0.49597535  1
  O2-  O443  1  0.16287550  0.80299109  0.86396294  1
  O2-  O444  1  0.41038803  0.08532199  0.18863731  1
  O2-  O445  1  0.39234131  0.07087364  0.49905921  1
  O2-  O446  1  0.36515102  0.09036509  0.89088290  1
  O2-  O447  1  0.41106446  0.33879477  0.18701645  1
  O2-  O448  1  0.40891106  0.34259046  0.53259320  1
  O2-  O449  1  0.42552389  0.33972861  0.86477106  1
  O2-  O450  1  0.41910802  0.58641998  0.17281026  1
  O2-  O451  1  0.42905321  0.58000806  0.51611763  1
  O2-  O452  1  0.41362720  0.58463450  0.86497885  1
  O2-  O453  1  0.42000757  0.84078144  0.19156120  1
  O2-  O454  1  0.39343452  0.74219468  0.52927895  1
  O2-  O455  1  0.42284078  0.83398161  0.86535804  1
  O2-  O456  1  0.66131093  0.07922207  0.19347220  1
  O2-  O457  1  0.64810004  0.05629478  0.49634151  1
  O2-  O458  1  0.68381232  0.08868592  0.86443392  1
  O2-  O459  1  0.65245963  0.32314779  0.18566956  1
  O2-  O460  1  0.65115609  0.31696759  0.52404065  1
  O2-  O461  1  0.68137745  0.34661634  0.85648215  1
  O2-  O462  1  0.66306969  0.56242366  0.17056411  1
  O2-  O463  1  0.65229140  0.56169671  0.53018080  1
  O2-  O464  1  0.66699683  0.58241823  0.85827467  1
  O2-  O465  1  0.66438824  0.83746315  0.18746667  1
  O2-  O466  1  0.67647156  0.81322012  0.49756218  1
  O2-  O467  1  0.66564259  0.84168679  0.86200351  1
  O2-  O468  1  0.93790266  0.15144188  0.21325354  1
  O2-  O469  1  0.92327792  0.08512473  0.51283929  1
  O2-  O470  1  0.91654736  0.08783301  0.85651338  1
  O2-  O471  1  0.89317261  0.30824779  0.19724511  1
  O2-  O472  1  0.91481698  0.32439553  0.51889199  1
  O2-  O473  1  0.91399811  0.33091036  0.85798221  1
  O2-  O474  1  0.89388809  0.55978110  0.17484863  1
  O2-  O475  1  0.93529187  0.61876907  0.50898813  1
  O2-  O476  1  0.91992257  0.58583402  0.84474815  1
  O2-  O477  1  0.90466591  0.82123456  0.18666829  1
  O2-  O478  1  0.83667066  0.74913624  0.59725132  1
  O2-  O479  1  0.86234509  0.81604593  0.87176861  1
  O2-  O480  1  0.17797185  0.08243709  0.30473405  1
  O2-  O481  1  0.17326111  0.08576825  0.63019239  1
  O2-  O482  1  0.14824419  0.15176903  0.99058854  1
  O2-  O483  1  0.17701835  0.34451245  0.31749496  1
  O2-  O484  1  0.13201276  0.37900478  0.61225366  1
  O2-  O485  1  0.18479479  0.37156485  1.05074542  1
  O2-  O486  1  0.16286934  0.57070772  0.30492683  1
  O2-  O487  1  0.18012903  0.60435966  0.64483874  1
  O2-  O488  1  0.18534014  0.59440632  0.97653910  1
  O2-  O489  1  0.17474787  0.83373936  0.31197952  1
  O2-  O490  1  0.17346243  0.82661052  0.62375359  1
  O2-  O491  1  0.16938401  0.79300126  0.98969471  1
  O2-  O492  1  0.40836056  0.08599091  0.31444452  1
  O2-  O493  1  0.37373433  0.06740628  0.63020402  1
  O2-  O494  1  0.28428632  0.03952165  0.99708293  1
  O2-  O495  1  0.42772982  0.35852715  0.31146033  1
  O2-  O496  1  0.42387464  0.34366722  0.65300275  1
  O2-  O497  1  0.42671536  0.36081649  0.98701653  1
  O2-  O498  1  0.41644993  0.58737509  0.29334811  1
  O2-  O499  1  0.39609762  0.56125817  0.64428584  1
  O2-  O500  1  0.43650925  0.59307968  0.98292511  1
  O2-  O501  1  0.41050049  0.84380012  0.31759164  1
  O2-  O502  1  0.46649680  0.86884099  0.67018049  1
  O2-  O503  1  0.42794188  0.85114768  0.98910698  1
  O2-  O504  1  0.65963698  0.08261023  0.31708450  1
  O2-  O505  1  0.70408710  0.10877921  0.63719194  1
  O2-  O506  1  0.68851973  0.08604068  0.98223445  1
  O2-  O507  1  0.65875312  0.32777460  0.31288855  1
  O2-  O508  1  0.68391203  0.34073418  0.64354300  1
  O2-  O509  1  0.67945823  0.34217572  0.97716804  1
  O2-  O510  1  0.67551014  0.59840650  0.28792273  1
  O2-  O511  1  0.65004343  0.56648144  0.65668936  1
  O2-  O512  1  0.67559153  0.58793985  0.98333916  1
  O2-  O513  1  0.65343977  0.85000542  0.30278382  1
  O2-  O514  1  0.64587639  0.81830241  0.66271764  1
  O2-  O515  1  0.67876620  0.85160353  0.98830218  1
  O2-  O516  1  0.92231812  0.10376088  0.27066910  1
  O2-  O517  1  0.92698515  0.09535858  0.63798791  1
  O2-  O518  1  0.94071595  0.10172750  0.98222637  1
  O2-  O519  1  0.90061709  0.31523454  0.31545872  1
  O2-  O520  1  0.91902325  0.34648636  0.64738256  1
  O2-  O521  1  0.92276962  0.33201604  0.98430716  1
  O2-  O522  1  0.92612243  0.57391967  0.30285396  1
  O2-  O523  1  0.92073426  0.57477516  0.63237373  1
  O2-  O524  1  0.92195846  0.57351944  0.98513781  1
  O2-  O525  1  0.93477763  0.81183171  0.30550714  1
  O2-  O526  1  0.94108907  0.87503679  0.67709915  1
  O2-  O527  1  0.97849116  0.78961404  0.96092606  1
  O2-  O528  1  0.11619762  0.21285027  -0.00740292  1
  O2-  O529  1  0.06598641  0.17435318  0.33144342  1
  O2-  O530  1  0.08060325  0.15173002  0.68282764  1
  O2-  O531  1  0.09933026  0.42435741  -0.02441803  1
  O2-  O532  1  0.07445766  0.41454193  0.35480070  1
  O2-  O533  1  0.07815336  0.44513959  0.70037032  1
  O2-  O534  1  0.07173010  0.65253944  0.03859662  1
  O2-  O535  1  0.08896517  0.66382242  0.34105571  1
  O2-  O536  1  0.08088671  0.67100918  0.68170482  1
  O2-  O537  1  0.11399677  0.90943148  0.02593776  1
  O2-  O538  1  0.10303763  0.92683912  0.34172319  1
  O2-  O539  1  0.11021383  0.92579644  0.66961894  1
  O2-  O540  1  0.30478187  0.19527442  0.03484955  1
  O2-  O541  1  0.33228953  0.18084122  0.34039935  1
  O2-  O542  1  0.32735789  0.17621683  0.68605067  1
  O2-  O543  1  0.40656644  0.42265853  0.00179393  1
  O2-  O544  1  0.33711518  0.42782094  0.34912631  1
  O2-  O545  1  0.42809899  0.46592070  0.71862371  1
  O2-  O546  1  0.35173582  0.67301111  0.02361473  1
  O2-  O547  1  0.33565695  0.66306730  0.33909644  1
  O2-  O548  1  0.36591408  0.69474124  0.65070633  1
  O2-  O549  1  0.32165064  0.91061362  0.02861823  1
  O2-  O550  1  0.32951251  0.92639047  0.36094399  1
  O2-  O551  1  0.33389412  0.90989021  0.68437465  1
  O2-  O552  1  0.60441698  0.18473530  0.02353251  1
  O2-  O553  1  0.57771704  0.16778832  0.35793086  1
  O2-  O554  1  0.62457054  0.18677218  0.69859298  1
  O2-  O555  1  0.59084749  0.41874390  0.02075846  1
  O2-  O556  1  0.57231913  0.47547915  0.37225074  1
  O2-  O557  1  0.58202905  0.40933469  0.69280097  1
  O2-  O558  1  0.60380597  0.68019223  0.02517591  1
  O2-  O559  1  0.58527253  0.68672376  0.32569223  1
  O2-  O560  1  0.58192422  0.65408299  0.69953548  1
  O2-  O561  1  0.59232437  0.93581899  0.02431794  1
  O2-  O562  1  0.57217812  0.92068703  0.35868358  1
  O2-  O563  1  0.55643890  0.90969377  0.69276487  1
  O2-  O564  1  0.83791931  0.16732493  0.02334189  1
  O2-  O565  1  0.81832410  0.16701525  0.35409496  1
  O2-  O566  1  0.85888616  0.19013170  0.68539621  1
  O2-  O567  1  0.83913354  0.41430985  0.02298821  1
  O2-  O568  1  0.82686719  0.40547296  0.35297324  1
  O2-  O569  1  0.83901336  0.42135751  0.67419779  1
  O2-  O570  1  0.83912478  0.66126076  0.01920129  1
  O2-  O571  1  0.86749828  0.73732759  0.42555748  1
  O2-  O572  1  0.82524236  0.64709484  0.68610275  1
  O2-  O573  1  0.81649494  0.97061198  0.05848260  1
  O2-  O574  1  0.81800858  0.94138602  0.32672710  1
  O2-  O575  1  0.82817237  0.93847200  0.68160596  1
