# generated using pymatgen
data_H2O
_symmetry_space_group_name_H-M   'P 1'
_cell_length_a   17.99533513
_cell_length_b   17.99495473
_cell_length_c   22.00663517
_cell_angle_alpha   89.99205615
_cell_angle_beta   90.01906831
_cell_angle_gamma   120.00121479
_symmetry_Int_Tables_number   1
_chemical_formula_structural   H2O
_chemical_formula_sum   'H384 O192'
_cell_volume   6171.48435029
_cell_formula_units_Z   192
loop_
 _symmetry_equiv_pos_site_id
 _symmetry_equiv_pos_as_xyz
  1  'x, y, z'
loop_
 _atom_type_symbol
 _atom_type_oxidation_number
  H+  1.0
  O2-  -2.0
loop_
 _atom_site_type_symbol
 _atom_site_label
 _atom_site_symmetry_multiplicity
 _atom_site_fract_x
 _atom_site_fract_y
 _atom_site_fract_z
 _atom_site_occupancy
  H+  H0  1  0.64317491  0.52790271  0.65657556  1
  H+  H1  1  0.33898935  0.17307023  0.74682319  1
  H+  H2  1  0.60435491  0.38493980  0.96649244  1
  H+  H3  1  0.13459383  0.11236320  0.99567014  1
  H+  H4  1  0.88714447  0.84778254  0.18184965  1
  H+  H5  1  0.36643663  0.22817835  0.15075406  1
  H+  H6  1  0.85176535  0.13119228  0.67766634  1
  H+  H7  1  0.22365709  0.61930981  0.99357661  1
  H+  H8  1  0.49454564  0.39468223  0.91154020  1
  H+  H9  1  0.17655265  0.33907154  0.61000973  1
  H+  H10  1  0.16633737  0.32051048  0.15099418  1
  H+  H11  1  0.01376608  0.88306474  0.82768292  1
  H+  H12  1  0.10481785  0.12862776  0.66405174  1
  H+  H13  1  0.13978483  0.85910804  0.16839636  1
  H+  H14  1  0.60875678  0.13665357  0.49557880  1
  H+  H15  1  0.54298586  0.41183140  0.82226146  1
  H+  H16  1  0.36463649  0.98582306  0.34244961  1
  H+  H17  1  0.66490447  0.59424339  0.92972901  1
  H+  H18  1  0.70908587  0.11264084  0.51406145  1
  H+  H19  1  0.52110443  0.13680890  0.16047975  1
  H+  H20  1  0.88574208  0.35457552  0.98389754  1
  H+  H21  1  0.07472904  0.91081820  0.06134714  1
  H+  H22  1  0.51725378  0.63233990  0.49310336  1
  H+  H23  1  0.63979888  0.02553557  0.17748703  1
  H+  H24  1  0.40419894  0.38044613  0.31499119  1
  H+  H25  1  0.24475889  0.39415710  0.51393589  1
  H+  H26  1  0.62850394  0.35970207  0.32516997  1
  H+  H27  1  0.07136842  0.43115026  0.07203360  1
  H+  H28  1  0.38808971  0.11542351  0.32389952  1
  H+  H29  1  0.91235166  0.09632161  0.31967984  1
  H+  H30  1  0.43881355  0.62482057  0.66937461  1
  H+  H31  1  0.77029391  0.86366950  0.17686276  1
  H+  H32  1  0.10768983  0.21463597  0.80804537  1
  H+  H33  1  0.65553189  -0.00260213  0.86259415  1
  H+  H34  1  0.58946789  0.70592442  0.33960180  1
  H+  H35  1  0.23601725  0.87643886  0.32157884  1
  H+  H36  1  0.24480763  0.11561495  0.31952819  1
  H+  H37  1  0.39820781  0.37103390  0.16418226  1
  H+  H38  1  0.26635242  0.33812331  0.68562453  1
  H+  H39  1  0.02330548  0.87958928  0.49283772  1
  H+  H40  1  0.86452755  -0.04216531  0.31020948  1
  H+  H41  1  0.38827746  0.11493739  0.16790826  1
  H+  H42  1  0.22632239  0.36805293  1.03973232  1
  H+  H43  1  0.13839899  0.86458245  0.83820448  1
  H+  H44  1  0.88347676  0.85513642  0.33038292  1
  H+  H45  1  -0.01023816  0.61181785  0.68073908  1
  H+  H46  1  0.85612344  0.97070823  0.68068558  1
  H+  H47  1  0.71433281  0.11150588  0.33210721  1
  H+  H48  1  0.14180035  0.52316170  0.32687772  1
  H+  H49  1  0.63306294  0.60936456  0.50694287  1
  H+  H50  1  0.35451904  0.73142847  0.34587881  1
  H+  H51  1  0.38416131  0.02513615  0.50690643  1
  H+  H52  1  0.33225858  0.15352841  0.05994228  1
  H+  H53  1  0.61555296  0.23353016  0.67011092  1
  H+  H54  1  0.92719745  0.33680467  0.42243971  1
  H+  H55  1  0.12600528  0.98599274  0.33979469  1
  H+  H56  1  0.62237538  0.23883503  0.34077151  1
  H+  H57  1  0.12565331  0.68573232  0.74120949  1
  H+  H58  1  0.69731375  0.40461356  -0.01204602  1
  H+  H59  1  0.14237231  0.35909852  0.67089226  1
  H+  H60  1  0.87333024  0.85989162  0.84168597  1
  H+  H61  1  0.37096526  0.23196671  0.48780531  1
  H+  H62  1  0.89704881  0.49550334  1.01192053  1
  H+  H63  1  0.11608019  0.43071656  0.85602250  1
  H+  H64  1  0.61378053  0.48181903  0.16614647  1
  H+  H65  1  0.10243555  -0.02701417  1.00298485  1
  H+  H66  1  0.72489422  0.86595865  0.65662114  1
  H+  H67  1  0.11909574  0.73557671  0.82942143  1
  H+  H68  1  -0.02410315  0.62563840  -0.00363437  1
  H+  H69  1  0.11246242  0.22596851  0.03182251  1
  H+  H70  1  0.85043992  0.59679440  0.64383183  1
  H+  H71  1  0.39208018  0.87589811  0.65881733  1
  H+  H72  1  0.76410354  0.39541732  0.33464263  1
  H+  H73  1  0.26792446  0.88328851  0.15847451  1
  H+  H74  1  1.01364521  0.17710858  0.45555328  1
  H+  H75  1  0.37397429  0.38461420  0.47447692  1
  H+  H76  1  0.84053239  0.71336859  0.00400572  1
  H+  H77  1  0.38452522  0.12620865  0.65951370  1
  H+  H78  1  0.38515847  0.02455762  0.16781423  1
  H+  H79  1  0.31252377  0.06978477  0.81655753  1
  H+  H80  1  0.60588421  0.62939808  0.16147420  1
  H+  H81  1  0.89051806  0.53192741  0.49211269  1
  H+  H82  1  0.02389523  0.20419501  0.48389631  1
  H+  H83  1  0.13022120  0.85833444  0.49676023  1
  H+  H84  1  0.61318296  0.47455607  0.33634826  1
  H+  H85  1  0.88306850  0.52073538  0.32370425  1
  H+  H86  1  0.09971444  0.48442570  0.00828107  1
  H+  H87  1  0.38007482  0.27905311  0.02276580  1
  H+  H88  1  0.88323088  0.61364507  0.17256971  1
  H+  H89  1  0.88810691  0.11146331  0.99224378  1
  H+  H90  1  0.37265996  0.99061546  0.67791942  1
  H+  H91  1  0.85392368  0.27693942  0.33192017  1
  H+  H92  1  0.16129155  0.00116687  0.51909862  1
  H+  H93  1  0.43212840  0.30789167  0.86903892  1
  H+  H94  1  0.35852078  0.88787581  0.15484867  1
  H+  H95  1  0.27757008  0.13794355  0.15464025  1
  H+  H96  1  0.07614194  0.17735105  0.18032368  1
  H+  H97  1  0.51462072  0.38609273  0.16286818  1
  H+  H98  1  0.11054068  0.72694689  0.16033970  1
  H+  H99  1  0.48605038  0.36727456  0.49464974  1
  H+  H100  1  0.39159927  0.52391383  0.16885225  1
  H+  H101  1  0.34900028  0.87231868  0.99589276  1
  H+  H102  1  0.37116790  0.14311918  0.48739175  1
  H+  H103  1  0.97980522  0.62714620  0.83980878  1
  H+  H104  1  0.46502439  0.86126795  0.50727537  1
  H+  H105  1  0.65971273  0.08429957  0.26990575  1
  H+  H106  1  0.63444546  0.86600953  0.65466360  1
  H+  H107  1  0.97431739  0.61581855  0.17079705  1
  H+  H108  1  0.71998944  0.60598367  0.17264969  1
  H+  H109  1  0.14058133  0.40311862  0.33819422  1
  H+  H110  1  0.57839419  0.66034043  0.43610117  1
  H+  H111  1  0.33439699  0.37337132  0.74077709  1
  H+  H112  1  0.62710049  0.76784585  0.50725024  1
  H+  H113  1  0.22463485  0.60265863  0.65430055  1
  H+  H114  1  0.62291737  0.88723291  0.16606196  1
  H+  H115  1  0.97215472  0.35641310  0.98850770  1
  H+  H116  1  0.85049648  0.50770260  0.63827412  1
  H+  H117  1  0.38047564  0.52283741  0.48272925  1
  H+  H118  1  0.13581336  0.62152043  0.17295146  1
  H+  H119  1  1.05730761  0.15147999  0.32568351  1
  H+  H120  1  0.36407880  0.89600190  0.34428757  1
  H+  H121  1  0.98706810  0.37119078  0.47896563  1
  H+  H122  1  0.02570938  0.87726611  0.15586313  1
  H+  H123  1  0.77725040  0.88419139  0.99675691  1
  H+  H124  1  1.00770106  0.61982872  0.64911677  1
  H+  H125  1  0.98999209  0.09325640  0.16375371  1
  H+  H126  1  0.59488248  0.17695533  0.40845081  1
  H+  H127  1  0.88618432  0.18134915  0.15302159  1
  H+  H128  1  0.16516757  0.31005149  0.87026837  1
  H+  H129  1  0.84021938  0.13379465  0.50528987  1
  H+  H130  1  0.35422965  0.62774505  0.15680074  1
  H+  H131  1  0.35663115  0.72459886  0.49356400  1
  H+  H132  1  0.40727684  0.13999022  0.82026361  1
  H+  H133  1  0.16600968  0.58839777  0.93311498  1
  H+  H134  1  0.13394065  0.35220717  0.81873652  1
  H+  H135  1  0.54866175  0.87442184  0.01699282  1
  H+  H136  1  0.10521998  0.61825989  0.33712925  1
  H+  H137  1  0.85132029  0.39154843  0.33670098  1
  H+  H138  1  0.87957834  0.77331264  0.83797512  1
  H+  H139  1  0.62531478  0.72944144  0.66711216  1
  H+  H140  1  0.32093704  0.23983507  0.71070677  1
  H+  H141  1  0.26788580  0.64120230  0.34237693  1
  H+  H142  1  0.48069737  0.84160464  0.85733997  1
  H+  H143  1  0.95092060  0.45690986  0.04141202  1
  H+  H144  1  0.36014032  0.64679735  0.00780385  1
  H+  H145  1  0.60254182  0.11723263  1.00718207  1
  H+  H146  1  0.97795631  0.35797217  0.66665613  1
  H+  H147  1  0.12675856  0.10937189  0.83215069  1
  H+  H148  1  0.12957450  0.86338932  0.99093724  1
  H+  H149  1  0.10319683  0.97013210  0.82438804  1
  H+  H150  1  0.86638323  0.22337920  0.82501018  1
  H+  H151  1  0.64594569  0.36699125  0.65774150  1
  H+  H152  1  0.87380684  0.88346708  0.99167024  1
  H+  H153  1  0.84605436  0.70735310  0.34069851  1
  H+  H154  1  0.31829510  0.40641075  -0.02195904  1
  H+  H155  1  0.66701155  0.35943838  0.89477292  1
  H+  H156  1  0.91224325  0.82793515  0.39023557  1
  H+  H157  1  0.36253415  0.72345415  0.83286720  1
  H+  H158  1  0.85763729  0.16538080  0.35704537  1
  H+  H159  1  0.62830604  0.27368041  0.16841188  1
  H+  H160  1  0.37737922  0.52768188  1.00348241  1
  H+  H161  1  0.22920750  0.86213608  0.49556007  1
  H+  H162  1  0.64612708  0.54182168  0.83363379  1
  H+  H163  1  0.62468391  0.76132064  0.17260966  1
  H+  H164  1  0.73569242  0.62852049  0.83832678  1
  H+  H165  1  0.46990832  0.61460891  0.99690718  1
  H+  H166  1  0.64877677  0.76886949  0.99787725  1
  H+  H167  1  0.85282736  -0.02524613  0.82924938  1
  H+  H168  1  0.12927165  0.41237943  0.15353941  1
  H+  H169  1  0.47512400  0.11233656  0.50429315  1
  H+  H170  1  0.60244451  0.97221395  0.49972552  1
  H+  H171  1  0.38133813  0.39253938  0.83777506  1
  H+  H172  1  0.61035646  0.38504488  0.16338476  1
  H+  H173  1  0.25708380  0.38817334  0.31080810  1
  H+  H174  1  0.62218905  0.60056857  0.32455537  1
  H+  H175  1  0.37839053  1.00497276  -0.00498963  1
  H+  H176  1  0.08067959  0.10291403  0.53511511  1
  H+  H177  1  0.85937121  0.63920037  0.48882552  1
  H+  H178  1  0.12608138  0.40739108  0.50056585  1
  H+  H179  1  0.61152855  0.13984421  0.16265637  1
  H+  H180  1  0.76906355  0.63785618  0.67336870  1
  H+  H181  1  0.32843037  0.91849457  0.43390126  1
  H+  H182  1  0.87029175  0.64825654  0.82785853  1
  H+  H183  1  0.87953950  0.61159153  -0.00349439  1
  H+  H184  1  0.41307970  0.27561317  0.64829132  1
  H+  H185  1  0.25381652  0.70053138  0.70565848  1
  H+  H186  1  0.44567592  0.87257967  0.98787430  1
  H+  H187  1  0.39253176  0.47834508  0.64136612  1
  H+  H188  1  1.02103296  0.64244757  0.49243669  1
  H+  H189  1  0.16090843  0.74479058  0.68012795  1
  H+  H190  1  0.82485788  0.42301551  0.42702019  1
  H+  H191  1  0.47344457  0.86659637  0.33458725  1
  H+  H192  1  0.85579479  0.71533681  0.15573343  1
  H+  H193  1  0.14326620  0.60726033  0.65904651  1
  H+  H194  1  0.72870675  0.36331699  0.50400720  1
  H+  H195  1  0.71906996  0.11323081  0.66193818  1
  H+  H196  1  1.02098046  0.89373894  0.70103938  1
  H+  H197  1  0.61521245  0.23025040  0.49381489  1
  H+  H198  1  0.35178828  0.42193871  0.41324071  1
  H+  H199  1  0.29428120  0.40436910  0.15409783  1
  H+  H200  1  0.22086373  0.11887241  0.67129412  1
  H+  H201  1  0.85763550  0.23027378  0.49186600  1
  H+  H202  1  0.48098818  0.09980491  0.00062745  1
  H+  H203  1  0.13047976  0.76153432  0.49548723  1
  H+  H204  1  0.39740763  0.75219415  0.17780847  1
  H+  H205  1  0.37697161  0.78155579  0.66247259  1
  H+  H206  1  0.40391485  0.35605822  0.64832191  1
  H+  H207  1  0.11085273  0.64271577  0.00462846  1
  H+  H208  1  0.85161103  1.00744166  0.51525507  1
  H+  H209  1  0.63144422  0.41157376  0.81937263  1
  H+  H210  1  0.54045506  0.39170151  0.66616044  1
  H+  H211  1  0.88718515  0.27273610  0.66364791  1
  H+  H212  1  0.35216617  0.62838474  0.83030746  1
  H+  H213  1  0.96632560  0.10548402  0.66355580  1
  H+  H214  1  0.53431228  0.88387024  0.16610118  1
  H+  H215  1  0.28510806  0.37599594  0.82359349  1
  H+  H216  1  0.83331572  0.40814047  0.71872325  1
  H+  H217  1  0.60798281  0.51404350  0.97262874  1
  H+  H218  1  0.04995173  0.05947661  0.52218458  1
  H+  H219  1  0.75868551  0.89262045  0.83154815  1
  H+  H220  1  -0.00848771  0.35614353  0.83253705  1
  H+  H221  1  0.85284306  0.48310412  0.16149107  1
  H+  H222  1  0.73160807  0.37859907  0.83848275  1
  H+  H223  1  0.73191766  0.36001480  0.65356982  1
  H+  H224  1  0.11827905  0.49207432  0.49385230  1
  H+  H225  1  0.75152744  0.87320626  0.50023194  1
  H+  H226  1  0.60922148  -0.02829137  0.66896712  1
  H+  H227  1  0.73066412  0.09575483  0.84979382  1
  H+  H228  1  0.86217116  0.36764973  0.17991821  1
  H+  H229  1  0.17183345  0.29451997  0.31176175  1
  H+  H230  1  0.07972211  0.66889889  0.09999777  1
  H+  H231  1  0.11560292  -0.03309569  0.15572449  1
  H+  H232  1  0.86828014  0.38426874  0.66046893  1
  H+  H233  1  0.16448319  0.30640748  0.50642992  1
  H+  H234  1  0.50828867  0.60924157  0.34417035  1
  H+  H235  1  0.35416272  0.73481717  1.00683855  1
  H+  H236  1  0.99389557  0.60880381  0.32944907  1
  H+  H237  1  0.37590513  0.51711173  0.84474798  1
  H+  H238  1  0.11678650  0.46960752  0.67718388  1
  H+  H239  1  0.61952939  0.47897248  0.49195549  1
  H+  H240  1  0.86023887  -0.03993704  0.18275004  1
  H+  H241  1  0.64709564  1.02231127  0.00241514  1
  H+  H242  1  0.13169264  0.09282313  0.17137655  1
  H+  H243  1  0.88426035  0.86043770  0.50870592  1
  H+  H244  1  0.88310043  0.77112618  0.50550429  1
  H+  H245  1  0.24319454  0.29445726  0.44518941  1
  H+  H246  1  0.62661036  0.65723047  0.82449927  1
  H+  H247  1  0.64194940  0.61851446  0.65794031  1
  H+  H248  1  0.61144441  0.63335225  0.00196852  1
  H+  H249  1  0.66047434  0.83069662  0.56704427  1
  H+  H250  1  0.14758604  0.87525010  0.32021716  1
  H+  H251  1  0.76854779  0.63656644  0.49574462  1
  H+  H252  1  0.82748724  0.88949071  0.25810765  1
  H+  H253  1  0.86094555  0.27950940  0.17628714  1
  H+  H254  1  0.60736999  0.97335252  0.34417051  1
  H+  H255  1  0.27300516  0.12518331  0.00080425  1
  H+  H256  1  0.62041201  0.38957565  0.49147022  1
  H+  H257  1  0.86543575  0.39312368  0.47822278  1
  H+  H258  1  0.52252814  0.88282807  0.66642416  1
  H+  H259  1  0.35305580  0.88327368  0.49474091  1
  H+  H260  1  0.52287207  0.14756564  0.67101901  1
  H+  H261  1  0.37137330  0.23662975  0.33467355  1
  H+  H262  1  -0.02455082  0.10688557  0.83183065  1
  H+  H263  1  0.24287689  0.87443564  0.66102001  1
  H+  H264  1  0.45144162  0.66382694  0.68856728  1
  H+  H265  1  0.58462733  0.66431393  0.06324945  1
  H+  H266  1  0.28077332  0.88450076  0.82514479  1
  H+  H267  1  0.66624513  0.58224031  0.56623152  1
  H+  H268  1  0.60419077  0.88343104  0.49790842  1
  H+  H269  1  0.13207145  0.35853110  1.04248597  1
  H+  H270  1  0.86342088  0.35987228  0.81298651  1
  H+  H271  1  0.24736024  0.09182641  0.51684617  1
  H+  H272  1  0.75243206  0.62284379  0.00283347  1
  H+  H273  1  0.11176076  0.73240388  1.00564560  1
  H+  H274  1  0.72578206  0.11583344  0.17575287  1
  H+  H275  1  0.61935867  0.14107025  0.34138092  1
  H+  H276  1  0.36872978  0.88343177  0.82463995  1
  H+  H277  1  0.51724590  0.63041110  0.16252737  1
  H+  H278  1  0.38521070  0.10279200  0.99459294  1
  H+  H279  1  0.65534609  0.86143108  1.00551676  1
  H+  H280  1  0.37700222  0.60813220  0.49686030  1
  H+  H281  1  0.71425424  0.60550070  0.32630721  1
  H+  H282  1  0.86022667  0.72441737  0.67441206  1
  H+  H283  1  0.64926415  0.08043814  0.57255736  1
  H+  H284  1  0.88036175  0.85893617  0.66494685  1
  H+  H285  1  0.96866229  0.85963036  0.98990374  1
  H+  H286  1  0.86294833  0.22177624  1.00047868  1
  H+  H287  1  0.03440191  0.89810836  0.34457471  1
  H+  H288  1  0.15704595  0.08148755  0.93346252  1
  H+  H289  1  0.89229689  0.33463195  0.27256263  1
  H+  H290  1  0.42677868  0.33976450  0.55314601  1
  H+  H291  1  0.83591106  0.67217897  0.76679227  1
  H+  H292  1  0.92475052  0.32932846  0.88935048  1
  H+  H293  1  0.66932823  0.33294439  0.56417096  1
  H+  H294  1  0.59966390  0.91479107  0.07842823  1
  H+  H295  1  0.47098263  0.77176076  0.22367170  1
  H+  H296  1  0.08756819  0.91580037  0.43385855  1
  H+  H297  1  0.13662302  0.34304212  0.94097999  1
  H+  H298  1  0.10227759  0.21652201  0.66846019  1
  H+  H299  1  0.16841514  0.83743887  0.89818286  1
  H+  H300  1  0.81039806  0.65379917  0.40043190  1
  H+  H301  1  -0.02121476  0.11390537  -0.00435456  1
  H+  H302  1  0.34463304  0.92553369  0.73536783  1
  H+  H303  1  0.85657578  0.06344652  0.17073555  1
  H+  H304  1  0.71595430  0.36587559  0.16830265  1
  H+  H305  1  0.65585443  0.32739935  0.26469394  1
  H+  H306  1  0.39574211  0.57534953  0.90483691  1
  H+  H307  1  0.62673832  0.85458628  0.33144537  1
  H+  H308  1  0.07008951  0.14535942  0.07350621  1
  H+  H309  1  0.60212811  0.67698981  0.72925815  1
  H+  H310  1  0.91771026  0.83466563  0.60731595  1
  H+  H311  1  0.81785509  0.65318024  0.09768480  1
  H+  H312  1  0.80832856  0.16652555  0.41587412  1
  H+  H313  1  0.11257619  0.64272533  0.49385514  1
  H+  H314  1  0.32424867  0.91255596  0.05770237  1
  H+  H315  1  0.91962360  0.59670291  0.89824642  1
  H+  H316  1  0.57264354  0.14990907  0.06587965  1
  H+  H317  1  0.41657932  0.83264426  0.27504320  1
  H+  H318  1  0.33120878  0.66838561  0.09830661  1
  H+  H319  1  0.22571103  0.62191291  0.17245860  1
  H+  H320  1  0.87142815  -0.01820864  0.99360382  1
  H+  H321  1  0.16512827  0.58602092  0.26783135  1
  H+  H322  1  0.09371175  0.41647848  0.74005310  1
  H+  H323  1  0.58735520  0.41658178  0.39728011  1
  H+  H324  1  0.57551841  0.17334805  0.76028108  1
  H+  H325  1  0.31822655  0.67888663  0.73986191  1
  H+  H326  1  0.89996452  0.58160884  0.55329068  1
  H+  H327  1  0.65434211  0.83861571  0.90837590  1
  H+  H328  1  0.37368611  0.36287305  0.03371752  1
  H+  H329  1  0.21631595  0.11278533  0.84042074  1
  H+  H330  1  0.77276764  0.13245465  0.00510159  1
  H+  H331  1  0.17628327  0.38700851  0.93871632  1
  H+  H332  1  0.86357733  0.13341858  0.82405733  1
  H+  H333  1  0.07214835  0.65154804  0.39599833  1
  H+  H334  1  0.23178626  0.61951348  0.83809947  1
  H+  H335  1  0.41389804  0.52155534  0.57741564  1
  H+  H336  1  0.83246710  0.16992805  0.09276861  1
  H+  H337  1  0.63041985  0.11415017  0.66343570  1
  H+  H338  1  0.64825019  0.81675363  0.23435941  1
  H+  H339  1  0.16571511  0.58931104  0.56275007  1
  H+  H340  1  0.41287823  0.09500187  0.60028980  1
  H+  H341  1  0.82001556  0.90631566  0.73670789  1
  H+  H342  1  0.18860430  0.35344925  0.22256318  1
  H+  H343  1  0.65984496  0.57724026  0.23351245  1
  H+  H344  1  0.50412548  0.39822994  0.99582900  1
  H+  H345  1  0.92385914  0.06908335  0.25171538  1
  H+  H346  1  0.67275702  0.07420410  0.93941461  1
  H+  H347  1  0.92277681  0.58340932  0.26295018  1
  H+  H348  1  0.18055145  0.83596016  0.60423556  1
  H+  H349  1  0.48520144  0.36740816  0.32113550  1
  H+  H350  1  0.22089463  0.86605321  0.99158100  1
  H+  H351  1  0.22583645  0.62312809  0.50269149  1
  H+  H352  1  0.11659147  0.64526839  0.83118974  1
  H+  H353  1  0.83776372  0.42730586  0.10179954  1
  H+  H354  1  0.42401518  0.34018095  0.22662019  1
  H+  H355  1  0.32558372  0.66774392  0.43199797  1
  H+  H356  1  0.40559006  0.83258755  0.56648239  1
  H+  H357  1  0.40522998  0.82298341  0.90450132  1
  H+  H358  1  0.59677489  0.42658864  0.72815631  1
  H+  H359  1  0.35024787  0.42960811  0.09395828  1
  H+  H360  1  0.81571860  0.91081348  0.44339519  1
  H+  H361  1  0.11569132  0.49172119  0.15930324  1
  H+  H362  1  0.13100762  0.19715749  0.37809423  1
  H+  H363  1  0.92801274  0.80951234  0.22751881  1
  H+  H364  1  0.92202559  0.08458669  0.89455703  1
  H+  H365  1  0.57919297  0.91515084  0.40440264  1
  H+  H366  1  0.41136149  0.07887520  0.26584242  1
  H+  H367  1  0.17885468  0.07549253  0.60825512  1
  H+  H368  1  0.71089027  0.84682027  0.31850800  1
  H+  H369  1  0.77163921  0.30792209  0.78550704  1
  H+  H370  1  0.17725266  0.07387088  0.22670200  1
  H+  H371  1  0.10972857  0.42966258  0.39868864  1
  H+  H372  1  0.14029393  0.53388747  0.83058253  1
  H+  H373  1  0.17368161  0.83728906  0.23047561  1
  H+  H374  1  0.89412918  0.07059326  0.61148519  1
  H+  H375  1  0.93682639  0.09734011  0.51652451  1
  H+  H376  1  0.82218682  0.16281543  0.73512580  1
  H+  H377  1  0.61129784  0.73750454  0.82363768  1
  H+  H378  1  0.06983833  0.14680516  0.75398022  1
  H+  H379  1  0.90836167  0.83055390  0.92860596  1
  H+  H380  1  0.40809077  0.56751965  0.23360624  1
  H+  H381  1  0.34184999  0.17686997  0.39491603  1
  H+  H382  1  0.15977049  0.12059068  0.31394651  1
  H+  H383  1  0.19684905  0.19975893  0.47041473  1
  O2-  O384  1  0.05566682  0.12676416  0.15460440  1
  O2-  O385  1  0.18625272  0.24054496  0.44830696  1
  O2-  O386  1  0.07323702  0.15105072  0.79989966  1
  O2-  O387  1  0.08998450  0.43315443  0.14138423  1
  O2-  O388  1  0.09332472  0.43104796  0.47983599  1
  O2-  O389  1  0.09012771  0.40085030  0.81817275  1
  O2-  O390  1  0.07688073  0.66604206  0.14554428  1
  O2-  O391  1  0.08285413  0.67376115  0.47712530  1
  O2-  O392  1  0.08766049  0.67504570  0.81336049  1
  O2-  O393  1  0.08497085  0.90718751  0.13880117  1
  O2-  O394  1  0.08432573  0.90443544  0.47892768  1
  O2-  O395  1  0.07523027  0.90762837  0.81609074  1
  O2-  O396  1  0.33758181  0.16674302  0.13875054  1
  O2-  O397  1  0.33907591  0.17141576  0.47215489  1
  O2-  O398  1  0.34816867  0.13216814  0.81639006  1
  O2-  O399  1  0.35521589  0.42953756  0.13937770  1
  O2-  O400  1  0.33289426  0.40078391  0.45552150  1
  O2-  O401  1  0.34692548  0.41210729  0.81356416  1
  O2-  O402  1  0.33073372  0.66528325  0.14447635  1
  O2-  O403  1  0.32542948  0.66420186  0.47860673  1
  O2-  O404  1  0.32646697  0.66426178  0.81491728  1
  O2-  O405  1  0.32858197  0.91734673  0.14114096  1
  O2-  O406  1  0.32160545  0.91335289  0.48002277  1
  O2-  O407  1  0.33992072  0.91382182  0.80848904  1
  O2-  O408  1  0.58225534  0.16969771  0.14571084  1
  O2-  O409  1  0.58411567  0.17044964  0.47568196  1
  O2-  O410  1  0.57038885  0.17561759  0.80672120  1
  O2-  O411  1  0.58116523  0.41912161  0.15032309  1
  O2-  O412  1  0.59090888  0.41941533  0.47417554  1
  O2-  O413  1  0.60005884  0.44069575  0.80119890  1
  O2-  O414  1  0.57731294  0.66103246  0.14612667  1
  O2-  O415  1  0.57944248  0.66404302  0.48137284  1
  O2-  O416  1  0.59607060  0.68313293  0.80346695  1
  O2-  O417  1  0.59443628  0.92040447  0.15149424  1
  O2-  O418  1  0.57387141  0.91329768  0.48187409  1
  O2-  O419  1  0.60035380  0.88829150  0.85793527  1
  O2-  O420  1  0.83026309  0.17063999  0.13909907  1
  O2-  O421  1  0.81484487  0.16769432  0.48817013  1
  O2-  O422  1  0.83067450  0.16202483  0.81157983  1
  O2-  O423  1  0.81834628  0.42352939  0.14482443  1
  O2-  O424  1  0.83069537  0.42149363  0.47236342  1
  O2-  O425  1  0.81643500  0.36680791  0.79363619  1
  O2-  O426  1  0.82096311  0.65379690  0.14335630  1
  O2-  O427  1  0.82780368  0.67003884  0.47765138  1
  O2-  O428  1  0.83841396  0.67788831  0.81225755  1
  O2-  O429  1  0.83257055  0.89156120  0.18565759  1
  O2-  O430  1  0.81576915  0.90832614  0.48762063  1
  O2-  O431  1  0.81797824  0.91287681  0.81723567  1
  O2-  O432  1  0.17185468  0.07155162  0.18115116  1
  O2-  O433  1  0.20734758  0.04565589  0.54423444  1
  O2-  O434  1  0.15650507  0.08149685  0.85356328  1
  O2-  O435  1  0.19601468  0.36966706  0.17829202  1
  O2-  O436  1  0.18530053  0.36089146  0.52880064  1
  O2-  O437  1  0.16825572  0.31762389  0.82628977  1
  O2-  O438  1  0.16669459  0.59283329  0.18985903  1
  O2-  O439  1  0.16417198  0.59494716  0.51735112  1
  O2-  O440  1  0.16900526  0.58865478  0.85269205  1
  O2-  O441  1  0.17122437  0.83036912  0.18410808  1
  O2-  O442  1  0.16428097  0.82753117  0.50970860  1
  O2-  O443  1  0.17177391  0.83751077  0.85289246  1
  O2-  O444  1  0.41802228  0.08434512  0.18362942  1
  O2-  O445  1  0.41569474  0.08601265  0.52047632  1
  O2-  O446  1  0.49026984  0.11740629  0.82176172  1
  O2-  O447  1  0.42706892  0.33953489  0.18097851  1
  O2-  O448  1  0.42425949  0.33749528  0.50764093  1
  O2-  O449  1  0.45513326  0.36966470  0.86909182  1
  O2-  O450  1  0.41360903  0.58150425  0.18961734  1
  O2-  O451  1  0.40838329  0.57642239  0.50628309  1
  O2-  O452  1  0.38794578  0.57368277  0.86019090  1
  O2-  O453  1  0.44416042  0.80064883  0.20328937  1
  O2-  O454  1  0.40385054  0.83217177  0.52046929  1
  O2-  O455  1  0.41850663  0.82180691  0.85969687  1
  O2-  O456  1  0.66680520  0.08590848  0.19276278  1
  O2-  O457  1  0.64774821  0.07956257  0.52622375  1
  O2-  O458  1  0.67621663  0.05933246  0.87174628  1
  O2-  O459  1  0.65571689  0.33404291  0.18489472  1
  O2-  O460  1  0.66768391  0.33115097  0.51827091  1
  O2-  O461  1  0.67228015  0.36126164  0.84918622  1
  O2-  O462  1  0.65888048  0.57510397  0.18738386  1
  O2-  O463  1  0.66547690  0.58047404  0.51997014  1
  O2-  O464  1  0.67466890  0.60051686  0.85241102  1
  O2-  O465  1  0.65595307  0.82169351  0.18921267  1
  O2-  O466  1  0.65811575  0.82967172  0.52028242  1
  O2-  O467  1  0.64877492  0.84416060  0.86352302  1
  O2-  O468  1  0.89860119  0.04992088  0.18721223  1
  O2-  O469  1  0.87764160  0.06798725  0.53116602  1
  O2-  O470  1  0.91600145  0.07997017  0.84971097  1
  O2-  O471  1  0.88593083  0.33372080  0.19884621  1
  O2-  O472  1  0.92453928  0.33659260  0.46691209  1
  O2-  O473  1  0.92738226  0.32800885  0.84426260  1
  O2-  O474  1  0.91478883  0.58506538  0.18860653  1
  O2-  O475  1  0.91941041  0.59159917  0.50855761  1
  O2-  O476  1  0.91915464  0.60072786  0.85349571  1
  O2-  O477  1  0.92177356  0.81669893  0.18422974  1
  O2-  O478  1  0.91868583  0.83299902  0.51840636  1
  O2-  O479  1  0.90738006  0.83348835  0.85628452  1
  O2-  O480  1  0.18399950  0.08285327  0.30370352  1
  O2-  O481  1  0.16772790  0.09629513  0.64741918  1
  O2-  O482  1  0.16059449  0.07910274  0.97870544  1
  O2-  O483  1  0.19560650  0.35484220  0.29800948  1
  O2-  O484  1  0.16935647  0.32613435  0.65405145  1
  O2-  O485  1  0.16297013  0.32857932  1.05381234  1
  O2-  O486  1  0.16412368  0.58499781  0.31325818  1
  O2-  O487  1  0.16436030  0.57112018  0.63879509  1
  O2-  O488  1  0.16299292  0.58968355  0.97832676  1
  O2-  O489  1  0.17885537  0.84907358  0.30133729  1
  O2-  O490  1  0.18215435  0.83457834  0.64846880  1
  O2-  O491  1  0.15968235  0.83267377  0.97688526  1
  O2-  O492  1  0.41154476  0.07840983  0.31087084  1
  O2-  O493  1  0.41705183  0.09902418  0.64556170  1
  O2-  O494  1  0.41578390  0.07010141  0.98279653  1
  O2-  O495  1  0.42590731  0.34085934  0.30335691  1
  O2-  O496  1  0.43960366  0.33354525  0.63049792  1
  O2-  O497  1  0.40873318  0.33522531  1.04292217  1
  O2-  O498  1  0.40885434  0.53112587  0.31467246  1
  O2-  O499  1  0.41802048  0.47842370  0.60241376  1
  O2-  O500  1  0.40822942  0.58850352  0.98661828  1
  O2-  O501  1  0.41324180  0.84077908  0.31920131  1
  O2-  O502  1  0.41354703  0.83824694  0.64180269  1
  O2-  O503  1  0.38776744  0.82873808  0.97703564  1
  O2-  O504  1  0.65467999  0.08285767  0.31555941  1
  O2-  O505  1  0.65864640  0.08331657  0.64591858  1
  O2-  O506  1  0.67155810  0.08113418  0.98617713  1
  O2-  O507  1  0.65788587  0.32736158  0.31018785  1
  O2-  O508  1  0.66959887  0.33097938  0.64063627  1
  O2-  O509  1  0.64590575  0.36044394  0.96816638  1
  O2-  O510  1  0.65425206  0.57312954  0.30749606  1
  O2-  O511  1  0.67186046  0.58748349  0.63989421  1
  O2-  O512  1  0.65466383  0.58115976  0.97431942  1
  O2-  O513  1  0.64768609  0.81747069  0.31315474  1
  O2-  O514  1  0.66683129  0.83747052  0.63740160  1
  O2-  O515  1  0.68214068  0.83154444  0.98416058  1
  O2-  O516  1  0.94398664  0.07429822  0.29767676  1
  O2-  O517  1  0.90221544  0.07429277  0.65608369  1
  O2-  O518  1  0.91956100  0.08181800  0.97759132  1
  O2-  O519  1  0.89148397  0.33643290  0.31864304  1
  O2-  O520  1  0.92035406  0.33221968  0.64771544  1
  O2-  O521  1  0.91344670  0.32209300  0.96962398  1
  O2-  O522  1  0.92505228  0.58109118  0.30880668  1
  O2-  O523  1  0.85193197  0.55528144  0.61459392  1
  O2-  O524  1  0.91568927  0.58762997  0.98178200  1
  O2-  O525  1  0.92029118  0.83111936  0.34621584  1
  O2-  O526  1  0.91304178  0.83010788  0.65196070  1
  O2-  O527  1  0.90735231  0.83217194  0.97520275  1
  O2-  O528  1  0.07912682  0.16104525  0.02970047  1
  O2-  O529  1  0.11977119  0.18650771  0.33372110  1
  O2-  O530  1  0.06898682  0.15441791  0.67941216  1
  O2-  O531  1  0.06073631  0.42688999  0.02611227  1
  O2-  O532  1  0.10778695  0.42970136  0.35374399  1
  O2-  O533  1  0.09014738  0.41089322  0.69484030  1
  O2-  O534  1  0.08057099  0.67199012  0.02185397  1
  O2-  O535  1  0.06763578  0.64319068  0.35134453  1
  O2-  O536  1  0.15580873  0.69263740  0.70152010  1
  O2-  O537  1  0.07015397  0.91130864  0.01594533  1
  O2-  O538  1  0.09506909  0.92706209  0.35817662  1
  O2-  O539  1  0.07489004  0.94483911  0.71545260  1
  O2-  O540  1  0.33367248  0.15169717  0.01460923  1
  O2-  O541  1  0.34171378  0.17610312  0.34930917  1
  O2-  O542  1  0.33041784  0.19019597  0.70532526  1
  O2-  O543  1  0.32148322  0.42309109  0.02048146  1
  O2-  O544  1  0.36569606  0.44894176  0.33385006  1
  O2-  O545  1  0.32009764  0.34177581  0.70108943  1
  O2-  O546  1  0.32719752  0.67395132  0.02401092  1
  O2-  O547  1  0.32627659  0.67159459  0.36085139  1
  O2-  O548  1  0.30319098  0.69040446  0.69827581  1
  O2-  O549  1  0.32337092  0.91423846  0.01275192  1
  O2-  O550  1  0.33396019  0.92558674  0.36065002  1
  O2-  O551  1  0.34551172  0.92932440  0.68918399  1
  O2-  O552  1  0.56443492  0.13943813  0.02140307  1
  O2-  O553  1  0.59816902  0.17906971  0.36071027  1
  O2-  O554  1  0.58260633  0.17319010  0.68701457  1
  O2-  O555  1  0.54562465  0.42369792  -0.03798817  1
  O2-  O556  1  0.58518535  0.41349182  0.35156824  1
  O2-  O557  1  0.60012854  0.42291034  0.68221681  1
  O2-  O558  1  0.58692665  0.66994263  0.01834880  1
  O2-  O559  1  0.56908962  0.64809244  0.35714895  1
  O2-  O560  1  0.60277308  0.67105171  0.68381981  1
  O2-  O561  1  0.60603594  0.91281024  0.03273020  1
  O2-  O562  1  0.57960686  0.91305165  0.35870425  1
  O2-  O563  1  0.58342007  0.91023061  0.67948182  1
  O2-  O564  1  0.83498397  0.16292876  0.01915943  1
  O2-  O565  1  0.80905046  0.17120341  0.36964739  1
  O2-  O566  1  0.82165785  0.16295834  0.68940756  1
  O2-  O567  1  0.89178586  0.44295400  0.03291514  1
  O2-  O568  1  0.82388705  0.42704201  0.35053182  1
  O2-  O569  1  0.83395724  0.41225920  0.67360439  1
  O2-  O570  1  0.81330504  0.65417173  0.01994591  1
  O2-  O571  1  0.80601224  0.64911147  0.35516781  1
  O2-  O572  1  0.82933385  0.66385891  0.68956275  1
  O2-  O573  1  0.84240731  0.91867772  0.00675610  1
  O2-  O574  1  0.82697329  0.89499930  0.30442188  1
  O2-  O575  1  0.82489166  0.90829669  0.69151517  1
