# generated using pymatgen
data_H2O
_symmetry_space_group_name_H-M   'P 1'
_cell_length_a   18.00394388
_cell_length_b   17.99858651
_cell_length_c   22.00466411
_cell_angle_alpha   89.99786036
_cell_angle_beta   89.98471205
_cell_angle_gamma   120.01647373
_symmetry_Int_Tables_number   1
_chemical_formula_structural   H2O
_chemical_formula_sum   'H384 O192'
_cell_volume   6174.17997590
_cell_formula_units_Z   192
loop_
 _symmetry_equiv_pos_site_id
 _symmetry_equiv_pos_as_xyz
  1  'x, y, z'
loop_
 _atom_type_symbol
 _atom_type_oxidation_number
  H+  1.0
  O2-  -2.0
loop_
 _atom_site_type_symbol
 _atom_site_label
 _atom_site_symmetry_multiplicity
 _atom_site_fract_x
 _atom_site_fract_y
 _atom_site_fract_z
 _atom_site_occupancy
  H+  H0  1  0.34677800  0.14001990  0.17192049  1
  H+  H1  1  0.66141534  0.53095837  0.18618819  1
  H+  H2  1  0.27096830  0.87982110  0.34469170  1
  H+  H3  1  0.97494817  0.33541884  0.85169650  1
  H+  H4  1  0.32891807  0.80251619  0.23047661  1
  H+  H5  1  0.52317064  0.39932977  0.35072811  1
  H+  H6  1  0.28223833  0.88696880  0.68202073  1
  H+  H7  1  0.07709360  0.92104755  0.88338792  1
  H+  H8  1  0.22642988  0.36553158  0.17404953  1
  H+  H9  1  0.12223562  0.38887711  0.82698698  1
  H+  H10  1  0.89555965  0.26180350  0.01993208  1
  H+  H11  1  0.88829088  0.85460700  0.83087088  1
  H+  H12  1  0.88266099  0.75147736  0.33647755  1
  H+  H13  1  0.77272537  0.39530834  0.17288601  1
  H+  H14  1  0.62949786  0.51955244  -0.00969472  1
  H+  H15  1  0.47688760  0.61835189  0.84597581  1
  H+  H16  1  0.88481615  0.37843951  0.99315447  1
  H+  H17  1  0.77439159  0.88093735  0.83196399  1
  H+  H18  1  -0.04170308  0.34325243  0.49536697  1
  H+  H19  1  0.36346247  0.89906335  0.16319744  1
  H+  H20  1  0.21157220  0.45463589  0.79721274  1
  H+  H21  1  0.62238453  0.15145166  0.68906459  1
  H+  H22  1  0.96502699  0.78574070  0.29682653  1
  H+  H23  1  0.11176456  0.14697769  0.83358463  1
  H+  H24  1  0.89368064  0.61929579  0.18320557  1
  H+  H25  1  0.40126736  0.52545441  0.17770392  1
  H+  H26  1  0.82770902  0.91497746  0.43631498  1
  H+  H27  1  0.98203813  0.60458352  0.46787733  1
  H+  H28  1  0.88773282  0.52663937  0.18650236  1
  H+  H29  1  0.77708916  0.38732024  0.82922556  1
  H+  H30  1  0.62838041  0.39025881  0.66558953  1
  H+  H31  1  0.88928959  0.63824052  0.67230640  1
  H+  H32  1  0.12143055  0.14062857  0.17211850  1
  H+  H33  1  0.74809424  0.88879785  0.67095991  1
  H+  H34  1  0.76912906  0.87592904  0.33406238  1
  H+  H35  1  0.53284177  0.90885382  0.00255799  1
  H+  H36  1  0.65772697  0.57169404  0.57001177  1
  H+  H37  1  0.97167959  0.36679084  0.32891391  1
  H+  H38  1  0.58643531  0.41892356  0.76642523  1
  H+  H39  1  0.31407328  0.41745962  0.39906554  1
  H+  H40  1  0.24552899  0.37730215  0.49531496  1
  H+  H41  1  0.38435226  0.27088939  0.83972453  1
  H+  H42  1  0.12042742  0.35927563  0.64941942  1
  H+  H43  1  0.72254573  0.35109514  0.50578534  1
  H+  H44  1  0.12157031  0.35372644  0.49988129  1
  H+  H45  1  0.74172945  0.12465825  0.69132454  1
  H+  H46  1  0.39783227  0.37013187  -0.00745061  1
  H+  H47  1  0.53369126  0.39020367  0.50273296  1
  H+  H48  1  0.56786497  0.84457303  0.31582957  1
  H+  H49  1  0.66572499  0.84134111  0.22871972  1
  H+  H50  1  0.21549449  0.10699028  0.32507303  1
  H+  H51  1  0.12007632  0.27075219  0.65191722  1
  H+  H52  1  0.88704991  0.02177763  0.18307799  1
  H+  H53  1  0.10993227  0.13095047  0.33746797  1
  H+  H54  1  0.87215769  0.73820909  0.16349266  1
  H+  H55  1  0.63015389  0.52094422  0.83936590  1
  H+  H56  1  0.41064704  0.75405549  0.31048512  1
  H+  H57  1  0.33941597  0.88372556  -0.00510092  1
  H+  H58  1  0.38576695  0.12524241  0.51884167  1
  H+  H59  1  0.63010112  0.62830444  0.16304984  1
  H+  H60  1  0.84825815  0.22638310  0.32934104  1
  H+  H61  1  0.47308248  0.36042603  0.83832639  1
  H+  H62  1  0.98619919  0.11699022  1.00326436  1
  H+  H63  1  0.63903952  0.36061330  0.50945419  1
  H+  H64  1  0.63376034  0.61561320  0.33264021  1
  H+  H65  1  0.38674355  0.49454076  0.01153887  1
  H+  H66  1  0.86072886  0.39398027  0.17469274  1
  H+  H67  1  0.75281763  0.61913786  0.18703148  1
  H+  H68  1  0.61663240  0.11182457  0.48750597  1
  H+  H69  1  0.63041584  0.35943541  0.34665819  1
  H+  H70  1  0.38866407  0.61995457  0.32169207  1
  H+  H71  1  0.63228367  0.61161055  0.84038578  1
  H+  H72  1  0.23423491  0.61984573  0.30782987  1
  H+  H73  1  0.41429672  0.57822372  0.61015301  1
  H+  H74  1  0.11036958  0.64272106  0.15543730  1
  H+  H75  1  0.09649266  0.74718988  1.00753317  1
  H+  H76  1  0.01216080  0.14173079  0.67463737  1
  H+  H77  1  0.48901923  0.61983873  -0.00229697  1
  H+  H78  1  0.36604558  0.72654162  0.68098447  1
  H+  H79  1  0.60788845  0.89433445  0.67721091  1
  H+  H80  1  0.38066149  0.37523406  0.33611885  1
  H+  H81  1  0.42418613  0.58792737  0.94046036  1
  H+  H82  1  0.94413385  0.89571070  0.66822248  1
  H+  H83  1  0.91617740  0.07516324  0.90736288  1
  H+  H84  1  0.12251295  0.92586637  0.94499747  1
  H+  H85  1  1.03098888  0.89257780  0.34563860  1
  H+  H86  1  0.02248645  0.63483413  0.82502342  1
  H+  H87  1  0.38224151  0.52722726  0.32930975  1
  H+  H88  1  0.58933777  0.51861343  0.67417212  1
  H+  H89  1  0.14501994  0.61775198  0.31966585  1
  H+  H90  1  0.88189030  1.01463556  0.84717199  1
  H+  H91  1  0.10393705  0.13328509  0.49249699  1
  H+  H92  1  0.18103557  0.34770327  0.96537236  1
  H+  H93  1  0.12942701  0.26977072  0.32366714  1
  H+  H94  1  0.16964785  0.83868255  0.26592032  1
  H+  H95  1  0.83692084  0.45930737  0.50021803  1
  H+  H96  1  0.35744224  0.13357063  0.83136473  1
  H+  H97  1  0.15362837  0.86250148  0.65853194  1
  H+  H98  1  0.35764479  0.88114882  0.84951314  1
  H+  H99  1  0.88146748  0.61125758  0.98705024  1
  H+  H100  1  0.13662933  0.77734170  0.17201662  1
  H+  H101  1  0.24019833  0.14898414  0.00807594  1
  H+  H102  1  0.61700887  0.72619233  0.83517740  1
  H+  H103  1  0.88983852  1.00582775  0.32925766  1
  H+  H104  1  0.39907699  0.67465846  0.00726389  1
  H+  H105  1  0.09818934  0.39391279  0.01345979  1
  H+  H106  1  0.62439363  0.11059079  0.31514977  1
  H+  H107  1  0.60260937  0.22248385  0.49500301  1
  H+  H108  1  0.74189893  0.05418131  0.99171773  1
  H+  H109  1  0.36360403  0.24115652  0.49422650  1
  H+  H110  1  0.73048458  0.36692330  0.65961512  1
  H+  H111  1  0.76860467  0.64458899  0.50217707  1
  H+  H112  1  0.38332073  0.02028528  0.84855584  1
  H+  H113  1  0.14897792  0.86331347  0.50613699  1
  H+  H114  1  0.37842913  0.02932616  0.17621364  1
  H+  H115  1  0.03264841  0.88748865  0.49277958  1
  H+  H116  1  0.62756382  0.27720140  0.16978814  1
  H+  H117  1  0.17402463  0.74440639  0.48536572  1
  H+  H118  1  0.77512263  0.89442667  0.01771397  1
  H+  H119  1  0.22456620  0.86883419  0.17024306  1
  H+  H120  1  0.86482080  0.98343186  0.01775723  1
  H+  H121  1  0.61846840  0.78162425  0.65872786  1
  H+  H122  1  0.86141895  0.47905437  0.34463758  1
  H+  H123  1  0.52214125  0.38469324  0.00095458  1
  H+  H124  1  0.13861125  0.76265683  0.84175993  1
  H+  H125  1  0.47096845  0.10502017  0.33492430  1
  H+  H126  1  0.21351741  0.57822493  0.52292727  1
  H+  H127  1  0.36121623  0.96755532  0.34664132  1
  H+  H128  1  0.07480964  0.17335986  0.73120336  1
  H+  H129  1  0.14561910  0.04981103  0.88453986  1
  H+  H130  1  0.37001499  0.13537889  0.68061869  1
  H+  H131  1  0.63633067  0.52185541  0.50848367  1
  H+  H132  1  0.36012464  0.73454669  0.84941940  1
  H+  H133  1  1.00344795  0.59610895  0.65475468  1
  H+  H134  1  0.63127926  0.76289317  0.32065695  1
  H+  H135  1  0.26943479  0.69091131  0.46946973  1
  H+  H136  1  0.37946928  0.39291168  0.68101108  1
  H+  H137  1  0.86603777  0.38582769  0.82917015  1
  H+  H138  1  0.39437477  0.52146083  0.67129450  1
  H+  H139  1  0.78591193  0.14243226  0.16831750  1
  H+  H140  1  0.58865490  0.93995535  0.84255861  1
  H+  H141  1  0.38024224  0.11809920  0.00122216  1
  H+  H142  1  0.86604947  0.48655392  -0.01091250  1
  H+  H143  1  0.50931541  0.13633015  0.50013442  1
  H+  H144  1  0.84818407  0.59598495  0.67465870  1
  H+  H145  1  0.77596611  0.39738107  0.99208106  1
  H+  H146  1  0.26182517  0.38621971  0.33654259  1
  H+  H147  1  0.86598521  0.22968789  0.69192104  1
  H+  H148  1  0.38706106  0.78509049  0.51652143  1
  H+  H149  1  0.46940535  0.11327591  0.84614951  1
  H+  H150  1  0.58805729  0.12916382  -0.00676954  1
  H+  H151  1  0.65610218  0.12909799  0.16442536  1
  H+  H152  1  0.61165172  0.66236937  0.67344248  1
  H+  H153  1  0.64485546  0.89140193  0.16419080  1
  H+  H154  1  0.75740993  0.08513157  -0.03498970  1
  H+  H155  1  0.34660704  0.19046031  0.30842223  1
  H+  H156  1  0.46081820  0.12244941  0.17995942  1
  H+  H157  1  0.03030942  0.14031374  0.17220558  1
  H+  H158  1  0.21521255  0.88001927  0.99340876  1
  H+  H159  1  0.22305339  0.11940877  0.50407100  1
  H+  H160  1  0.11148997  0.38970701  0.16338674  1
  H+  H161  1  0.58785103  0.42173316  0.44046961  1
  H+  H162  1  0.27762867  -0.11422611  0.49388470  1
  H+  H163  1  0.39319761  0.02146651  0.67198122  1
  H+  H164  1  0.02279939  0.64294282  0.16589821  1
  H+  H165  1  0.25720451  0.14265128  0.17224552  1
  H+  H166  1  0.58707459  0.91550694  0.09934197  1
  H+  H167  1  0.51700682  0.63195145  0.49481032  1
  H+  H168  1  0.60950398  0.14923320  0.83057370  1
  H+  H169  1  0.85652072  0.97815038  0.49384400  1
  H+  H170  1  0.10329722  0.22194851  0.49069066  1
  H+  H171  1  0.66792244  0.09141098  0.22850877  1
  H+  H172  1  0.62810465  0.85422627  1.00043805  1
  H+  H173  1  0.28041338  0.13338869  0.67382520  1
  H+  H174  1  0.36112876  0.38372138  0.16838339  1
  H+  H175  1  0.15071779  0.77277019  0.65866490  1
  H+  H176  1  0.01144996  0.85514851  0.81334993  1
  H+  H177  1  0.08403530  0.17943635  0.07931281  1
  H+  H178  1  -0.03104603  0.35510710  0.67848207  1
  H+  H179  1  0.23013431  0.62691565  0.84774243  1
  H+  H180  1  0.42883476  0.40181278  0.53467744  1
  H+  H181  1  0.71692194  0.35634193  0.34350230  1
  H+  H182  1  0.13276483  0.52766936  0.16507784  1
  H+  H183  1  0.61643361  0.23647966  0.67756064  1
  H+  H184  1  0.33961824  0.91176466  0.78315547  1
  H+  H185  1  0.87168765  0.46479923  0.67244658  1
  H+  H186  1  0.35874965  0.39032474  0.83122191  1
  H+  H187  1  0.98597364  0.10275829  0.33187085  1
  H+  H188  1  0.85079961  0.59285721  0.52277204  1
  H+  H189  1  0.75419115  0.60668721  0.01532603  1
  H+  H190  1  0.13879715  0.04006137  0.17828491  1
  H+  H191  1  0.51798640  0.63592275  0.33953519  1
  H+  H192  1  0.47747886  0.86637677  0.66979698  1
  H+  H193  1  0.12598737  0.64249830  0.68040976  1
  H+  H194  1  0.36508864  0.63719120  0.68435330  1
  H+  H195  1  0.15976441  0.54285127  1.00421362  1
  H+  H196  1  0.97625859  0.86948364  0.17711702  1
  H+  H197  1  0.50945252  0.40383047  0.15996645  1
  H+  H198  1  0.15366922  0.53398143  0.84018128  1
  H+  H199  1  0.63892122  0.04101184  0.97534563  1
  H+  H200  1  0.16159985  0.33086902  0.26433715  1
  H+  H201  1  0.60631736  0.63456351  0.49641316  1
  H+  H202  1  0.86319347  0.89056261  0.16777553  1
  H+  H203  1  0.87104618  0.34477414  0.49877104  1
  H+  H204  1  0.37103178  0.51078738  0.51029586  1
  H+  H205  1  0.14792395  0.60726305  0.51155890  1
  H+  H206  1  0.88806208  0.52578705  0.83589230  1
  H+  H207  1  0.13781952  0.27494429  0.17491305  1
  H+  H208  1  0.63418967  0.36510329  0.99071283  1
  H+  H209  1  0.96467907  0.11164912  0.50433880  1
  H+  H210  1  0.87744662  0.76091896  0.83094421  1
  H+  H211  1  0.14215325  0.86958474  0.32621218  1
  H+  H212  1  0.64167174  0.06091647  0.79591779  1
  H+  H213  1  0.35377956  0.76368586  -0.03167507  1
  H+  H214  1  0.92010479  0.88140018  0.02323822  1
  H+  H215  1  0.11170438  0.63233043  0.82790080  1
  H+  H216  1  0.10387872  0.85737950  0.81992305  1
  H+  H217  1  1.04320213  0.87580289  0.66754694  1
  H+  H218  1  0.35386317  0.73788403  0.15512650  1
  H+  H219  1  0.47927225  0.87082083  0.50902328  1
  H+  H220  1  0.13997258  1.02597267  0.50446065  1
  H+  H221  1  0.88251261  0.79235321  0.66856840  1
  H+  H222  1  0.63635993  0.28279378  0.83833822  1
  H+  H223  1  0.61566787  0.39103691  0.82626252  1
  H+  H224  1  0.98379413  0.51921818  0.61056526  1
  H+  H225  1  0.26951399  0.65025640  0.14195973  1
  H+  H226  1  0.60023791  0.88372446  0.48902085  1
  H+  H227  1  0.37966449  0.27167295  0.18333531  1
  H+  H228  1  0.37614075  0.60059769  0.51718305  1
  H+  H229  1  0.29928958  0.40588964  0.01675893  1
  H+  H230  1  0.10334773  0.88352423  0.15438154  1
  H+  H231  1  1.01907061  0.40778352  1.01459373  1
  H+  H232  1  0.07793036  0.16048471  0.39806392  1
  H+  H233  1  0.85427463  0.87068745  0.33981567  1
  H+  H234  1  0.03257500  0.64173208  0.34690043  1
  H+  H235  1  0.89070557  0.87074264  0.50520525  1
  H+  H236  1  0.00722981  0.59966131  0.49319177  1
  H+  H237  1  0.53565087  0.08566346  0.13450347  1
  H+  H238  1  0.23199068  0.61338213  0.67156944  1
  H+  H239  1  0.76234267  0.12791889  0.47375174  1
  H+  H240  1  0.22782992  0.12537525  0.84934793  1
  H+  H241  1  0.05141644  0.89943108  0.10073617  1
  H+  H242  1  0.86013635  0.13599426  0.68393339  1
  H+  H243  1  0.91665961  0.59192253  0.89159665  1
  H+  H244  1  0.85178835  0.21589544  0.48002883  1
  H+  H245  1  0.90504898  0.12667363  0.00202978  1
  H+  H246  1  0.63554888  0.99354845  0.15143138  1
  H+  H247  1  0.88692294  0.61468682  0.33764949  1
  H+  H248  1  0.34136185  0.68302706  0.78445837  1
  H+  H249  1  0.36943304  0.88627309  0.68470440  1
  H+  H250  1  0.11612851  0.47945506  0.33374399  1
  H+  H251  1  0.07194072  0.25368158  0.84233669  1
  H+  H252  1  0.15638188  0.01744845  0.65908714  1
  H+  H253  1  0.97777952  0.62954850  0.98687452  1
  H+  H254  1  0.73768196  0.87829761  0.17319442  1
  H+  H255  1  0.11600786  0.98438621  0.33699580  1
  H+  H256  1  0.11062033  0.38786626  0.33549108  1
  H+  H257  1  0.82702329  0.87571346  0.66652270  1
  H+  H258  1  0.62817547  0.36353091  0.16292328  1
  H+  H259  1  0.48645455  0.81323324  1.02847359  1
  H+  H260  1  0.09466189  0.46045172  0.49361979  1
  H+  H261  1  0.61509896  0.48461177  0.34994018  1
  H+  H262  1  0.87680200  0.34942131  0.67672589  1
  H+  H263  1  1.01488851  0.12625360  0.82991424  1
  H+  H264  1  0.86099021  0.73158338  0.49997929  1
  H+  H265  1  0.64055237  0.85280926  0.84725458  1
  H+  H266  1  0.37207856  0.88743501  0.49484749  1
  H+  H267  1  0.62053742  0.64103097  0.00345946  1
  H+  H268  1  0.85644908  0.12550674  0.84252562  1
  H+  H269  1  0.57740362  0.17843180  0.77300515  1
  H+  H270  1  0.10752939  0.26658845  1.00232775  1
  H+  H271  1  0.61261429  0.98369650  0.69162157  1
  H+  H272  1  0.76270004  0.62588588  0.82614273  1
  H+  H273  1  0.37288973  0.23632261  0.01716863  1
  H+  H274  1  0.12503369  0.16314273  0.01817930  1
  H+  H275  1  0.89002440  0.11357050  0.18840599  1
  H+  H276  1  0.10804047  0.47651414  0.67784411  1
  H+  H277  1  0.46590735  0.86247259  0.32654775  1
  H+  H278  1  0.77387560  0.66361523  0.67309770  1
  H+  H279  1  0.39130667  0.29426973  0.34891180  1
  H+  H280  1  0.18258612  0.83563746  0.56600581  1
  H+  H281  1  0.82021188  0.15919219  0.38232307  1
  H+  H282  1  0.83646865  0.66622610  0.10923368  1
  H+  H283  1  0.71905853  0.86315201  0.50568963  1
  H+  H284  1  0.59620171  0.96908499  0.47654947  1
  H+  H285  1  0.32891774  0.36856188  0.48651835  1
  H+  H286  1  0.38920850  0.62084772  0.85093387  1
  H+  H287  1  0.89117720  0.27783644  0.18338429  1
  H+  H288  1  0.63369175  0.27617137  0.98650335  1
  H+  H289  1  0.16306100  0.83762778  0.93273880  1
  H+  H290  1  0.22616539  0.85523739  0.84408748  1
  H+  H291  1  0.83541013  0.92418485  0.10781444  1
  H+  H292  1  0.41628073  0.09180557  0.57588662  1
  H+  H293  1  0.33646782  0.17887633  0.07869922  1
  H+  H294  1  0.55757296  0.49898577  0.13333874  1
  H+  H295  1  0.36398378  0.70702995  0.06164960  1
  H+  H296  1  0.56649706  0.15547369  0.40105475  1
  H+  H297  1  0.33052783  0.16364738  0.77065171  1
  H+  H298  1  0.92443180  0.84427881  0.56370553  1
  H+  H299  1  0.42600483  0.83440169  0.23804278  1
  H+  H300  1  0.91906763  0.34162819  0.93933883  1
  H+  H301  1  0.91491313  0.83373112  0.23659006  1
  H+  H302  1  0.67022805  0.33387704  0.59868655  1
  H+  H303  1  0.85384333  0.62861253  0.81796942  1
  H+  H304  1  0.82459952  0.41137849  0.43518782  1
  H+  H305  1  0.35897600  0.98040050  0.00545166  1
  H+  H306  1  0.81474291  0.17087268  0.02659107  1
  H+  H307  1  0.48340770  0.35223629  0.66454920  1
  H+  H308  1  0.09211411  0.90120347  0.73145516  1
  H+  H309  1  0.51352722  0.64142499  0.67558536  1
  H+  H310  1  0.82535827  0.66536896  0.41148454  1
  H+  H311  1  0.91956195  0.07278192  0.26702475  1
  H+  H312  1  0.63030384  0.77392640  0.50514064  1
  H+  H313  1  0.91485311  0.34236790  0.26890334  1
  H+  H314  1  0.16199431  0.08710583  0.25877643  1
  H+  H315  1  0.87999043  0.26322503  0.84924121  1
  H+  H316  1  0.57929476  0.90026683  0.77688986  1
  H+  H317  1  0.09454328  0.91949281  0.43503959  1
  H+  H318  1  0.88939601  0.55716392  0.57337104  1
  H+  H319  1  0.33672898  0.92491832  0.09961068  1
  H+  H320  1  0.40754325  0.07258274  0.27670987  1
  H+  H321  1  0.41738661  0.33106754  0.93233566  1
  H+  H322  1  0.67369840  0.82964317  0.90810876  1
  H+  H323  1  0.42053296  0.83945206  0.60894616  1
  H+  H324  1  0.17775088  0.07980773  0.60221263  1
  H+  H325  1  0.90151744  0.08491230  0.59914656  1
  H+  H326  1  0.48082213  0.11298676  0.67034817  1
  H+  H327  1  0.16889247  0.58098856  0.61282774  1
  H+  H328  1  0.34766250  0.42460289  0.73886662  1
  H+  H329  1  0.14411197  0.68511915  0.42566972  1
  H+  H330  1  0.40598329  0.08750189  0.93860118  1
  H+  H331  1  0.43692424  0.58634674  0.23505986  1
  H+  H332  1  0.99878989  0.89310775  0.98598792  1
  H+  H333  1  0.60146285  0.04788580  0.91414756  1
  H+  H334  1  0.71519229  0.11490622  0.31408539  1
  H+  H335  1  0.50994272  0.14340573  0.00138104  1
  H+  H336  1  0.33818442  0.18172374  0.43540241  1
  H+  H337  1  0.39142822  0.26346077  0.66672107  1
  H+  H338  1  0.07755719  0.41961551  0.10534097  1
  H+  H339  1  0.83083773  0.41579952  0.73601159  1
  H+  H340  1  0.68015846  0.09661876  0.63432110  1
  H+  H341  1  0.42507611  0.33285544  0.58013214  1
  H+  H342  1  0.97740248  0.36868745  0.17802363  1
  H+  H343  1  0.86018215  0.38960590  0.34175459  1
  H+  H344  1  0.53176388  0.60936793  0.16042620  1
  H+  H345  1  0.87460326  0.10971071  0.49952473  1
  H+  H346  1  0.78261611  0.55197863  0.05395076  1
  H+  H347  1  0.34466292  0.42130847  0.10740646  1
  H+  H348  1  0.83451384  0.16041791  0.78188789  1
  H+  H349  1  0.07588056  0.41355871  0.42846989  1
  H+  H350  1  0.36557578  0.48162843  0.83248324  1
  H+  H351  1  0.85979857  0.18116235  0.11686391  1
  H+  H352  1  0.67511031  0.58634512  0.27867150  1
  H+  H353  1  0.18603983  0.13530673  0.94663504  1
  H+  H354  1  0.16505701  0.58934885  0.22172713  1
  H+  H355  1  0.76463057  0.63470620  0.35118066  1
  H+  H356  1  0.08639915  0.66979225  0.73519912  1
  H+  H357  1  0.59937549  0.22079524  0.34600482  1
  H+  H358  1  0.59196183  0.65952953  0.06661585  1
  H+  H359  1  0.57572615  0.42144095  0.06224285  1
  H+  H360  1  0.64363959  0.77532962  1.00194931  1
  H+  H361  1  0.11943745  0.73093723  0.33744762  1
  H+  H362  1  0.14927370  0.32629160  0.56367069  1
  H+  H363  1  0.36203529  0.12365535  0.34240238  1
  H+  H364  1  0.07975359  0.30409163  0.90408757  1
  H+  H365  1  0.56997595  0.16032104  0.08710481  1
  H+  H366  1  0.33336131  0.90704596  0.42452720  1
  H+  H367  1  0.06979549  0.68282415  0.06391893  1
  H+  H368  1  0.57935498  0.66914684  0.39831415  1
  H+  H369  1  0.65122580  0.07395784  0.53745886  1
  H+  H370  1  0.65097847  0.83847575  0.59699063  1
  H+  H371  1  0.34346664  0.67389046  0.44636257  1
  H+  H372  1  0.58115144  0.67353118  0.77319056  1
  H+  H373  1  0.72342281  0.11020595  0.83724499  1
  H+  H374  1  0.80976883  0.69140080  0.73921272  1
  H+  H375  1  0.09809046  0.41907250  0.73388412  1
  H+  H376  1  0.18588138  0.59508082  0.94448413  1
  H+  H377  1  0.92038009  0.59053852  0.27703458  1
  H+  H378  1  0.66613042  0.58233876  0.93252826  1
  H+  H379  1  0.87051526  1.02236364  0.65684568  1
  H+  H380  1  0.33080521  0.70064160  0.36288405  1
  H+  H381  1  0.66828164  0.34339300  0.89656109  1
  H+  H382  1  0.41560515  0.33584222  0.24157075  1
  H+  H383  1  0.82512355  0.91558225  0.76948726  1
  O2-  O384  1  0.08903156  0.17175669  0.15547744  1
  O2-  O385  1  0.07292071  0.16141250  0.47481909  1
  O2-  O386  1  0.07386316  0.16694331  0.81519411  1
  O2-  O387  1  0.07885328  0.41864649  0.15132629  1
  O2-  O388  1  0.06965443  0.40379914  0.47354228  1
  O2-  O389  1  0.15336581  0.44440918  0.80279224  1
  O2-  O390  1  0.08072765  0.67630302  0.14663544  1
  O2-  O391  1  0.17686346  0.69654483  0.46468943  1
  O2-  O392  1  0.08341221  0.66414391  0.81065188  1
  O2-  O393  1  0.06891228  0.91112189  0.14382771  1
  O2-  O394  1  0.09408231  0.91578738  0.48041319  1
  O2-  O395  1  0.07438026  0.88673726  0.80178086  1
  O2-  O396  1  0.32148647  0.17440818  0.15675235  1
  O2-  O397  1  0.33193290  0.18117847  0.47983660  1
  O2-  O398  1  0.32974404  0.16614751  0.81621005  1
  O2-  O399  1  0.33347111  0.41576546  0.15186370  1
  O2-  O400  1  0.30919716  0.40951277  0.47959128  1
  O2-  O401  1  0.33276952  0.42325143  0.81446262  1
  O2-  O402  1  0.33037371  0.68590075  0.12975565  1
  O2-  O403  1  0.31679332  0.68017051  0.48317040  1
  O2-  O404  1  0.33820711  0.67626092  0.82912901  1
  O2-  O405  1  0.33699601  0.93107121  0.14491426  1
  O2-  O406  1  0.33707035  0.91128663  0.47416211  1
  O2-  O407  1  0.33457751  0.91585067  0.82788809  1
  O2-  O408  1  0.56426792  0.14812975  0.13251043  1
  O2-  O409  1  0.56798326  0.16221474  0.47960334  1
  O2-  O410  1  0.57631790  0.17732010  0.81881465  1
  O2-  O411  1  0.56251413  0.44649775  0.13783545  1
  O2-  O412  1  0.59300708  0.42217967  0.48636534  1
  O2-  O413  1  0.58192989  0.41829034  0.81127174  1
  O2-  O414  1  0.58199506  0.61462934  0.13522230  1
  O2-  O415  1  0.57686156  0.66451479  0.47967179  1
  O2-  O416  1  0.58245032  0.66661435  0.81779074  1
  O2-  O417  1  0.60900184  0.93073408  0.14195972  1
  O2-  O418  1  0.56253914  0.90540097  0.47428019  1
  O2-  O419  1  0.57960300  0.88871080  0.82116269  1
  O2-  O420  1  0.84960612  0.17062254  0.16140206  1
  O2-  O421  1  0.82416471  0.15413273  0.46435988  1
  O2-  O422  1  0.82651434  0.15666044  0.82739271  1
  O2-  O423  1  0.83501529  0.42996459  0.16468158  1
  O2-  O424  1  0.81988416  0.40264234  0.48044012  1
  O2-  O425  1  0.83744830  0.41693279  0.81352183  1
  O2-  O426  1  0.84545592  0.67566179  0.15383481  1
  O2-  O427  1  0.82819622  0.67053421  0.48623472  1
  O2-  O428  1  0.81990269  0.65646646  0.80554350  1
  O2-  O429  1  0.83380506  0.92286604  0.15430691  1
  O2-  O430  1  0.82804773  0.91583370  0.48124065  1
  O2-  O431  1  0.83333571  0.91479438  0.81387008  1
  O2-  O432  1  0.16769400  0.09750096  0.19651651  1
  O2-  O433  1  0.16299154  0.08594992  0.51904205  1
  O2-  O434  1  0.17299099  0.11066843  0.87027451  1
  O2-  O435  1  0.16589682  0.33644588  0.18915462  1
  O2-  O436  1  0.15406786  0.32613545  0.51600848  1
  O2-  O437  1  0.06456681  0.30110024  0.86036140  1
  O2-  O438  1  0.16225792  0.58979174  0.17652431  1
  O2-  O439  1  0.15469303  0.56264497  0.53399234  1
  O2-  O440  1  0.16731999  0.59081937  0.85642297  1
  O2-  O441  1  0.16553375  0.83851882  0.18742205  1
  O2-  O442  1  0.18430639  0.83766412  0.52002652  1
  O2-  O443  1  0.16445802  0.82325305  0.85661027  1
  O2-  O444  1  0.40318106  0.08656821  0.19740641  1
  O2-  O445  1  0.41737379  0.09602830  0.53080938  1
  O2-  O446  1  0.40956736  0.08192960  0.86185706  1
  O2-  O447  1  0.41463436  0.33395540  0.19663209  1
  O2-  O448  1  0.42794894  0.34717057  0.53434342  1
  O2-  O449  1  0.41427243  0.33119074  0.85589693  1
  O2-  O450  1  0.44369025  0.58458986  0.19046527  1
  O2-  O451  1  0.40728165  0.57056183  0.52662424  1
  O2-  O452  1  0.41784258  0.58764638  0.86338151  1
  O2-  O453  1  0.38195321  0.83017086  0.20698121  1
  O2-  O454  1  0.41897173  0.84600370  0.52907806  1
  O2-  O455  1  0.38630816  0.82282661  0.88888111  1
  O2-  O456  1  0.67925165  0.09418074  0.18128365  1
  O2-  O457  1  0.64904495  0.07882505  0.49368415  1
  O2-  O458  1  0.65801284  0.08194814  0.83743023  1
  O2-  O459  1  0.65866583  0.33748956  0.18156557  1
  O2-  O460  1  0.66278698  0.32435647  0.52421134  1
  O2-  O461  1  0.67099453  0.34449263  0.85079690  1
  O2-  O462  1  0.69382380  0.58749511  0.20583570  1
  O2-  O463  1  0.66024978  0.58169913  0.52615316  1
  O2-  O464  1  0.66221514  0.58091360  0.85569071  1
  O2-  O465  1  0.67370585  0.85185251  0.18356675  1
  O2-  O466  1  0.65840261  0.83409660  0.52039455  1
  O2-  O467  1  0.67459942  0.82603910  0.86275612  1
  O2-  O468  1  0.91824996  0.08013055  0.20279348  1
  O2-  O469  1  0.90420435  0.08057342  0.51919674  1
  O2-  O470  1  0.91076374  0.07535030  0.86221755  1
  O2-  O471  1  0.91716067  0.33954336  0.19432312  1
  O2-  O472  1  0.89754326  0.30907540  0.50797499  1
  O2-  O473  1  0.91671769  0.32573716  0.85888389  1
  O2-  O474  1  0.92248268  0.58924126  0.20056201  1
  O2-  O475  1  0.84477308  0.54050149  0.54196965  1
  O2-  O476  1  0.91560659  0.58805256  0.84572698  1
  O2-  O477  1  0.91433157  0.83980834  0.19189098  1
  O2-  O478  1  0.92232619  0.84102878  0.51868215  1
  O2-  O479  1  0.91703616  0.82187217  0.84173564  1
  O2-  O480  1  0.15661321  0.08043455  0.30903130  1
  O2-  O481  1  0.18814750  0.07816780  0.64613340  1
  O2-  O482  1  0.18351889  0.13607277  0.99178038  1
  O2-  O483  1  0.16040476  0.33065739  0.31033467  1
  O2-  O484  1  0.14692578  0.32805733  0.63072168  1
  O2-  O485  1  0.12128099  0.32105763  0.97755565  1
  O2-  O486  1  0.17055554  0.58477589  0.30167822  1
  O2-  O487  1  0.17044116  0.58461208  0.65791638  1
  O2-  O488  1  0.20737118  0.59403768  0.98531940  1
  O2-  O489  1  0.16980467  0.83667346  0.31160646  1
  O2-  O490  1  0.18423277  0.83251060  0.64210148  1
  O2-  O491  1  0.15712746  0.85385725  0.97531613  1
  O2-  O492  1  0.40756037  0.07007994  0.32202450  1
  O2-  O493  1  0.42061333  0.08133014  0.65545389  1
  O2-  O494  1  0.40961322  0.08768555  0.98418217  1
  O2-  O495  1  0.41580059  0.34732583  0.32517016  1
  O2-  O496  1  0.42312383  0.32463201  0.65015362  1
  O2-  O497  1  0.42216089  0.33425036  0.97810850  1
  O2-  O498  1  0.41989979  0.58711364  0.31513345  1
  O2-  O499  1  0.41892140  0.58374112  0.65494128  1
  O2-  O500  1  0.42681116  0.58821073  0.98612235  1
  O2-  O501  1  0.47096495  0.82280470  0.29891232  1
  O2-  O502  1  0.41743691  0.83267529  0.65402731  1
  O2-  O503  1  0.33433155  0.79867747  0.94447260  1
  O2-  O504  1  0.65594643  0.08518872  0.29545216  1
  O2-  O505  1  0.67673480  0.09480782  0.67841461  1
  O2-  O506  1  0.58744724  0.03782594  0.95782105  1
  O2-  O507  1  0.65422385  0.32225081  0.33612884  1
  O2-  O508  1  0.66933672  0.33780881  0.64464755  1
  O2-  O509  1  0.66415333  0.33671499  0.97188605  1
  O2-  O510  1  0.66694495  0.58574922  0.32396851  1
  O2-  O511  1  0.63009630  0.50381049  0.65635849  1
  O2-  O512  1  0.66433731  0.58146051  0.97818668  1
  O2-  O513  1  0.66595539  0.82346623  0.30303705  1
  O2-  O514  1  0.65016974  0.84172474  0.64267017  1
  O2-  O515  1  0.66994461  0.83651858  0.98751254  1
  O2-  O516  1  0.92300276  0.06748333  0.31511920  1
  O2-  O517  1  0.90021130  0.08353375  0.64457625  1
  O2-  O518  1  0.92547957  0.08807922  0.98728999  1
  O2-  O519  1  0.91137930  0.33978038  0.31465482  1
  O2-  O520  1  0.90732107  0.31744405  0.66785102  1
  O2-  O521  1  0.91972446  0.34851549  0.98425151  1
  O2-  O522  1  0.92212851  0.59002611  0.32288455  1
  O2-  O523  1  0.95608340  0.54658297  0.63142765  1
  O2-  O524  1  0.91905507  0.59372194  0.96637000  1
  O2-  O525  1  0.92790730  0.80595068  0.31345670  1
  O2-  O526  1  0.92885818  0.84368979  0.64527943  1
  O2-  O527  1  0.96798012  0.86989649  1.02460432  1
  O2-  O528  1  0.08235024  0.18170498  0.03369659  1
  O2-  O529  1  0.07604058  0.15881232  0.35218621  1
  O2-  O530  1  0.07294955  0.17627811  0.68641051  1
  O2-  O531  1  0.07769066  0.43047529  0.03234756  1
  O2-  O532  1  0.08344457  0.42057311  0.35141776  1
  O2-  O533  1  0.07697143  0.41566225  0.69153655  1
  O2-  O534  1  0.06538997  0.68568632  0.01924889  1
  O2-  O535  1  0.09572032  0.67211913  0.35498546  1
  O2-  O536  1  0.09132916  0.67084573  0.68937773  1
  O2-  O537  1  0.09236998  0.95130944  -0.07719616  1
  O2-  O538  1  0.09249910  0.92529930  0.35628167  1
  O2-  O539  1  0.10103801  0.90732435  0.68531127  1
  O2-  O540  1  0.34109447  0.17660313  0.03339569  1
  O2-  O541  1  0.33478015  0.16150808  0.34775523  1
  O2-  O542  1  0.34010321  0.16722235  0.69297791  1
  O2-  O543  1  0.35961369  0.43236060  0.02747830  1
  O2-  O544  1  0.32147552  0.41871136  0.35416349  1
  O2-  O545  1  0.35721832  0.43062961  0.69374399  1
  O2-  O546  1  0.39704554  0.72566355  0.02163356  1
  O2-  O547  1  0.34546890  0.68376894  0.32489526  1
  O2-  O548  1  0.33460791  0.66744736  0.69853774  1
  O2-  O549  1  0.32661088  0.92050248  0.02151146  1
  O2-  O550  1  0.33015709  0.90679795  0.36219862  1
  O2-  O551  1  0.34054861  0.91736591  0.70085421  1
  O2-  O552  1  0.57306788  0.16989146  0.01252970  1
  O2-  O553  1  0.56644647  0.15688218  0.35570608  1
  O2-  O554  1  0.58676667  0.17845635  0.69726840  1
  O2-  O555  1  0.58252484  0.41710275  0.01762092  1
  O2-  O556  1  0.58249617  0.42476102  0.36675694  1
  O2-  O557  1  0.59303751  0.41661690  0.68387105  1
  O2-  O558  1  0.59327690  0.67234569  0.02205945  1
  O2-  O559  1  0.58032360  0.66804841  0.35306822  1
  O2-  O560  1  0.57508710  0.68244898  0.69079487  1
  O2-  O561  1  0.54251418  0.87109400  0.02940841  1
  O2-  O562  1  0.62817797  0.86909209  0.33383899  1
  O2-  O563  1  0.57896710  0.92109843  0.70017032  1
  O2-  O564  1  0.87472274  0.20266869  0.03896318  1
  O2-  O565  1  0.81554247  0.16385190  0.33772831  1
  O2-  O566  1  0.83415915  0.16568891  0.70694505  1
  O2-  O567  1  0.83630777  0.42717296  0.00598601  1
  O2-  O568  1  0.82937876  0.41852806  0.35897055  1
  O2-  O569  1  0.82707270  0.40959656  0.69066265  1
  O2-  O570  1  0.80339762  0.61057863  0.03995174  1
  O2-  O571  1  0.82610546  0.66414247  0.36564060  1
  O2-  O572  1  0.79890686  0.71339827  0.69980893  1
  O2-  O573  1  0.83403217  0.92458052  0.03552952  1
  O2-  O574  1  0.82896245  0.90575021  0.35113037  1
  O2-  O575  1  0.80935896  0.91365011  0.68522506  1
