# generated using pymatgen
data_H2O
_symmetry_space_group_name_H-M   'P 1'
_cell_length_a   17.99924302
_cell_length_b   17.99831624
_cell_length_c   22.01068662
_cell_angle_alpha   89.99911179
_cell_angle_beta   90.00206963
_cell_angle_gamma   120.00950827
_symmetry_Int_Tables_number   1
_chemical_formula_structural   H2O
_chemical_formula_sum   'H384 O192'
_cell_volume   6174.59848920
_cell_formula_units_Z   192
loop_
 _symmetry_equiv_pos_site_id
 _symmetry_equiv_pos_as_xyz
  1  'x, y, z'
loop_
 _atom_type_symbol
 _atom_type_oxidation_number
  H+  1.0
  O2-  -2.0
loop_
 _atom_site_type_symbol
 _atom_site_label
 _atom_site_symmetry_multiplicity
 _atom_site_fract_x
 _atom_site_fract_y
 _atom_site_fract_z
 _atom_site_occupancy
  H+  H0  1  0.11637807  0.72975144  0.15024590  1
  H+  H1  1  0.90745279  0.63114681  0.81100884  1
  H+  H2  1  0.04132471  0.39664214  0.50462672  1
  H+  H3  1  0.08177789  0.91246446  0.70184193  1
  H+  H4  1  0.61616239  0.72664166  0.33627699  1
  H+  H5  1  0.51519091  0.87385994  0.70230271  1
  H+  H6  1  0.78243543  0.14099714  0.67367783  1
  H+  H7  1  0.14744221  0.84476493  0.66402665  1
  H+  H8  1  0.59247627  0.62371629  1.01137883  1
  H+  H9  1  0.80178777  0.13100477  0.48641212  1
  H+  H10  1  0.59932671  0.46205679  0.46468191  1
  H+  H11  1  0.14563223  0.88513014  0.18398782  1
  H+  H12  1  0.98367776  0.61761097  1.01985979  1
  H+  H13  1  0.41172725  0.73545242  0.00489974  1
  H+  H14  1  0.20755823  0.88777620  0.95902904  1
  H+  H15  1  0.71515853  0.86549339  0.67023992  1
  H+  H16  1  0.76729179  0.87567686  0.01859290  1
  H+  H17  1  0.14811970  0.30583261  0.62662638  1
  H+  H18  1  0.75732379  0.62587378  0.47742452  1
  H+  H19  1  0.75003157  0.62148276  0.69086650  1
  H+  H20  1  0.63477692  0.11145767  0.17820117  1
  H+  H21  1  1.01980066  0.87728208  0.16619321  1
  H+  H22  1  0.47017930  0.11034969  0.99801605  1
  H+  H23  1  0.89526884  0.27887774  0.66780205  1
  H+  H24  1  0.86381506  0.47453994  0.34500426  1
  H+  H25  1  0.35399052  0.13229065  0.00812236  1
  H+  H26  1  0.62826376  0.15729426  0.33850854  1
  H+  H27  1  0.86027272  0.23918005  0.99736589  1
  H+  H28  1  0.70211353  0.35408354  0.51216065  1
  H+  H29  1  0.88267149  -0.00552242  0.51048669  1
  H+  H30  1  0.73591864  0.86372098  0.17062500  1
  H+  H31  1  0.54128353  0.89429986  0.16784098  1
  H+  H32  1  0.89582155  0.61754842  1.02208984  1
  H+  H33  1  0.23475226  0.35688043  0.16778893  1
  H+  H34  1  0.02508946  0.13231258  0.15850764  1
  H+  H35  1  0.61919867  0.26145920  0.50652465  1
  H+  H36  1  0.92280556  0.61893006  0.65257753  1
  H+  H37  1  0.97665904  0.37818318  0.84268132  1
  H+  H38  1  0.72707960  0.36355754  0.99942594  1
  H+  H39  1  0.60039102  0.71820458  0.49735181  1
  H+  H40  1  0.56703727  0.45703697  0.82419440  1
  H+  H41  1  0.59864550  0.37285720  0.67222600  1
  H+  H42  1  0.23780412  0.87035621  0.33452959  1
  H+  H43  1  0.41088628  0.57472007  0.59311179  1
  H+  H44  1  0.60587100  0.13281281  0.01085153  1
  H+  H45  1  0.38646709  0.85957539  0.68966497  1
  H+  H46  1  0.41953849  0.08572730  0.61303399  1
  H+  H47  1  0.57599319  0.40965723  0.06391579  1
  H+  H48  1  0.23424378  0.59403930  0.67697327  1
  H+  H49  1  0.34515901  -0.03038567  0.83405339  1
  H+  H50  1  0.36284812  0.89246234  0.34130224  1
  H+  H51  1  0.45776716  0.09963041  0.84382634  1
  H+  H52  1  0.62026552  0.26797844  0.33834502  1
  H+  H53  1  0.29062764  0.62076241  0.49883676  1
  H+  H54  1  0.96853337  0.11990863  0.98061094  1
  H+  H55  1  0.83861932  0.22699871  0.32800132  1
  H+  H56  1  0.37931014  0.52162085  0.83439776  1
  H+  H57  1  0.43239128  0.84274934  0.88943199  1
  H+  H58  1  0.92002072  0.10388138  0.91754639  1
  H+  H59  1  0.16005471  0.65098530  -0.02399821  1
  H+  H60  1  0.60833410  0.71432433  0.82564705  1
  H+  H61  1  0.52140338  0.63333249  0.16725180  1
  H+  H62  1  0.27084842  0.38386361  0.49979667  1
  H+  H63  1  0.40788196  0.57976668  0.89291645  1
  H+  H64  1  0.63940494  0.61312037  0.32926361  1
  H+  H65  1  0.55742361  0.40188598  0.72645467  1
  H+  H66  1  0.47079550  0.60957273  0.65462419  1
  H+  H67  1  0.85725802  0.96306428  0.16021835  1
  H+  H68  1  0.59487536  0.71247526  0.01403258  1
  H+  H69  1  0.88007778  0.85607351  0.31916204  1
  H+  H70  1  0.48031169  0.61341849  0.32621775  1
  H+  H71  1  0.12975730  0.10932953  0.99318579  1
  H+  H72  1  0.63295610  0.85669569  0.00017776  1
  H+  H73  1  0.91058507  0.37224209  0.51248255  1
  H+  H74  1  0.10186897  0.21087603  0.33885299  1
  H+  H75  1  0.13339119  0.07079956  0.64881319  1
  H+  H76  1  0.12904078  1.03365048  0.84335314  1
  H+  H77  1  0.50182323  0.14828922  0.49280801  1
  H+  H78  1  0.65185632  0.31640531  0.77769689  1
  H+  H79  1  0.64378168  0.02698666  0.18302085  1
  H+  H80  1  0.88636255  0.37436241  0.83831344  1
  H+  H81  1  -0.00510290  0.64263836  0.47754703  1
  H+  H82  1  0.37892183  0.26713840  0.64983731  1
  H+  H83  1  0.33285114  0.73217290  0.86034125  1
  H+  H84  1  0.87163958  0.11548536  0.32174067  1
  H+  H85  1  0.39274207  0.26810832  0.17177790  1
  H+  H86  1  0.23134261  0.64378300  0.92015358  1
  H+  H87  1  0.86267969  0.69340159  0.68490043  1
  H+  H88  1  0.68735297  0.07221917  0.59357277  1
  H+  H89  1  0.35943681  0.12519122  0.16324303  1
  H+  H90  1  0.39924964  0.85713871  0.99375447  1
  H+  H91  1  0.37666814  0.97886061  0.16694839  1
  H+  H92  1  0.60744698  0.87276947  0.68407572  1
  H+  H93  1  0.89610207  0.13167149  0.66875160  1
  H+  H94  1  0.39176286  0.60981613  0.50445997  1
  H+  H95  1  0.14359221  0.65863592  0.15179210  1
  H+  H96  1  0.13966966  0.72365924  0.66375786  1
  H+  H97  1  0.37488539  0.26765194  0.99411111  1
  H+  H98  1  0.46940023  0.35926585  0.48550654  1
  H+  H99  1  0.60987496  0.88268843  0.48626925  1
  H+  H100  1  0.13068266  0.27857069  0.84469689  1
  H+  H101  1  0.27469489  0.37839145  0.79151491  1
  H+  H102  1  0.98288297  0.20229929  0.20621436  1
  H+  H103  1  0.40172664  0.78123743  0.18402382  1
  H+  H104  1  0.27558477  0.12886943  0.33333399  1
  H+  H105  1  0.11355240  0.72707164  0.33144068  1
  H+  H106  1  0.35966305  0.38634792  0.48936852  1
  H+  H107  1  0.39887696  0.58250248  1.01532104  1
  H+  H108  1  0.13701196  0.34846153  0.52075378  1
  H+  H109  1  0.12335330  0.55556735  0.82526894  1
  H+  H110  1  0.27155264  0.88505001  0.48798023  1
  H+  H111  1  0.45999362  0.09805786  0.31907430  1
  H+  H112  1  0.77421806  0.39860815  0.82189121  1
  H+  H113  1  0.13293565  0.37460957  -0.00033448  1
  H+  H114  1  0.39635759  0.32233917  0.90033229  1
  H+  H115  1  0.22088653  0.11916483  0.83739100  1
  H+  H116  1  0.02094410  0.81370420  0.71087374  1
  H+  H117  1  0.38878628  0.60874497  0.32608327  1
  H+  H118  1  0.68264384  0.55837144  0.82342369  1
  H+  H119  1  0.85624674  1.00629674  0.49057277  1
  H+  H120  1  0.64869385  -0.00022255  0.82710696  1
  H+  H121  1  0.49308423  0.87000255  0.99371275  1
  H+  H122  1  0.11039742  0.39163018  0.21294299  1
  H+  H123  1  0.01520320  0.90189057  0.84536100  1
  H+  H124  1  0.38450968  0.86185952  0.83701304  1
  H+  H125  1  0.72531166  0.85901999  0.32049610  1
  H+  H126  1  0.88896980  0.55168912  0.53327656  1
  H+  H127  1  0.78592140  0.56656229  0.11710083  1
  H+  H128  1  0.12602228  0.10028241  0.32547264  1
  H+  H129  1  0.09487382  0.97820573  0.48399907  1
  H+  H130  1  0.53046594  0.89595337  0.47206675  1
  H+  H131  1  0.62952079  0.89336655  0.16354401  1
  H+  H132  1  0.51843398  0.62656126  0.82299075  1
  H+  H133  1  0.76735700  0.63162772  0.33372986  1
  H+  H134  1  0.11990204  0.78068569  0.50135218  1
  H+  H135  1  0.38104919  0.86544049  0.48480837  1
  H+  H136  1  0.71095318  0.60602177  0.17066971  1
  H+  H137  1  0.86131187  0.98417491  0.33129339  1
  H+  H138  1  0.70515399  0.95523081  0.80921759  1
  H+  H139  1  0.37696183  0.38558915  0.65618466  1
  H+  H140  1  0.72429697  0.12679754  0.84114394  1
  H+  H141  1  0.03871911  0.62657519  0.80850783  1
  H+  H142  1  0.35820684  0.38932331  0.00923603  1
  H+  H143  1  0.06353799  0.13928317  0.43061726  1
  H+  H144  1  0.87953497  0.36182233  0.16245383  1
  H+  H145  1  0.12091036  0.74242127  -0.00879854  1
  H+  H146  1  0.35835991  0.61948887  0.68171045  1
  H+  H147  1  0.30585141  0.63338641  0.85632164  1
  H+  H148  1  0.96232583  0.90967527  0.62954636  1
  H+  H149  1  0.35658834  0.71659256  0.34168350  1
  H+  H150  1  0.86127851  0.14831543  0.82393042  1
  H+  H151  1  0.38663567  0.59731646  0.17850201  1
  H+  H152  1  0.64125623  0.61924963  0.83157022  1
  H+  H153  1  1.00964404  0.15448964  0.51384473  1
  H+  H154  1  0.10459558  0.47468684  0.20393723  1
  H+  H155  1  0.89106842  0.14467923  0.17490067  1
  H+  H156  1  0.39942886  0.86821022  0.18157385  1
  H+  H157  1  0.35319387  0.12937550  0.82838582  1
  H+  H158  1  0.77188571  0.28685207  0.46153859  1
  H+  H159  1  0.60472587  0.37995720  0.00427835  1
  H+  H160  1  0.36326001  0.46787478  0.16954042  1
  H+  H161  1  0.15035286  0.81721431  0.88885048  1
  H+  H162  1  0.13161397  0.60703018  0.32865137  1
  H+  H163  1  0.11944032  0.20908386  0.15477864  1
  H+  H164  1  0.28976760  0.88961182  0.16560748  1
  H+  H165  1  0.90774387  0.82475343  0.26127615  1
  H+  H166  1  0.21348592  0.36694082  0.86808319  1
  H+  H167  1  0.62120460  0.60067311  0.48616314  1
  H+  H168  1  0.24019969  0.12022872  0.49365644  1
  H+  H169  1  0.22802659  0.10487787  0.17541730  1
  H+  H170  1  0.35441682  0.70137245  0.70427101  1
  H+  H171  1  0.85812250  0.15047220  -0.01323510  1
  H+  H172  1  0.82985773  0.83886187  0.47407954  1
  H+  H173  1  0.65389500  0.01288988  0.49299345  1
  H+  H174  1  0.38193641  0.48965641  0.65822026  1
  H+  H175  1  0.83918224  0.65414468  -0.04347755  1
  H+  H176  1  0.13622069  0.10029540  0.17212448  1
  H+  H177  1  0.46870279  0.10475435  0.17956524  1
  H+  H178  1  0.10501339  0.22288239  1.01042623  1
  H+  H179  1  0.36253445  0.13421694  0.67447225  1
  H+  H180  1  0.20972342  0.33673185  0.32500389  1
  H+  H181  1  0.88333579  0.77845029  0.16748023  1
  H+  H182  1  0.36345484  0.67046724  0.09947641  1
  H+  H183  1  0.62656732  0.10875003  0.83810923  1
  H+  H184  1  1.04981054  0.63497123  0.67268505  1
  H+  H185  1  0.46488384  0.35504643  0.99103925  1
  H+  H186  1  0.02042179  0.39196509  0.68239847  1
  H+  H187  1  0.10301897  0.46083876  0.34340688  1
  H+  H188  1  0.85891538  0.47575271  1.02413937  1
  H+  H189  1  0.48053980  0.11996021  0.67412025  1
  H+  H190  1  0.27740621  0.14392830  0.67031455  1
  H+  H191  1  0.32932518  0.65361319  0.39835653  1
  H+  H192  1  0.37113362  0.97759188  0.67967818  1
  H+  H193  1  0.87532838  0.75618591  0.49350145  1
  H+  H194  1  0.07143992  0.67156049  0.38954172  1
  H+  H195  1  0.60020829  0.14588582  0.68584269  1
  H+  H196  1  -0.03415691  0.34492923  0.33367841  1
  H+  H197  1  0.88400389  0.35657720  0.32670533  1
  H+  H198  1  0.03328527  0.42382908  -0.01369898  1
  H+  H199  1  0.76167196  0.38197848  0.17026626  1
  H+  H200  1  0.48797568  0.36427228  0.82600986  1
  H+  H201  1  0.89676677  1.04418473  0.66235270  1
  H+  H202  1  0.35958645  0.11678365  0.33306988  1
  H+  H203  1  0.35576415  0.37553754  0.81876883  1
  H+  H204  1  0.11070310  0.39826131  0.83557265  1
  H+  H205  1  0.77287570  0.13490658  0.16763165  1
  H+  H206  1  0.10304430  0.37311975  0.34065788  1
  H+  H207  1  0.38170197  0.14480993  0.50313695  1
  H+  H208  1  0.62024963  -0.01817889  1.01080992  1
  H+  H209  1  0.12778169  -0.01462609  0.33418288  1
  H+  H210  1  0.60614483  0.22139925  0.01183105  1
  H+  H211  1  0.97028082  0.60999387  0.32466237  1
  H+  H212  1  0.15050088  0.60352690  0.66227017  1
  H+  H213  1  0.10836938  0.86881409  0.97150183  1
  H+  H214  1  0.10765649  0.96584173  0.16418941  1
  H+  H215  1  0.28192803  0.87285134  0.02521189  1
  H+  H216  1  0.89161311  0.53408580  0.80664408  1
  H+  H217  1  0.38156387  0.51584733  0.50490905  1
  H+  H218  1  0.13082905  0.18605938  0.66773256  1
  H+  H219  1  0.85217359  0.46495695  0.67131980  1
  H+  H220  1  0.10046725  0.47026676  0.03826254  1
  H+  H221  1  0.86228977  0.22712061  0.46429644  1
  H+  H222  1  -0.02347938  0.12111839  0.82176750  1
  H+  H223  1  0.17123424  0.59394611  0.23794587  1
  H+  H224  1  0.60481990  0.21921998  0.16914119  1
  H+  H225  1  0.10762298  0.12927174  0.49071317  1
  H+  H226  1  0.17796673  0.65140613  0.50579119  1
  H+  H227  1  0.46934661  0.35278330  0.64810182  1
  H+  H228  1  0.90879847  0.81871281  0.66127173  1
  H+  H229  1  0.31760186  0.38916660  0.40303952  1
  H+  H230  1  -0.03770973  0.35919885  0.18695845  1
  H+  H231  1  0.86299400  0.60112579  0.48485981  1
  H+  H232  1  0.01077992  0.12693726  0.33902449  1
  H+  H233  1  0.85713028  0.22699535  0.15400090  1
  H+  H234  1  0.85235094  0.47221531  0.16683445  1
  H+  H235  1  0.28383462  0.88635233  0.67204060  1
  H+  H236  1  0.87148065  0.86928205  1.00490187  1
  H+  H237  1  0.42496134  0.83528225  0.27722484  1
  H+  H238  1  0.29154877  0.57964648  0.11080556  1
  H+  H239  1  0.72403359  0.12249746  0.99166513  1
  H+  H240  1  0.21982133  0.60460944  0.33072750  1
  H+  H241  1  0.70742280  0.04171055  0.34337964  1
  H+  H242  1  0.93196455  0.59082990  0.71986169  1
  H+  H243  1  0.22665539  0.84868189  0.83264881  1
  H+  H244  1  0.11808416  0.15322413  0.82381143  1
  H+  H245  1  0.36644282  0.25921781  0.84076989  1
  H+  H246  1  0.88712444  0.36337455  0.66857068  1
  H+  H247  1  0.88161470  0.76268233  0.83957065  1
  H+  H248  1  0.79939456  0.66995998  0.82798892  1
  H+  H249  1  0.67906137  0.11150651  0.49545502  1
  H+  H250  1  0.14098159  0.74391287  0.83218604  1
  H+  H251  1  0.52226270  0.37859941  0.15592826  1
  H+  H252  1  0.15744692  0.55703553  0.96658612  1
  H+  H253  1  0.70634922  0.84108247  0.50424255  1
  H+  H254  1  0.65541802  0.32797015  0.24285431  1
  H+  H255  1  0.62146785  0.50912061  0.99098284  1
  H+  H256  1  0.16366768  0.62223852  0.47819239  1
  H+  H257  1  0.87145545  0.87602005  0.84901232  1
  H+  H258  1  0.84900104  0.90108489  0.68079616  1
  H+  H259  1  0.89316397  0.38022834  -0.00232243  1
  H+  H260  1  0.14219038  0.33475731  0.14343796  1
  H+  H261  1  0.35175446  0.22979724  0.47063271  1
  H+  H262  1  0.81690501  0.94452150  0.87394163  1
  H+  H263  1  0.08832242  0.40033912  0.44084002  1
  H+  H264  1  0.56124026  0.10864805  0.49293663  1
  H+  H265  1  0.89552120  0.61122126  0.17434710  1
  H+  H266  1  0.59039966  0.49544828  0.64527808  1
  H+  H267  1  0.62423036  0.60841561  0.17407727  1
  H+  H268  1  0.26458034  0.13152710  0.00797242  1
  H+  H269  1  0.22820732  0.61225645  0.17778900  1
  H+  H270  1  0.58896773  0.20828386  0.83244251  1
  H+  H271  1  0.87657727  0.86684575  0.16768494  1
  H+  H272  1  0.92511214  0.17520803  0.51391550  1
  H+  H273  1  0.72003340  0.84857562  0.84680743  1
  H+  H274  1  0.64101480  0.77767491  0.17055108  1
  H+  H275  1  0.51525281  0.62647371  0.49265988  1
  H+  H276  1  0.47506524  0.85848699  0.33933824  1
  H+  H277  1  0.60816372  0.47007068  0.15707411  1
  H+  H278  1  0.76398095  0.59216798  0.67569468  1
  H+  H279  1  0.64322436  0.02380434  0.65457580  1
  H+  H280  1  0.61525153  0.25747457  0.67369474  1
  H+  H281  1  1.00898650  0.88448122  0.48218136  1
  H+  H282  1  0.59068394  0.62664546  0.66489116  1
  H+  H283  1  0.17439493  0.49229556  0.51693100  1
  H+  H284  1  0.62518492  0.83542586  0.85090725  1
  H+  H285  1  0.39346942  0.35639867  0.17402717  1
  H+  H286  1  0.59612068  0.37419782  0.48031661  1
  H+  H287  1  0.36535452  0.72092528  0.48552602  1
  H+  H288  1  0.82231985  0.66095146  0.41918669  1
  H+  H289  1  0.15759089  0.31573674  0.26352536  1
  H+  H290  1  0.56217892  0.15780825  0.76934892  1
  H+  H291  1  0.64636108  0.31707830  0.61084089  1
  H+  H292  1  0.83453462  0.17669098  0.73702610  1
  H+  H293  1  0.81900902  0.65274472  0.08435957  1
  H+  H294  1  0.41080200  0.81084890  0.64120900  1
  H+  H295  1  0.16077632  0.07448401  0.26500796  1
  H+  H296  1  0.82114470  0.92746899  0.74238045  1
  H+  H297  1  0.07322179  0.15264806  0.06252188  1
  H+  H298  1  0.40116758  0.07499364  0.90458591  1
  H+  H299  1  0.86232655  0.23808613  0.82958475  1
  H+  H300  1  0.16364544  0.08774116  0.93300820  1
  H+  H301  1  1.00734030  0.88113816  0.99267908  1
  H+  H302  1  0.63639708  0.55438945  0.54070684  1
  H+  H303  1  0.13160275  0.87297647  0.50582247  1
  H+  H304  1  0.27264300  0.39297708  0.01414253  1
  H+  H305  1  0.41859291  0.57346453  0.24062501  1
  H+  H306  1  0.09006297  0.92008785  0.39681875  1
  H+  H307  1  0.36378398  0.98646310  0.33162604  1
  H+  H308  1  0.75967397  0.37599563  0.67099346  1
  H+  H309  1  0.57372636  0.65963819  0.10487365  1
  H+  H310  1  0.91736108  0.10340143  0.26438650  1
  H+  H311  1  0.17820024  0.84800435  0.27496148  1
  H+  H312  1  0.59334336  0.92317632  0.07076187  1
  H+  H313  1  0.34957849  0.91602465  0.07704999  1
  H+  H314  1  0.11980446  0.69209931  0.05254095  1
  H+  H315  1  0.82769915  0.90448787  0.07944242  1
  H+  H316  1  0.75206913  0.62355920  0.99128808  1
  H+  H317  1  0.40524949  0.06970200  0.24066561  1
  H+  H318  1  0.58190070  0.66778209  0.39701621  1
  H+  H319  1  0.81929731  0.40580671  0.07476036  1
  H+  H320  1  0.66393075  0.82632825  0.26413712  1
  H+  H321  1  0.65768730  0.83302402  0.56799640  1
  H+  H322  1  0.94648260  0.37226904  0.57865702  1
  H+  H323  1  0.05588829  0.34300973  0.09077387  1
  H+  H324  1  0.57313411  0.15871683  0.39583594  1
  H+  H325  1  0.88353527  1.03208026  0.82475248  1
  H+  H326  1  0.33090742  0.16362505  0.76668448  1
  H+  H327  1  0.82830138  0.91661070  0.38685332  1
  H+  H328  1  0.82795464  0.41299488  0.76217239  1
  H+  H329  1  0.11320118  0.65874802  0.76099722  1
  H+  H330  1  0.90412023  0.84904876  0.91030752  1
  H+  H331  1  0.03799322  0.17371837  0.67425809  1
  H+  H332  1  0.95261722  0.14089829  0.57954713  1
  H+  H333  1  0.75025185  0.79336395  0.43040548  1
  H+  H334  1  0.83970664  0.35876767  0.41938473  1
  H+  H335  1  0.08734883  0.65302407  0.48087219  1
  H+  H336  1  0.67313836  0.58214136  0.63406057  1
  H+  H337  1  0.06109151  0.38383804  0.10444984  1
  H+  H338  1  0.23515787  0.94661604  0.21483771  1
  H+  H339  1  0.32929135  0.92002914  0.42804015  1
  H+  H340  1  0.59760331  0.37877542  0.37630356  1
  H+  H341  1  0.96096856  0.59738222  0.91359609  1
  H+  H342  1  0.61841170  0.36046604  0.82171980  1
  H+  H343  1  0.09861961  0.19675898  0.76528050  1
  H+  H344  1  0.32899298  0.15697086  0.10431232  1
  H+  H345  1  0.85801165  0.72280337  0.33247329  1
  H+  H346  1  0.42693432  0.84559026  0.53830286  1
  H+  H347  1  0.65626061  0.08289104  0.93816850  1
  H+  H348  1  0.64782853  0.95173906  0.36993010  1
  H+  H349  1  0.44988533  0.19680685  0.55367720  1
  H+  H350  1  0.87222942  0.77878098  -0.00783583  1
  H+  H351  1  0.87977833  0.60782778  0.32784935  1
  H+  H352  1  0.20014708  0.55029237  0.57663182  1
  H+  H353  1  0.95153773  0.63364323  0.91534179  1
  H+  H354  1  0.13599582  0.88895647  0.34010431  1
  H+  H355  1  0.12476420  0.48897569  0.67780748  1
  H+  H356  1  0.10071108  0.96933543  -0.00850300  1
  H+  H357  1  0.08384228  0.90163595  0.80022745  1
  H+  H358  1  0.66277932  0.57855489  0.27049133  1
  H+  H359  1  0.60695874  0.92315272  0.75194438  1
  H+  H360  1  0.67189628  0.32882949  0.93875123  1
  H+  H361  1  0.32505638  0.91593226  0.77114080  1
  H+  H362  1  0.32879613  0.15923459  0.41307132  1
  H+  H363  1  0.08412919  0.42591125  0.74329653  1
  H+  H364  1  0.77305148  0.38866737  0.34559320  1
  H+  H365  1  0.57329260  0.65885087  0.72926896  1
  H+  H366  1  0.62885004  0.35664661  0.18127583  1
  H+  H367  1  0.65742213  0.81616899  0.94409753  1
  H+  H368  1  0.65002770  0.57225367  0.93244868  1
  H+  H369  1  0.70524679  0.13158926  0.26441110  1
  H+  H370  1  0.89883652  0.82206341  0.55018644  1
  H+  H371  1  0.18182596  0.12350655  0.59132765  1
  H+  H372  1  0.35666123  0.42194530  0.72147003  1
  H+  H373  1  0.88785711  0.73007707  0.75118065  1
  H+  H374  1  0.91924170  0.35418262  0.93438429  1
  H+  H375  1  0.90987964  0.57516739  0.23614255  1
  H+  H376  1  0.38390819  0.02008144  1.00014266  1
  H+  H377  1  0.14839446  0.32864482  0.94601683  1
  H+  H378  1  0.33577980  0.41580339  0.10606853  1
  H+  H379  1  0.19893588  0.04202945  0.53932814  1
  H+  H380  1  0.17456191  0.83385949  0.59607629  1
  H+  H381  1  0.62835118  0.77144627  0.66552497  1
  H+  H382  1  0.41458488  0.33014125  0.54841936  1
  H+  H383  1  0.57651239  0.16252098  0.10832384  1
  O2-  O384  1  0.08277638  0.14871524  0.14110696  1
  O2-  O385  1  0.05438580  0.12369428  0.47499945  1
  O2-  O386  1  0.09107179  0.18791844  0.81019490  1
  O2-  O387  1  0.07205623  0.41467003  0.21847395  1
  O2-  O388  1  0.09397313  0.39953500  0.48589015  1
  O2-  O389  1  0.08461618  0.43180148  0.81786426  1
  O2-  O390  1  0.14137696  0.70294088  0.12559129  1
  O2-  O391  1  0.05778877  0.68315574  0.46683567  1
  O2-  O392  1  0.10195921  0.65027901  0.80577756  1
  O2-  O393  1  0.08175451  0.90386683  0.15457287  1
  O2-  O394  1  0.07095244  0.91855908  0.46969314  1
  O2-  O395  1  0.07792566  0.92830177  0.83723810  1
  O2-  O396  1  0.32866292  0.15593692  0.14956472  1
  O2-  O397  1  0.32438042  0.16708905  0.46191204  1
  O2-  O398  1  0.32645032  0.16257963  0.81192192  1
  O2-  O399  1  0.33059912  0.40844860  0.15134385  1
  O2-  O400  1  0.32668446  0.41566051  0.47766722  1
  O2-  O401  1  0.33702403  0.41228154  0.79551873  1
  O2-  O402  1  0.32435589  0.63339972  0.13314384  1
  O2-  O403  1  0.34403608  0.66024571  0.47427882  1
  O2-  O404  1  0.28339486  0.67116497  0.86692539  1
  O2-  O405  1  0.35005875  0.91643673  0.15110839  1
  O2-  O406  1  0.33130953  0.91332262  0.47338471  1
  O2-  O407  1  0.31799252  0.90982282  0.81639545  1
  O2-  O408  1  0.57554810  0.15902342  0.15347802  1
  O2-  O409  1  0.55886332  0.15765686  0.47643291  1
  O2-  O410  1  0.56061508  0.14936147  0.81630056  1
  O2-  O411  1  0.58415255  0.41077550  0.14034791  1
  O2-  O412  1  0.56947403  0.39944749  0.45449005  1
  O2-  O413  1  0.54830070  0.39981954  0.80809327  1
  O2-  O414  1  0.58092526  0.66523567  0.15027470  1
  O2-  O415  1  0.57605311  0.66085170  0.47775345  1
  O2-  O416  1  0.57822758  0.65472935  0.80652772  1
  O2-  O417  1  0.59956277  0.92615657  0.15028544  1
  O2-  O418  1  0.59331709  0.92199006  0.46631446  1
  O2-  O419  1  0.64632893  0.94594795  0.80819530  1
  O2-  O420  1  0.83175063  0.16280078  0.15009785  1
  O2-  O421  1  0.86157616  0.17327082  0.47398780  1
  O2-  O422  1  0.82876759  0.17848207  0.81314501  1
  O2-  O423  1  0.81885087  0.41220644  0.15001485  1
  O2-  O424  1  0.83328821  0.31962884  0.45420726  1
  O2-  O425  1  0.83410572  0.42509934  0.80711966  1
  O2-  O426  1  0.80864729  0.62750924  0.12521866  1
  O2-  O427  1  0.81936724  0.65877271  0.46631226  1
  O2-  O428  1  0.86138106  0.70357769  0.81904956  1
  O2-  O429  1  0.82808421  0.90317729  0.14783306  1
  O2-  O430  1  0.78204185  0.84449568  0.45545754  1
  O2-  O431  1  0.80860885  0.92063532  0.83282690  1
  O2-  O432  1  0.16716541  0.07320558  0.19123530  1
  O2-  O433  1  0.18586563  0.08359725  0.52095859  1
  O2-  O434  1  0.16155512  0.09705713  0.85305453  1
  O2-  O435  1  0.16932976  0.32110634  0.17673132  1
  O2-  O436  1  0.17116143  0.32359069  0.54002257  1
  O2-  O437  1  0.15111071  0.33678325  0.86515228  1
  O2-  O438  1  0.16931007  0.59230535  0.19217325  1
  O2-  O439  1  0.22245503  0.54243274  0.53790377  1
  O2-  O440  1  0.14617147  0.51867077  0.84029990  1
  O2-  O441  1  0.19855973  0.88594497  0.20486726  1
  O2-  O442  1  0.15737350  0.83858860  0.51991414  1
  O2-  O443  1  0.16214519  0.80699995  0.84361808  1
  O2-  O444  1  0.40712076  0.07035106  0.19165052  1
  O2-  O445  1  0.42441351  0.14167821  0.53274054  1
  O2-  O446  1  0.39704764  0.07184029  0.85904837  1
  O2-  O447  1  0.42846830  0.32941706  0.18281473  1
  O2-  O448  1  0.41012756  0.33156485  0.50358729  1
  O2-  O449  1  0.39460265  0.32123904  0.85419967  1
  O2-  O450  1  0.41817786  0.56934209  0.19374744  1
  O2-  O451  1  0.41666248  0.57542663  0.52236830  1
  O2-  O452  1  0.41039136  0.58175278  0.84854759  1
  O2-  O453  1  0.43073114  0.83980414  0.19951666  1
  O2-  O454  1  0.41768086  0.83708251  0.49475674  1
  O2-  O455  1  0.41221470  0.82779443  0.84696225  1
  O2-  O456  1  0.67030000  0.08843573  0.19588217  1
  O2-  O457  1  0.69547072  0.07171819  0.51226132  1
  O2-  O458  1  0.66368547  0.08598740  0.85365057  1
  O2-  O459  1  0.65673040  0.32481118  0.19794603  1
  O2-  O460  1  0.64226547  0.31991058  0.52469170  1
  O2-  O461  1  0.65564359  0.33398154  0.82021195  1
  O2-  O462  1  0.65262848  0.57479470  0.18765716  1
  O2-  O463  1  0.64749339  0.56420531  0.49672061  1
  O2-  O464  1  0.68094150  0.60048279  0.85031641  1
  O2-  O465  1  0.67262334  0.83788059  0.18533453  1
  O2-  O466  1  0.64985383  0.82464546  0.52362248  1
  O2-  O467  1  0.65620772  0.80508095  0.86064558  1
  O2-  O468  1  0.94524352  0.14202116  0.19588161  1
  O2-  O469  1  0.97448634  0.17501776  0.54064064  1
  O2-  O470  1  0.91515625  0.09515118  0.83326992  1
  O2-  O471  1  0.91154564  0.33032549  0.16029393  1
  O2-  O472  1  0.96215337  0.40063829  0.53850945  1
  O2-  O473  1  0.91563169  0.34427418  0.85524277  1
  O2-  O474  1  0.91446722  0.57306624  0.19102397  1
  O2-  O475  1  0.89829314  0.57239819  0.49165505  1
  O2-  O476  1  0.93055708  0.59557626  0.79444559  1
  O2-  O477  1  0.91332743  0.83677257  0.18319527  1
  O2-  O478  1  0.90499791  0.81905745  0.50584605  1
  O2-  O479  1  0.90776811  0.85113018  0.86377488  1
  O2-  O480  1  0.15862477  0.07199640  0.31109355  1
  O2-  O481  1  0.17800509  0.12800929  0.63658218  1
  O2-  O482  1  0.16113503  0.07995565  0.97802729  1
  O2-  O483  1  0.15084182  0.31329450  0.30803845  1
  O2-  O484  1  0.18381368  0.35824992  0.60227710  1
  O2-  O485  1  0.15588734  0.33600489  0.99065737  1
  O2-  O486  1  0.15996259  0.57493323  0.31402254  1
  O2-  O487  1  0.17510520  0.56454294  0.65597272  1
  O2-  O488  1  0.19366424  0.62156564  0.96094704  1
  O2-  O489  1  0.17392642  0.83945300  0.32039851  1
  O2-  O490  1  0.18329251  0.82720570  0.64049976  1
  O2-  O491  1  0.14911403  0.84037730  0.95343742  1
  O2-  O492  1  0.39999485  0.06623163  0.30558012  1
  O2-  O493  1  0.41687456  0.08172580  0.65762776  1
  O2-  O494  1  0.40919847  0.07878960  0.98291781  1
  O2-  O495  1  0.36770024  0.39278369  0.32404809  1
  O2-  O496  1  0.40931746  0.32607018  0.63124577  1
  O2-  O497  1  0.40449639  0.32667609  0.97582641  1
  O2-  O498  1  0.42070502  0.58165223  0.30980536  1
  O2-  O499  1  0.41037124  0.57189692  0.63996561  1
  O2-  O500  1  0.36477775  0.60866790  1.00221568  1
  O2-  O501  1  0.41718355  0.83058482  0.32244659  1
  O2-  O502  1  0.41576929  0.82380574  0.68453697  1
  O2-  O503  1  0.43387682  0.83412641  0.97568627  1
  O2-  O504  1  0.71980684  0.16948834  0.30158349  1
  O2-  O505  1  0.68302668  0.08033162  0.63790685  1
  O2-  O506  1  0.65947904  0.08546159  0.98305176  1
  O2-  O507  1  0.65631080  0.33168771  0.32730660  1
  O2-  O508  1  0.65087472  0.32239070  0.65556077  1
  O2-  O509  1  0.66632679  0.33144794  0.98261730  1
  O2-  O510  1  0.67114570  0.58409353  0.31510686  1
  O2-  O511  1  0.61161403  0.55276964  0.62511401  1
  O2-  O512  1  0.65178446  0.57105337  0.97723593  1
  O2-  O513  1  0.66415896  0.82236874  0.30939824  1
  O2-  O514  1  0.65454513  0.83386011  0.65455946  1
  O2-  O515  1  0.65684337  0.81897344  0.98901224  1
  O2-  O516  1  0.90722250  0.09081909  0.30951812  1
  O2-  O517  1  0.92958567  0.10538768  0.65079373  1
  O2-  O518  1  0.91247578  0.10296035  0.96187271  1
  O2-  O519  1  0.90631249  0.31739708  0.31760318  1
  O2-  O520  1  0.92650072  0.34161620  0.65729722  1
  O2-  O521  1  0.93122758  0.36082134  0.97882620  1
  O2-  O522  1  0.90813105  0.57444381  0.31467826  1
  O2-  O523  1  0.93708205  0.58107509  0.67499795  1
  O2-  O524  1  0.92315818  0.58401842  1.03264968  1
  O2-  O525  1  0.90480261  0.82022274  0.30658631  1
  O2-  O526  1  0.90473231  0.86000707  0.63274257  1
  O2-  O527  1  0.90382790  0.84001267  0.98131519  1
  O2-  O528  1  0.07591716  0.16005982  0.01747148  1
  O2-  O529  1  0.07078691  0.15031749  0.35406180  1
  O2-  O530  1  0.09909528  0.21265710  0.68557972  1
  O2-  O531  1  0.09786642  0.45943430  -0.00535587  1
  O2-  O532  1  0.07553025  0.40225288  0.36121928  1
  O2-  O533  1  0.08277613  0.42232857  0.69752873  1
  O2-  O534  1  0.10665943  0.68506195  0.00746239  1
  O2-  O535  1  0.07927330  0.66634018  0.34525037  1
  O2-  O536  1  0.11214807  0.66493878  0.68262879  1
  O2-  O537  1  0.07118145  0.90588558  -0.00212626  1
  O2-  O538  1  0.10383372  0.92308221  0.35212121  1
  O2-  O539  1  0.08122170  0.86066509  0.71555224  1
  O2-  O540  1  0.32512394  0.16362673  0.02335923  1
  O2-  O541  1  0.33321586  0.15177369  0.35091758  1
  O2-  O542  1  0.33641761  0.17022726  0.68684040  1
  O2-  O543  1  0.33300577  0.42186234  0.02792151  1
  O2-  O544  1  0.30176233  0.35465370  0.36365738  1
  O2-  O545  1  0.35625031  0.42423740  0.67571416  1
  O2-  O546  1  0.41342422  0.69244233  0.03330626  1
  O2-  O547  1  0.32492793  0.65495083  0.35295155  1
  O2-  O548  1  0.32436692  0.63835738  0.70600391  1
  O2-  O549  1  0.34309775  0.91194487  0.03104357  1
  O2-  O550  1  0.33114010  0.92205594  0.35292197  1
  O2-  O551  1  0.33957802  0.91634559  0.69469511  1
  O2-  O552  1  0.57317041  0.16115487  0.02614809  1
  O2-  O553  1  0.58119114  0.16783614  0.35150375  1
  O2-  O554  1  0.56847842  0.17369106  0.69981050  1
  O2-  O555  1  0.57277761  0.40887783  0.01787896  1
  O2-  O556  1  0.59821309  0.36655239  0.33229131  1
  O2-  O557  1  0.56378605  0.40185567  0.68162326  1
  O2-  O558  1  0.56221765  0.65181510  0.02848638  1
  O2-  O559  1  0.58480123  0.66531115  0.35220137  1
  O2-  O560  1  0.57156267  0.66466411  0.68377389  1
  O2-  O561  1  0.59074122  0.92089048  0.02524128  1
  O2-  O562  1  0.65233407  0.98979854  0.33691797  1
  O2-  O563  1  0.58093832  0.90609299  0.70586134  1
  O2-  O564  1  0.82299051  0.17668641  -0.00027834  1
  O2-  O565  1  0.78821200  0.16316232  0.33308327  1
  O2-  O566  1  0.84112461  0.17548748  0.69156529  1
  O2-  O567  1  0.82418111  0.41196485  0.02895713  1
  O2-  O568  1  0.83353200  0.41255151  0.35780065  1
  O2-  O569  1  0.82080400  0.40491513  0.68584747  1
  O2-  O570  1  0.81742538  0.65842626  -0.00377935  1
  O2-  O571  1  0.82941317  0.66221131  0.34971825  1
  O2-  O572  1  0.90846196  0.74229393  0.70681489  1
  O2-  O573  1  0.82782149  0.90559094  0.03204091  1
  O2-  O574  1  0.83595876  0.92258804  0.34254423  1
  O2-  O575  1  0.81821879  0.92939765  0.69751060  1
