# generated using pymatgen
data_H2O
_symmetry_space_group_name_H-M   'P 1'
_cell_length_a   17.99220806
_cell_length_b   17.99506578
_cell_length_c   22.00033703
_cell_angle_alpha   89.99068641
_cell_angle_beta   89.99965342
_cell_angle_gamma   119.98601606
_symmetry_Int_Tables_number   1
_chemical_formula_structural   H2O
_chemical_formula_sum   'H384 O192'
_cell_volume   6169.62887528
_cell_formula_units_Z   192
loop_
 _symmetry_equiv_pos_site_id
 _symmetry_equiv_pos_as_xyz
  1  'x, y, z'
loop_
 _atom_type_symbol
 _atom_type_oxidation_number
  H+  1.0
  O2-  -2.0
loop_
 _atom_site_type_symbol
 _atom_site_label
 _atom_site_symmetry_multiplicity
 _atom_site_fract_x
 _atom_site_fract_y
 _atom_site_fract_z
 _atom_site_occupancy
  H+  H0  1  0.86793392  0.21865409  0.17024941  1
  H+  H1  1  0.16488737  0.16259588  0.84812837  1
  H+  H2  1  0.63846903  0.11116626  0.17843804  1
  H+  H3  1  0.77939229  0.64207014  0.49019377  1
  H+  H4  1  0.38763100  1.02993746  0.33202414  1
  H+  H5  1  0.87147169  0.35185357  0.52390400  1
  H+  H6  1  0.52554952  0.13511946  0.16801911  1
  H+  H7  1  1.01407356  0.37110928  1.01348515  1
  H+  H8  1  0.27097190  0.14876914  1.01663825  1
  H+  H9  1  0.80479229  0.36479442  0.66036420  1
  H+  H10  1  0.36880256  0.72213048  0.50130994  1
  H+  H11  1  0.28176066  0.64614551  0.66949409  1
  H+  H12  1  0.51329179  0.63363074  0.34064216  1
  H+  H13  1  0.85408639  0.38524965  0.14811521  1
  H+  H14  1  0.89622119  0.13224864  0.99686099  1
  H+  H15  1  0.55143448  0.39701566  0.67460674  1
  H+  H16  1  0.36957938  0.18478395  0.73719496  1
  H+  H17  1  0.38649317  0.10696855  0.50148022  1
  H+  H18  1  0.89182588  0.52883772  0.17437742  1
  H+  H19  1  0.13020058  0.25444814  0.47091823  1
  H+  H20  1  0.35761266  0.72895546  -0.00674061  1
  H+  H21  1  0.11012757  0.21962316  0.17142852  1
  H+  H22  1  0.90390935  0.06094487  0.60242976  1
  H+  H23  1  0.72678807  0.10917201  0.17877151  1
  H+  H24  1  0.75209219  0.90661933  0.52067457  1
  H+  H25  1  0.67686914  0.84268625  0.60657858  1
  H+  H26  1  0.85704742  0.21956832  0.35674221  1
  H+  H27  1  0.73029371  0.85698845  0.66720457  1
  H+  H28  1  0.72863683  0.36144544  0.99073532  1
  H+  H29  1  0.22059352  0.86116175  0.99616897  1
  H+  H30  1  0.02022130  0.88720678  0.00304544  1
  H+  H31  1  0.27383927  0.88571821  0.16382216  1
  H+  H32  1  0.52694896  0.61707036  0.01110539  1
  H+  H33  1  0.36816802  0.38969993  0.66624461  1
  H+  H34  1  0.60992859  0.74582995  -0.00672882  1
  H+  H35  1  0.40744806  0.66219687  0.82045355  1
  H+  H36  1  0.01464940  0.63163766  0.66688992  1
  H+  H37  1  0.72104914  0.35103987  0.83540377  1
  H+  H38  1  0.12114586  0.46935938  0.16365089  1
  H+  H39  1  0.36119191  0.62725841  0.51396740  1
  H+  H40  1  0.27300659  0.13288884  0.49964612  1
  H+  H41  1  0.12981318  0.27007606  0.99725053  1
  H+  H42  1  0.63624258  0.86059723  0.34036063  1
  H+  H43  1  0.63317484  0.39029327  0.49092083  1
  H+  H44  1  0.88774908  0.49818574  0.49105107  1
  H+  H45  1  0.13230929  0.03594194  0.99327460  1
  H+  H46  1  0.02608849  0.87916445  0.16264420  1
  H+  H47  1  0.61240440  0.97863637  0.16053401  1
  H+  H48  1  0.42750319  0.92497553  0.81575498  1
  H+  H49  1  0.88450002  0.52881296  0.32731085  1
  H+  H50  1  0.41417741  0.29022793  0.66468773  1
  H+  H51  1  0.61247368  0.63399083  0.16048032  1
  H+  H52  1  0.92518291  0.59439320  0.57189790  1
  H+  H53  1  0.59596974  0.13086838  0.81552579  1
  H+  H54  1  0.54138173  0.37504865  0.18982394  1
  H+  H55  1  0.45697317  0.60043455  0.51509297  1
  H+  H56  1  0.08882650  0.40219265  0.10878426  1
  H+  H57  1  0.86673611  0.59739122  0.83631326  1
  H+  H58  1  0.04923216  0.39104310  0.37932092  1
  H+  H59  1  0.90899463  0.82682166  0.59615895  1
  H+  H60  1  0.37246418  0.14958813  0.16844524  1
  H+  H61  1  0.37907251  0.88826438  0.48830376  1
  H+  H62  1  0.97124038  0.11621413  0.32725824  1
  H+  H63  1  0.10267244  0.23061795  0.82695438  1
  H+  H64  1  0.67680886  0.58446408  0.56292354  1
  H+  H65  1  0.40683790  0.11973720  0.65505002  1
  H+  H66  1  0.23031110  0.33866945  0.19903325  1
  H+  H67  1  0.11053617  0.71814771  0.67473453  1
  H+  H68  1  0.53790121  0.89336629  0.82824061  1
  H+  H69  1  0.61551024  0.22266500  0.16600370  1
  H+  H70  1  0.26016382  0.89536481  0.78944676  1
  H+  H71  1  0.64653352  0.01199938  0.99122510  1
  H+  H72  1  0.12905863  0.61337525  0.66071494  1
  H+  H73  1  0.77115531  0.39154204  0.15938047  1
  H+  H74  1  0.02592802  0.88908742  0.49681838  1
  H+  H75  1  0.34690624  0.38378858  0.83865761  1
  H+  H76  1  0.29129509  0.88982849  0.66854584  1
  H+  H77  1  0.32721911  0.41900970  0.77766501  1
  H+  H78  1  0.23262916  0.12123370  0.18411869  1
  H+  H79  1  0.64301148  0.01310485  0.65393502  1
  H+  H80  1  0.85636205  0.14432918  0.66067998  1
  H+  H81  1  0.87094300  0.64582114  0.49500260  1
  H+  H82  1  0.85932019  0.12780019  0.83320425  1
  H+  H83  1  0.35003875  0.72254088  0.13300060  1
  H+  H84  1  0.86636472  0.38390071  0.00537734  1
  H+  H85  1  0.86146629  0.12808613  0.16789363  1
  H+  H86  1  0.11296779  0.63852731  0.15609339  1
  H+  H87  1  0.62252300  0.88276798  0.67319676  1
  H+  H88  1  0.49407318  0.86794925  0.16814423  1
  H+  H89  1  0.35833414  0.96600517  0.00500594  1
  H+  H90  1  0.86039398  0.88376589  0.33803256  1
  H+  H91  1  0.61300417  0.62944345  0.83301044  1
  H+  H92  1  0.54146489  0.15302445  0.66086959  1
  H+  H93  1  0.77276638  0.86668508  0.00656953  1
  H+  H94  1  -0.01905336  0.61768554  0.17457437  1
  H+  H95  1  0.11723451  0.73088148  0.16143361  1
  H+  H96  1  0.11529692  0.26549291  0.69851602  1
  H+  H97  1  0.84982614  0.23115754  0.66768827  1
  H+  H98  1  -0.01171837  0.86936402  0.33114817  1
  H+  H99  1  0.30652849  0.41497057  0.63381383  1
  H+  H100  1  0.32578386  0.15894490  0.43581587  1
  H+  H101  1  0.52881358  0.14178832  0.49187266  1
  H+  H102  1  0.36767765  0.39880498  0.32185352  1
  H+  H103  1  0.23544806  0.86607530  0.50436705  1
  H+  H104  1  0.74033401  0.61292193  0.65646510  1
  H+  H105  1  0.39925554  0.53486546  0.67269555  1
  H+  H106  1  0.11538258  0.97640950  0.50055426  1
  H+  H107  1  0.52386064  0.63465731  0.15606219  1
  H+  H108  1  0.36227083  0.14266574  0.34388014  1
  H+  H109  1  0.13482829  0.33550882  0.44217516  1
  H+  H110  1  0.17992101  0.83303861  0.84032406  1
  H+  H111  1  0.08611815  0.11659173  0.67814917  1
  H+  H112  1  0.47645365  0.09475716  0.99786608  1
  H+  H113  1  0.37461828  0.38074115  1.02561588  1
  H+  H114  1  0.37205527  0.13348790  0.82826291  1
  H+  H115  1  0.38856853  0.02853512  0.17684954  1
  H+  H116  1  0.90294984  0.56992190  0.89428136  1
  H+  H117  1  0.06403730  0.65286950  0.76464067  1
  H+  H118  1  0.54214091  0.38594112  0.48781466  1
  H+  H119  1  0.11216932  0.89668236  1.00391545  1
  H+  H120  1  0.65044793  0.61296346  0.66131154  1
  H+  H121  1  0.76524347  0.87808980  0.83215886  1
  H+  H122  1  0.06397788  0.15002880  0.40937911  1
  H+  H123  1  0.94069197  0.94973814  0.02895233  1
  H+  H124  1  0.63772947  0.48585721  0.67626041  1
  H+  H125  1  0.73139488  0.11391868  0.65112278  1
  H+  H126  1  0.36287842  0.89270040  0.33657112  1
  H+  H127  1  0.72568134  0.11099751  0.51031210  1
  H+  H128  1  0.19936437  0.01615296  0.81301595  1
  H+  H129  1  0.63952133  0.51433685  0.99948661  1
  H+  H130  1  0.88882362  0.77312691  0.17931462  1
  H+  H131  1  0.59161458  0.61642519  0.49646776  1
  H+  H132  1  0.13856691  0.86775241  0.32942361  1
  H+  H133  1  0.49093399  0.62173674  0.67219996  1
  H+  H134  1  0.39395276  0.02136793  0.50133303  1
  H+  H135  1  0.88971111  0.78689670  0.50228798  1
  H+  H136  1  0.93102748  0.32386231  0.29537829  1
  H+  H137  1  0.66658405  0.08132122  0.27308537  1
  H+  H138  1  0.14179282  0.11646799  0.18453293  1
  H+  H139  1  0.89482504  0.88096505  0.51201651  1
  H+  H140  1  0.77193402  0.39307384  0.33707275  1
  H+  H141  1  0.13693785  0.85908227  0.16991539  1
  H+  H142  1  0.53235181  0.90246166  0.34824992  1
  H+  H143  1  0.72851656  0.61230521  0.17787986  1
  H+  H144  1  0.58871892  0.86477693  0.00740046  1
  H+  H145  1  0.84571546  0.70968578  0.82692010  1
  H+  H146  1  0.94605041  0.83679348  0.84113711  1
  H+  H147  1  0.85352615  0.46125418  0.81788111  1
  H+  H148  1  0.18013866  0.07118635  0.68575771  1
  H+  H149  1  0.83925506  0.65601028  0.72362019  1
  H+  H150  1  0.36262980  0.88663455  0.16116933  1
  H+  H151  1  0.61548842  0.37879743  0.00930207  1
  H+  H152  1  0.87954159  0.75950366  0.65310253  1
  H+  H153  1  0.21970946  0.60861957  0.16735799  1
  H+  H154  1  0.14597981  0.86712786  0.50553783  1
  H+  H155  1  0.36107643  0.39063327  0.47743480  1
  H+  H156  1  0.64325788  0.36327458  0.17074587  1
  H+  H157  1  0.40419534  0.87184047  0.64720466  1
  H+  H158  1  0.10110050  0.46274325  1.01696342  1
  H+  H159  1  0.47785946  0.35732660  0.99603257  1
  H+  H160  1  0.12334838  0.36635260  0.84333317  1
  H+  H161  1  0.76042141  0.62024189  0.82485495  1
  H+  H162  1  0.94386952  0.05338865  0.49234275  1
  H+  H163  1  0.86099772  0.70835632  0.00830533  1
  H+  H164  1  0.88427177  0.60405831  0.99487570  1
  H+  H165  1  0.31604207  0.70977357  0.36949549  1
  H+  H166  1  0.87521886  0.35043561  0.84489920  1
  H+  H167  1  0.86104115  0.21682809  0.83579604  1
  H+  H168  1  0.37416356  0.46773764  1.03402331  1
  H+  H169  1  0.85789995  0.96538046  0.83438876  1
  H+  H170  1  0.31715058  0.65054745  0.08357911  1
  H+  H171  1  0.41741668  0.79533943  0.31405617  1
  H+  H172  1  -0.00588701  0.61832437  0.82065365  1
  H+  H173  1  0.91982950  0.08137416  0.90320117  1
  H+  H174  1  0.63851021  0.02901135  0.33645765  1
  H+  H175  1  0.06980951  0.42226466  0.77419762  1
  H+  H176  1  0.76852197  0.13158297  0.35005525  1
  H+  H177  1  0.48241236  0.60857315  0.84973766  1
  H+  H178  1  0.31835188  0.01172888  0.86842794  1
  H+  H179  1  0.86042765  0.82421217  0.99514626  1
  H+  H180  1  0.63730258  0.27645806  0.32375889  1
  H+  H181  1  0.31327915  0.16468398  0.67734507  1
  H+  H182  1  0.12280769  0.36207821  -0.00270713  1
  H+  H183  1  0.63448882  0.36491875  0.32260725  1
  H+  H184  1  0.02503029  0.63690741  0.34198365  1
  H+  H185  1  1.02886706  0.15780875  1.00869419  1
  H+  H186  1  0.10258111  0.98518292  0.66308089  1
  H+  H187  1  0.60581166  0.22090527  0.00966793  1
  H+  H188  1  0.31520219  0.63860588  -0.04063606  1
  H+  H189  1  0.62281028  0.72292740  0.67669185  1
  H+  H190  1  0.19831481  0.60042106  1.00696502  1
  H+  H191  1  0.16260439  0.57918302  0.22866437  1
  H+  H192  1  0.72569815  0.11453772  0.84089537  1
  H+  H193  1  0.00215665  0.35248284  0.18864557  1
  H+  H194  1  0.19938736  1.02805344  0.78006236  1
  H+  H195  1  0.07433245  0.47334815  0.48097205  1
  H+  H196  1  0.08080517  0.16892108  0.10888766  1
  H+  H197  1  0.09599354  0.35207271  0.34094603  1
  H+  H198  1  0.21358369  0.36796536  0.84469643  1
  H+  H199  1  0.39966571  0.78064727  0.64819418  1
  H+  H200  1  0.98280863  0.62623137  0.50977802  1
  H+  H201  1  0.91479310  1.05417163  0.00278520  1
  H+  H202  1  0.60407203  0.71873635  0.34685851  1
  H+  H203  1  0.61167824  0.71850455  0.82994977  1
  H+  H204  1  0.87153185  0.97876463  0.18043049  1
  H+  H205  1  0.17522279  0.09339420  0.27522944  1
  H+  H206  1  0.64062978  0.60436188  0.99969219  1
  H+  H207  1  0.65569828  0.28008098  0.65414893  1
  H+  H208  1  0.85218199  0.21415368  0.50847609  1
  H+  H209  1  0.44612703  0.84409413  0.55951064  1
  H+  H210  1  0.38297755  0.69668984  0.76029381  1
  H+  H211  1  0.87854406  0.10920198  0.33534948  1
  H+  H212  1  0.77721960  0.12783745  0.00813701  1
  H+  H213  1  0.09578479  0.74258428  0.84274812  1
  H+  H214  1  0.88203128  0.35774557  0.33706862  1
  H+  H215  1  0.38077557  0.22857682  0.83080762  1
  H+  H216  1  0.13133862  0.52552415  0.65954803  1
  H+  H217  1  0.37426826  0.85600052  -0.00342989  1
  H+  H218  1  0.74377153  0.36520451  0.50226634  1
  H+  H219  1  0.12600020  0.73458488  0.49216128  1
  H+  H220  1  -0.02448602  0.10313568  0.84317485  1
  H+  H221  1  -0.03382412  0.35612703  0.84597806  1
  H+  H222  1  0.63430096  0.85572011  0.83699463  1
  H+  H223  1  0.11641167  0.15238963  0.01097277  1
  H+  H224  1  0.64933398  0.81707364  0.89857689  1
  H+  H225  1  0.58709692  0.65493840  0.07044771  1
  H+  H226  1  0.63727869  0.52531031  0.17849717  1
  H+  H227  1  0.90276766  0.53306144  0.64982935  1
  H+  H228  1  0.26458954  0.85576024  0.79282090  1
  H+  H229  1  0.41899421  0.79227671  0.83809454  1
  H+  H230  1  0.62104494  0.60112616  0.33267487  1
  H+  H231  1  0.15246801  0.35678514  0.18841994  1
  H+  H232  1  0.07028651  0.08285232  0.45053742  1
  H+  H233  1  0.13740691  0.85149088  0.65737357  1
  H+  H234  1  0.63569409  0.11214651  0.50951375  1
  H+  H235  1  0.92627690  0.36595951  0.20926512  1
  H+  H236  1  0.07232103  0.84753013  0.82549040  1
  H+  H237  1  0.52135305  0.38065845  0.82021228  1
  H+  H238  1  0.10260404  0.74262457  1.01021407  1
  H+  H239  1  0.42714873  0.33598030  0.44097263  1
  H+  H240  1  0.00275292  0.85843086  0.66153523  1
  H+  H241  1  0.86246156  0.84569644  0.84665015  1
  H+  H242  1  0.87965011  0.64646648  0.34300839  1
  H+  H243  1  0.31002877  0.26614426  0.87634948  1
  H+  H244  1  0.97407370  0.11086350  0.18316877  1
  H+  H245  1  0.88848966  0.74728328  0.34303892  1
  H+  H246  1  0.63051064  0.51382272  0.84516906  1
  H+  H247  1  0.38738081  0.52710097  0.84943603  1
  H+  H248  1  0.87739439  0.63007568  0.66352930  1
  H+  H249  1  0.24266610  0.62824929  0.51594025  1
  H+  H250  1  -0.01066074  0.38603815  0.49437314  1
  H+  H251  1  0.55657299  0.64165268  0.43884507  1
  H+  H252  1  0.50277887  0.41737592  0.15042066  1
  H+  H253  1  0.26712253  0.37520883  0.46727358  1
  H+  H254  1  0.83881197  0.39819810  0.76181746  1
  H+  H255  1  0.27174012  0.88897996  0.33990062  1
  H+  H256  1  0.61433488  0.14160401  0.33902989  1
  H+  H257  1  0.38156084  0.52587677  0.31945046  1
  H+  H258  1  0.72203495  0.85628876  0.33296970  1
  H+  H259  1  0.38552081  0.61481921  0.16700070  1
  H+  H260  1  0.73027197  0.87711034  0.18504579  1
  H+  H261  1  0.89295328  0.86430118  0.18537075  1
  H+  H262  1  0.10938245  0.62951762  0.33849192  1
  H+  H263  1  0.21115885  0.59385989  0.33013709  1
  H+  H264  1  0.00866928  0.39683174  0.68295001  1
  H+  H265  1  0.24867245  0.65823195  0.79467290  1
  H+  H266  1  0.47754210  0.11888981  0.33115257  1
  H+  H267  1  0.69466691  0.83664542  0.99047477  1
  H+  H268  1  0.47870646  0.36264104  0.31727452  1
  H+  H269  1  0.38763189  0.27622010  0.32148815  1
  H+  H270  1  0.64048499  0.02554034  0.83893199  1
  H+  H271  1  0.14042246  0.12424727  0.33095504  1
  H+  H272  1  0.60931026  0.47551060  0.33539959  1
  H+  H273  1  0.09533109  0.60010135  0.85132774  1
  H+  H274  1  0.40069656  1.02466929  0.83177404  1
  H+  H275  1  0.65030118  0.52622316  0.50331418  1
  H+  H276  1  0.07460421  0.93559936  0.81526045  1
  H+  H277  1  0.09380898  0.38725276  0.69334835  1
  H+  H278  1  0.87393474  1.01401736  0.66516819  1
  H+  H279  1  0.38365730  0.41005818  0.11527936  1
  H+  H280  1  0.38469417  0.27010428  0.00241082  1
  H+  H281  1  0.41767024  0.08584452  0.23748586  1
  H+  H282  1  0.66656521  0.84692645  0.24206160  1
  H+  H283  1  0.85652871  0.96990944  0.33800857  1
  H+  H284  1  0.20404187  0.35129171  0.69913479  1
  H+  H285  1  0.08953024  0.47167397  0.83850438  1
  H+  H286  1  0.37791493  0.61238256  0.32935894  1
  H+  H287  1  0.24396786  0.61492402  0.78757378  1
  H+  H288  1  0.05609355  0.87855965  0.72317746  1
  H+  H289  1  0.77086837  0.62060054  0.01027720  1
  H+  H290  1  0.07594297  0.16348872  0.77144243  1
  H+  H291  1  0.66336767  0.07464147  0.58650515  1
  H+  H292  1  0.90332058  0.33434617  0.58704922  1
  H+  H293  1  0.14725559  0.63234779  0.50910322  1
  H+  H294  1  0.59114799  0.41734292  0.76637794  1
  H+  H295  1  0.42518709  0.08553770  0.59231238  1
  H+  H296  1  0.92673824  0.83100073  0.27142936  1
  H+  H297  1  0.37097804  0.64572979  0.67003697  1
  H+  H298  1  0.16780918  0.59381601  0.57646310  1
  H+  H299  1  0.14061381  0.11834099  0.52294295  1
  H+  H300  1  0.86102880  0.87821036  0.67633220  1
  H+  H301  1  0.41664313  0.59540723  0.22969071  1
  H+  H302  1  0.67025098  0.33819427  0.23420102  1
  H+  H303  1  0.13732074  0.77742179  0.32904752  1
  H+  H304  1  0.12024217  0.98742079  0.34350339  1
  H+  H305  1  0.12842002  0.50503200  0.32101095  1
  H+  H306  1  0.39668301  0.60555479  1.00499900  1
  H+  H307  1  0.62060868  0.22938214  0.49360378  1
  H+  H308  1  0.57941089  0.16383906  0.06931498  1
  H+  H309  1  0.33352902  0.42154234  0.38086846  1
  H+  H310  1  0.41574924  0.06357601  0.93839453  1
  H+  H311  1  0.90097881  0.81422371  0.93410392  1
  H+  H312  1  0.41503016  0.59356912  0.58082416  1
  H+  H313  1  0.17676730  0.11226116  0.94263649  1
  H+  H314  1  0.63561635  0.35688008  0.83933699  1
  H+  H315  1  0.41968412  0.57339380  0.94460379  1
  H+  H316  1  0.38077273  0.34043561  0.22987068  1
  H+  H317  1  0.13450748  0.26720781  0.28736648  1
  H+  H318  1  0.39428449  0.32516732  0.91399229  1
  H+  H319  1  0.37813231  0.98059272  0.66041780  1
  H+  H320  1  0.83383051  0.42030831  0.05990169  1
  H+  H321  1  0.09437143  0.66932874  0.43465300  1
  H+  H322  1  0.40051991  0.95144119  0.75360542  1
  H+  H323  1  0.15292479  0.33301956  0.93166027  1
  H+  H324  1  0.67600281  0.37728468  0.65614191  1
  H+  H325  1  0.08260443  0.91319577  0.10215841  1
  H+  H326  1  0.16020566  0.07653870  0.57965734  1
  H+  H327  1  0.89516410  0.52059192  -0.00773613  1
  H+  H328  1  0.59306038  0.66315878  0.73685574  1
  H+  H329  1  0.86603693  0.63894511  0.16523451  1
  H+  H330  1  0.65891868  0.57999486  0.27376469  1
  H+  H331  1  0.66571037  0.32896502  0.93351985  1
  H+  H332  1  0.58002943  0.40409305  0.06877374  1
  H+  H333  1  0.09048201  0.92536577  0.40194708  1
  H+  H334  1  0.57429080  0.90761083  0.06701731  1
  H+  H335  1  0.24530920  0.14619397  0.84592572  1
  H+  H336  1  0.69033464  0.34044486  0.56428796  1
  H+  H337  1  0.91926623  0.59147413  0.26958508  1
  H+  H338  1  0.60393021  0.22110091  0.82117776  1
  H+  H339  1  0.18228289  0.60284332  0.86253870  1
  H+  H340  1  0.70529790  0.95360972  0.54518688  1
  H+  H341  1  0.12477689  0.33456104  0.59158270  1
  H+  H342  1  0.46573309  0.85745046  0.99934451  1
  H+  H343  1  0.42515388  0.84231010  0.90135508  1
  H+  H344  1  0.27329221  0.14443118  0.34471631  1
  H+  H345  1  0.91220876  0.32661294  0.94019932  1
  H+  H346  1  0.53589226  0.88728329  0.66741015  1
  H+  H347  1  0.83346183  0.66261243  0.10510787  1
  H+  H348  1  0.00148827  0.12376326  0.67672260  1
  H+  H349  1  0.44047491  0.34769266  0.60504546  1
  H+  H350  1  0.58769457  0.17376002  0.39838034  1
  H+  H351  1  0.58945081  0.18317601  0.72472886  1
  H+  H352  1  0.33497963  0.17442132  0.07249562  1
  H+  H353  1  0.16716806  0.83320794  0.23167164  1
  H+  H354  1  0.12769913  0.56801998  0.95599993  1
  H+  H355  1  0.07319060  0.67592466  0.07330552  1
  H+  H356  1  0.59267978  0.91669181  0.76641174  1
  H+  H357  1  0.34017823  0.91459386  0.43230835  1
  H+  H358  1  0.56397925  0.86072251  0.51000549  1
  H+  H359  1  0.83790801  0.92001584  0.02495231  1
  H+  H360  1  0.31712583  0.64783608  0.41792602  1
  H+  H361  1  0.00753971  0.63973432  0.00766921  1
  H+  H362  1  0.85764226  0.92885224  0.11997648  1
  H+  H363  1  0.91212114  0.08331207  0.24282298  1
  H+  H364  1  0.85011831  0.67875167  0.40803615  1
  H+  H365  1  0.15246021  0.82555766  0.93874147  1
  H+  H366  1  0.43723892  0.86051359  0.26181136  1
  H+  H367  1  0.61984596  0.89355261  0.16524422  1
  H+  H368  1  0.66519792  0.57307048  0.90507574  1
  H+  H369  1  0.67913390  0.07364767  0.93274024  1
  H+  H370  1  0.35817718  0.23221770  0.16566715  1
  H+  H371  1  0.82668632  0.15837935  0.44733459  1
  H+  H372  1  0.32176330  0.90790791  0.06560615  1
  H+  H373  1  0.83760730  0.42841752  0.39451119  1
  H+  H374  1  0.83319196  0.16351582  0.07098793  1
  H+  H375  1  0.42926638  0.77794501  0.19941534  1
  H+  H376  1  0.92904896  0.44609480  0.46228922  1
  H+  H377  1  0.39116045  0.26561848  0.49038060  1
  H+  H378  1  0.57464616  0.91954253  0.41306099  1
  H+  H379  1  0.17494436  0.82815271  0.60044107  1
  H+  H380  1  0.15427413  0.31649546  0.59165176  1
  H+  H381  1  0.83297391  0.90682125  0.73818323  1
  H+  H382  1  0.58797281  0.41342894  0.39306191  1
  H+  H383  1  0.88182268  0.26761009  1.00074814  1
  O2-  O384  1  0.07673574  0.16084707  0.15350212  1
  O2-  O385  1  0.05790337  0.12953709  0.45496105  1
  O2-  O386  1  0.08316582  0.16967279  0.81668934  1
  O2-  O387  1  0.09665908  0.40719010  0.15384260  1
  O2-  O388  1  0.02020340  0.43089113  0.46259399  1
  O2-  O389  1  0.06940454  0.41453984  0.81963661  1
  O2-  O390  1  0.08368346  0.67091424  0.14318599  1
  O2-  O391  1  0.09809124  0.67224699  0.48017059  1
  O2-  O392  1  0.05750346  0.65164832  0.81060913  1
  O2-  O393  1  0.08438139  0.90064610  0.14548224  1
  O2-  O394  1  0.08773794  0.91820222  0.48261439  1
  O2-  O395  1  0.04241012  0.87500198  0.80416888  1
  O2-  O396  1  0.33719158  0.17310752  0.15127338  1
  O2-  O397  1  0.33124570  0.15860691  0.48155902  1
  O2-  O398  1  0.35636784  0.17425151  0.80758756  1
  O2-  O399  1  0.41229776  0.41279892  0.15782113  1
  O2-  O400  1  0.32875976  0.41363656  0.45677813  1
  O2-  O401  1  0.32281826  0.41973719  0.82192952  1
  O2-  O402  1  0.31891378  0.66005516  0.12786859  1
  O2-  O403  1  0.32883580  0.66005038  0.49459133  1
  O2-  O404  1  0.41525529  0.71370312  0.79880278  1
  O2-  O405  1  0.33414043  0.91808857  0.14756783  1
  O2-  O406  1  0.34325237  0.91406773  0.47782663  1
  O2-  O407  1  0.42974143  0.97375419  0.79289348  1
  O2-  O408  1  0.58613068  0.16197989  0.15298287  1
  O2-  O409  1  0.58916208  0.17014989  0.47662676  1
  O2-  O410  1  0.57327666  0.16640988  0.79854522  1
  O2-  O411  1  0.55732876  0.41313363  0.15467413  1
  O2-  O412  1  0.60294060  0.42017342  0.47485571  1
  O2-  O413  1  0.58286740  0.41239102  0.81217358  1
  O2-  O414  1  0.58249966  0.65906528  0.13813013  1
  O2-  O415  1  0.54997559  0.63374206  0.48368703  1
  O2-  O416  1  0.58129488  0.65706701  0.81570697  1
  O2-  O417  1  0.58399790  0.91786373  0.14562827  1
  O2-  O418  1  0.53308662  0.88804946  0.49205973  1
  O2-  O419  1  0.59723026  0.91711703  0.81150513  1
  O2-  O420  1  0.83310442  0.16080926  0.15248266  1
  O2-  O421  1  0.82082755  0.15496688  0.49244557  1
  O2-  O422  1  0.82864278  0.15758237  0.81989051  1
  O2-  O423  1  0.83107291  0.42336017  0.14143514  1
  O2-  O424  1  0.87244646  0.44224321  0.47005061  1
  O2-  O425  1  0.82669610  0.39990691  0.80572359  1
  O2-  O426  1  0.83420647  0.66751317  0.15030729  1
  O2-  O427  1  0.84085599  0.67442466  0.47561160  1
  O2-  O428  1  0.82102888  0.65090300  0.80947636  1
  O2-  O429  1  0.84465138  0.91835356  0.16378068  1
  O2-  O430  1  0.85213079  0.93381173  0.50280721  1
  O2-  O431  1  0.82656760  0.90516137  0.81814197  1
  O2-  O432  1  0.17580878  0.09390359  0.20428017  1
  O2-  O433  1  0.16894892  0.08604684  0.53485476  1
  O2-  O434  1  0.21301307  0.16418686  0.87256806  1
  O2-  O435  1  0.16906792  0.31664979  0.20675101  1
  O2-  O436  1  0.15781120  0.31699242  0.47535543  1
  O2-  O437  1  0.15337835  0.33606515  0.86012226  1
  O2-  O438  1  0.15983632  0.57865377  0.18318537  1
  O2-  O439  1  0.17643193  0.60061184  0.52855605  1
  O2-  O440  1  0.12214294  0.57124892  0.87503442  1
  O2-  O441  1  0.16910283  0.82973747  0.18657196  1
  O2-  O442  1  0.17497735  0.83492171  0.51924656  1
  O2-  O443  1  0.12340661  0.80349627  0.86025536  1
  O2-  O444  1  0.42046062  0.08860643  0.19204971  1
  O2-  O445  1  0.42226032  0.08213654  0.51565953  1
  O2-  O446  1  0.37743246  0.05512039  0.85971497  1
  O2-  O447  1  0.35304750  0.33135484  0.18860499  1
  O2-  O448  1  0.42746461  0.32968685  0.48509019  1
  O2-  O449  1  0.37051310  0.31324312  0.87060453  1
  O2-  O450  1  0.42261727  0.59518539  0.18469392  1
  O2-  O451  1  0.40146492  0.58529571  0.53678732  1
  O2-  O452  1  0.42304300  0.58533880  0.86701778  1
  O2-  O453  1  0.43164995  0.83084337  0.18594820  1
  O2-  O454  1  0.44336092  0.83666245  0.51290371  1
  O2-  O455  1  0.43626668  0.84964803  0.85695113  1
  O2-  O456  1  0.66627208  0.07845488  0.19391510  1
  O2-  O457  1  0.66298153  0.07961368  0.52515444  1
  O2-  O458  1  0.66407714  0.08464837  0.85488309  1
  O2-  O459  1  0.67451216  0.33670207  0.18781115  1
  O2-  O460  1  0.68498464  0.33776679  0.51807086  1
  O2-  O461  1  0.66377606  0.32558902  0.85540280  1
  O2-  O462  1  0.66876106  0.58470506  0.19395441  1
  O2-  O463  1  0.67744712  0.58679787  0.51759486  1
  O2-  O464  1  0.66229489  0.57441340  0.85957436  1
  O2-  O465  1  0.67109988  0.85972379  0.19770650  1
  O2-  O466  1  0.69423182  0.89568641  0.53696426  1
  O2-  O467  1  0.66041391  0.82150685  0.85375627  1
  O2-  O468  1  0.91277458  0.08067196  0.19672924  1
  O2-  O469  1  0.90876924  0.01963762  0.52728991  1
  O2-  O470  1  0.91567795  0.06972216  0.85865623  1
  O2-  O471  1  0.94339233  0.32253555  0.20829834  1
  O2-  O472  1  0.90087798  0.32318484  0.54128535  1
  O2-  O473  1  0.90764962  0.32519097  0.86443889  1
  O2-  O474  1  0.92121917  0.58791176  0.19125973  1
  O2-  O475  1  0.92244444  0.59521084  0.52336879  1
  O2-  O476  1  0.89788312  0.56623145  0.84938634  1
  O2-  O477  1  0.92301411  0.83172669  0.19708242  1
  O2-  O478  1  0.92415817  0.84418811  0.52121775  1
  O2-  O479  1  0.88908667  0.81069678  0.86158675  1
  O2-  O480  1  0.17255987  0.09292590  0.32184436  1
  O2-  O481  1  0.13435691  0.05028704  0.65570757  1
  O2-  O482  1  0.16255879  0.09909502  0.98652402  1
  O2-  O483  1  0.11823499  0.26134104  0.33075333  1
  O2-  O484  1  0.14376531  0.32674952  0.71060339  1
  O2-  O485  1  0.15508981  0.33288099  0.97836572  1
  O2-  O486  1  0.15488498  0.56687824  0.30907936  1
  O2-  O487  1  0.16185141  0.58567164  0.64288300  1
  O2-  O488  1  0.13660419  0.56255996  0.99992292  1
  O2-  O489  1  0.16849511  0.83732113  0.31354300  1
  O2-  O490  1  0.17453538  0.82735998  0.64572734  1
  O2-  O491  1  0.15716259  0.83212932  0.98372916  1
  O2-  O492  1  0.41656848  0.08996955  0.31653779  1
  O2-  O493  1  0.42858424  0.08359087  0.63774391  1
  O2-  O494  1  0.41686656  0.05464911  0.98246139  1
  O2-  O495  1  0.41886940  0.33294083  0.30069214  1
  O2-  O496  1  0.43749551  0.35070656  0.64924027  1
  O2-  O497  1  0.41637349  0.33130859  0.98439249  1
  O2-  O498  1  0.41157781  0.59019624  0.30926257  1
  O2-  O499  1  0.42872045  0.59544895  0.65980705  1
  O2-  O500  1  0.41965342  0.56952845  0.99019122  1
  O2-  O501  1  0.43317809  0.85512806  0.30724003  1
  O2-  O502  1  0.43430016  0.84069953  0.63216041  1
  O2-  O503  1  0.40579567  0.82660534  0.98131528  1
  O2-  O504  1  0.66628021  0.08764869  0.31830803  1
  O2-  O505  1  0.66769005  0.07272096  0.63615756  1
  O2-  O506  1  0.69306847  0.06705946  0.97567234  1
  O2-  O507  1  0.66751512  0.33658602  0.30718383  1
  O2-  O508  1  0.69742064  0.34145214  0.63778552  1
  O2-  O509  1  0.66704335  0.33234924  0.97903949  1
  O2-  O510  1  0.65145091  0.57072752  0.31833117  1
  O2-  O511  1  0.67796508  0.58147034  0.64378924  1
  O2-  O512  1  0.67187108  0.57448582  0.98368847  1
  O2-  O513  1  0.65920226  0.82665761  0.32114792  1
  O2-  O514  1  0.67015752  0.82683562  0.65072342  1
  O2-  O515  1  0.63161734  0.80571875  0.97657916  1
  O2-  O516  1  0.90852135  0.08083898  0.31604073  1
  O2-  O517  1  0.90278120  0.07239811  0.64630327  1
  O2-  O518  1  0.93359982  0.10904492  0.98055542  1
  O2-  O519  1  0.91142135  0.32356221  0.33714926  1
  O2-  O520  1  0.90620025  0.34634401  0.66026008  1
  O2-  O521  1  0.91473475  0.32910451  0.98608169  1
  O2-  O522  1  0.91832059  0.59123310  0.31511361  1
  O2-  O523  1  0.92981487  0.59372709  0.63871133  1
  O2-  O524  1  0.92272860  0.58252004  0.97859453  1
  O2-  O525  1  0.92724036  0.83128760  0.31754810  1
  O2-  O526  1  0.90734928  0.82210286  0.64190219  1
  O2-  O527  1  0.90661866  0.81491019  0.98034573  1
  O2-  O528  1  0.08984665  0.18729847  0.02532520  1
  O2-  O529  1  0.07579702  0.16712858  0.34162870  1
  O2-  O530  1  0.06115920  0.15052239  0.69429114  1
  O2-  O531  1  0.07552753  0.39994300  0.02847095  1
  O2-  O532  1  0.10104524  0.40632858  0.35545462  1
  O2-  O533  1  0.07119441  0.42771696  0.69690274  1
  O2-  O534  1  0.06820468  0.68049149  0.02691095  1
  O2-  O535  1  0.08604189  0.66498000  0.35576338  1
  O2-  O536  1  0.07607748  0.65758527  0.68861707  1
  O2-  O537  1  0.08004266  0.92606411  0.01625548  1
  O2-  O538  1  0.09080229  0.92539830  0.35657457  1
  O2-  O539  1  0.06408199  0.88707675  0.67858555  1
  O2-  O540  1  0.33245102  0.17837428  0.02754588  1
  O2-  O541  1  0.33452062  0.17457527  0.36045088  1
  O2-  O542  1  0.37270976  0.19054052  0.69058949  1
  O2-  O543  1  0.35269020  0.41056806  0.05257484  1
  O2-  O544  1  0.33672258  0.42798772  0.33545768  1
  O2-  O545  1  0.33084425  0.41550398  0.67365805  1
  O2-  O546  1  0.32565735  0.66315301  0.00016343  1
  O2-  O547  1  0.31105526  0.65351291  0.37285718  1
  O2-  O548  1  0.34337376  0.68073731  0.67967844  1
  O2-  O549  1  0.31800966  0.90332792  0.02049538  1
  O2-  O550  1  0.33252423  0.92005620  0.35536284  1
  O2-  O551  1  0.35400288  0.92049915  0.67620217  1
  O2-  O552  1  0.57368078  0.16132449  0.02466104  1
  O2-  O553  1  0.58466836  0.17340959  0.35279402  1
  O2-  O554  1  0.59757807  0.19218394  0.67940322  1
  O2-  O555  1  0.58415576  0.40882925  0.02420167  1
  O2-  O556  1  0.58160364  0.41162015  0.34807415  1
  O2-  O557  1  0.60954760  0.42512081  0.69254225  1
  O2-  O558  1  0.58836786  0.65239321  0.02296994  1
  O2-  O559  1  0.57139324  0.65723699  0.35937536  1
  O2-  O560  1  0.59333548  0.66199104  0.69130555  1
  O2-  O561  1  0.56566012  0.90195001  0.02205744  1
  O2-  O562  1  0.58844620  0.92717020  0.36917536  1
  O2-  O563  1  0.59494171  0.91753611  0.68495656  1
  O2-  O564  1  0.83724286  0.16800960  0.02587473  1
  O2-  O565  1  0.82731497  0.15706794  0.36774911  1
  O2-  O566  1  0.81821888  0.16737221  0.67030197  1
  O2-  O567  1  0.83830833  0.41922156  0.01504447  1
  O2-  O568  1  0.83376333  0.42570574  0.34915233  1
  O2-  O569  1  0.86273147  0.39516749  0.67987982  1
  O2-  O570  1  0.83242251  0.64916149  0.02521226  1
  O2-  O571  1  0.85625659  0.68327740  0.36060245  1
  O2-  O572  1  0.84175207  0.65877192  0.67874815  1
  O2-  O573  1  0.89931380  0.96615171  0.04276461  1
  O2-  O574  1  0.82433332  0.90830083  0.34939874  1
  O2-  O575  1  0.83259769  0.90949728  0.69286062  1
