# generated using pymatgen
data_H2O
_symmetry_space_group_name_H-M   'P 1'
_cell_length_a   17.99437873
_cell_length_b   17.99849777
_cell_length_c   22.01182146
_cell_angle_alpha   89.98465024
_cell_angle_beta   90.00786354
_cell_angle_gamma   119.98246485
_symmetry_Int_Tables_number   1
_chemical_formula_structural   H2O
_chemical_formula_sum   'H384 O192'
_cell_volume   6174.99235149
_cell_formula_units_Z   192
loop_
 _symmetry_equiv_pos_site_id
 _symmetry_equiv_pos_as_xyz
  1  'x, y, z'
loop_
 _atom_type_symbol
 _atom_type_oxidation_number
  H+  1.0
  O2-  -2.0
loop_
 _atom_site_type_symbol
 _atom_site_label
 _atom_site_symmetry_multiplicity
 _atom_site_fract_x
 _atom_site_fract_y
 _atom_site_fract_z
 _atom_site_occupancy
  H+  H0  1  0.40221169  0.27701014  -0.01800528  1
  H+  H1  1  0.52701563  0.88773375  0.34692037  1
  H+  H2  1  0.61521521  0.13233124  0.35128820  1
  H+  H3  1  0.08520246  0.62375156  0.48120186  1
  H+  H4  1  0.35238278  0.48685516  0.67771236  1
  H+  H5  1  0.17222008  0.11995548  0.99284867  1
  H+  H6  1  0.74797958  0.61607222  0.48813148  1
  H+  H7  1  0.67651938  0.33580864  0.93317187  1
  H+  H8  1  0.61938662  0.88437685  0.67216372  1
  H+  H9  1  0.37389308  0.85800300  0.82570283  1
  H+  H10  1  0.60062623  0.71783134  0.82481320  1
  H+  H11  1  0.89181961  0.51858488  0.65200487  1
  H+  H12  1  0.72159484  0.84778241  0.65813962  1
  H+  H13  1  1.02543284  0.12006035  0.35379522  1
  H+  H14  1  0.85167753  0.86259164  0.68137438  1
  H+  H15  1  0.85555628  0.63856788  0.15609126  1
  H+  H16  1  0.10975003  0.69601485  0.82137319  1
  H+  H17  1  0.86126699  0.15022024  0.66744385  1
  H+  H18  1  1.02732385  0.62621701  0.66490632  1
  H+  H19  1  0.53317418  0.93236750  0.02385310  1
  H+  H20  1  -0.01369130  0.86790271  0.66738357  1
  H+  H21  1  0.83340746  0.97535066  -0.00450860  1
  H+  H22  1  0.36091742  -0.02309916  0.82550322  1
  H+  H23  1  0.11390082  0.58938603  0.01433568  1
  H+  H24  1  0.88178809  0.76953873  0.49163192  1
  H+  H25  1  0.63080939  0.51704026  0.99247162  1
  H+  H26  1  0.40559716  0.75082971  0.64643063  1
  H+  H27  1  0.61743460  0.72549230  0.18274549  1
  H+  H28  1  0.58930936  0.35317511  0.48615327  1
  H+  H29  1  0.13514887  0.91323332  0.16110077  1
  H+  H30  1  0.13423470  0.44541103  0.72492278  1
  H+  H31  1  0.63391458  0.99097930  0.00755085  1
  H+  H32  1  0.61385221  0.85915336  0.99381382  1
  H+  H33  1  0.37370497  0.14004714  0.34102255  1
  H+  H34  1  0.38652258  0.15930003  0.49282915  1
  H+  H35  1  0.59919014  0.71813651  0.00550006  1
  H+  H36  1  0.84553073  0.71351862  0.33868042  1
  H+  H37  1  0.29625954  0.90337861  0.33571254  1
  H+  H38  1  0.85433965  0.48826556  0.34202484  1
  H+  H39  1  0.47877231  0.13871413  0.66135413  1
  H+  H40  1  0.91384298  0.32598372  0.31461855  1
  H+  H41  1  0.22941028  0.61846187  0.16161796  1
  H+  H42  1  0.40573822  0.85699566  1.00051425  1
  H+  H43  1  0.62656556  0.01525624  0.83352384  1
  H+  H44  1  0.87458553  0.84441557  0.32914733  1
  H+  H45  1  0.36797626  0.10519328  0.18250755  1
  H+  H46  1  0.00028851  0.37156988  0.85047527  1
  H+  H47  1  0.36407302  0.63532133  0.81457209  1
  H+  H48  1  0.37741561  0.91093787  0.49097892  1
  H+  H49  1  0.46396871  0.85773845  0.82341781  1
  H+  H50  1  0.72594982  0.36369093  0.83616853  1
  H+  H51  1  0.77050696  0.14193905  0.17797156  1
  H+  H52  1  0.13593098  0.28120644  0.65796665  1
  H+  H53  1  0.03847385  0.89281370  0.17213476  1
  H+  H54  1  0.51580724  0.39888508  0.67773839  1
  H+  H55  1  0.84835631  0.48705307  0.15463485  1
  H+  H56  1  0.38582647  0.37057894  0.83664803  1
  H+  H57  1  0.10195961  0.88069081  0.99312360  1
  H+  H58  1  0.60462729  0.13083084  0.16701335  1
  H+  H59  1  0.36931769  0.39135043  0.34780478  1
  H+  H60  1  0.39350591  0.58563379  0.56653648  1
  H+  H61  1  0.33753522  0.18219083  0.73494788  1
  H+  H62  1  0.59568230  0.87801261  0.82279657  1
  H+  H63  1  0.61883686  0.22368071  0.35715069  1
  H+  H64  1  0.25886105  0.11828489  0.98474804  1
  H+  H65  1  0.90017037  0.86489939  0.17409729  1
  H+  H66  1  0.60867361  0.89674144  0.49878856  1
  H+  H67  1  0.06270542  0.78097082  0.85714910  1
  H+  H68  1  0.51190537  0.63697927  0.50549788  1
  H+  H69  1  0.26321622  0.38585245  0.82897037  1
  H+  H70  1  -0.02626786  0.36167649  0.66179816  1
  H+  H71  1  0.73904271  0.36344067  0.99069119  1
  H+  H72  1  0.12136851  -0.02396342  0.98910741  1
  H+  H73  1  0.61772224  0.22509708  0.00683873  1
  H+  H74  1  0.96740607  0.10503888  0.82723297  1
  H+  H75  1  0.27220394  0.89092397  0.83260096  1
  H+  H76  1  0.51232182  0.12322550  0.16252392  1
  H+  H77  1  0.12718312  0.76024257  0.99670187  1
  H+  H78  1  0.87895969  0.60198930  0.84243613  1
  H+  H79  1  0.10875355  0.86940697  0.33094365  1
  H+  H80  1  0.51091487  0.61063285  0.35338466  1
  H+  H81  1  0.35744457  0.72024809  0.80603548  1
  H+  H82  1  0.39413433  0.11810120  0.83561243  1
  H+  H83  1  0.75827819  0.61706019  0.83234098  1
  H+  H84  1  0.49764384  0.58675145  0.15136880  1
  H+  H85  1  0.59739439  0.44596370  0.49410785  1
  H+  H86  1  0.70023312  0.85683072  0.98971784  1
  H+  H87  1  0.18535422  0.81339714  0.14507104  1
  H+  H88  1  0.37044100  0.16342779  0.67106409  1
  H+  H89  1  0.84302285  0.96523822  0.82103046  1
  H+  H90  1  0.62832819  0.60637388  0.83918145  1
  H+  H91  1  0.85217937  0.19234881  0.21714015  1
  H+  H92  1  0.01531316  0.63775396  0.01195112  1
  H+  H93  1  0.48881806  0.11469827  -0.01324825  1
  H+  H94  1  0.11950258  0.23969595  0.49391324  1
  H+  H95  1  0.15927870  0.32962134  0.28544080  1
  H+  H96  1  0.72097162  0.11278384  0.66388099  1
  H+  H97  1  0.48618387  0.14680172  0.50995392  1
  H+  H98  1  0.14731992  0.61082122  0.65352439  1
  H+  H99  1  0.76963546  0.12956899  0.50993935  1
  H+  H100  1  0.98020369  0.34119775  1.01275889  1
  H+  H101  1  0.23349486  0.59450137  0.84172464  1
  H+  H102  1  0.19109015  0.57222257  1.00518370  1
  H+  H103  1  0.17555293  0.83984014  0.71340682  1
  H+  H104  1  0.13151912  1.03361179  0.18498249  1
  H+  H105  1  0.70369627  0.85365014  0.83834721  1
  H+  H106  1  0.59871600  0.62462815  0.67030395  1
  H+  H107  1  0.63853605  0.25984270  0.65469911  1
  H+  H108  1  0.22440482  0.93870529  0.54822223  1
  H+  H109  1  0.12762814  0.48995921  0.66514548  1
  H+  H110  1  0.34294757  0.60884891  0.99859337  1
  H+  H111  1  0.00182642  0.23015622  0.02925852  1
  H+  H112  1  0.37441659  0.59987399  0.16831719  1
  H+  H113  1  0.23508700  0.62924881  0.31961962  1
  H+  H114  1  0.61395728  0.13597173  0.82839119  1
  H+  H115  1  0.87077368  0.41139720  0.33783085  1
  H+  H116  1  0.10853505  0.63241248  0.32574663  1
  H+  H117  1  0.38591094  -0.00504493  0.32940482  1
  H+  H118  1  0.62909788  1.03495315  0.51012372  1
  H+  H119  1  0.14708601  0.76728711  0.33620774  1
  H+  H120  1  0.34767531  0.64157004  0.49092840  1
  H+  H121  1  0.18406254  0.78492207  0.52866736  1
  H+  H122  1  0.63890557  1.03237897  0.17986027  1
  H+  H123  1  0.40279317  0.57585304  0.26987547  1
  H+  H124  1  0.12141029  0.15795068  0.67359877  1
  H+  H125  1  0.28830763  0.15395606  0.82735420  1
  H+  H126  1  0.11524860  0.11973489  0.35452246  1
  H+  H127  1  0.44793524  0.63275115  0.67037121  1
  H+  H128  1  0.25720563  0.16368609  0.50846632  1
  H+  H129  1  0.76534074  0.13101479  0.81464035  1
  H+  H130  1  0.88438678  0.29821366  0.17035626  1
  H+  H131  1  0.48748470  0.36778396  0.98916286  1
  H+  H132  1  0.15920293  0.07607477  0.28054059  1
  H+  H133  1  0.52455577  0.38436797  0.33972620  1
  H+  H134  1  0.21249036  0.61831546  0.49748597  1
  H+  H135  1  0.75414438  0.04853633  0.95372704  1
  H+  H136  1  0.38820318  0.51672915  0.98769530  1
  H+  H137  1  0.37849659  0.52069714  0.83656992  1
  H+  H138  1  0.41383370  0.85228022  0.10773480  1
  H+  H139  1  0.73001618  0.59927552  0.32203065  1
  H+  H140  1  0.60515497  0.12869294  0.67719107  1
  H+  H141  1  0.72490629  0.35705331  0.34193482  1
  H+  H142  1  0.11440222  0.14292059  0.82743765  1
  H+  H143  1  0.85305516  0.13056730  0.81040791  1
  H+  H144  1  0.72241113  0.09807093  0.33835585  1
  H+  H145  1  0.35969038  0.72013086  0.14396594  1
  H+  H146  1  0.38623325  0.87363306  0.64625602  1
  H+  H147  1  0.89479055  0.52604444  -0.00647595  1
  H+  H148  1  0.64808212  0.13356237  0.51936876  1
  H+  H149  1  0.35962888  0.63840359  0.33753475  1
  H+  H150  1  0.86161439  0.21634436  0.50426742  1
  H+  H151  1  0.05029686  0.95514126  0.48228862  1
  H+  H152  1  0.31963517  0.41770368  0.76859411  1
  H+  H153  1  0.60653935  0.37150858  0.15508754  1
  H+  H154  1  0.21229724  0.38231127  0.18709819  1
  H+  H155  1  0.38056752  0.78084523  0.49590928  1
  H+  H156  1  0.88818635  0.60278373  0.65757917  1
  H+  H157  1  0.12622117  0.52587766  0.50164597  1
  H+  H158  1  0.12894957  0.50114784  0.34522716  1
  H+  H159  1  0.10580932  0.22682736  0.83183091  1
  H+  H160  1  0.40395018  0.04834195  0.50166982  1
  H+  H161  1  0.48026119  0.11292924  0.83405874  1
  H+  H162  1  0.34436379  0.39510073  0.50421754  1
  H+  H163  1  0.04481587  0.44655025  1.01423954  1
  H+  H164  1  -0.03094913  0.61643261  0.31795088  1
  H+  H165  1  0.61047177  0.46347514  0.15631097  1
  H+  H166  1  0.21868272  0.81621589  0.50777132  1
  H+  H167  1  0.39915043  0.36594677  0.17524625  1
  H+  H168  1  0.10134570  0.95267278  0.33973098  1
  H+  H169  1  0.90744322  0.78011930  0.64847727  1
  H+  H170  1  0.48684895  0.36182856  0.17234877  1
  H+  H171  1  0.63637891  0.36231908  0.83926795  1
  H+  H172  1  0.84396500  0.70686001  0.82579220  1
  H+  H173  1  0.52427111  0.38679866  0.82578311  1
  H+  H174  1  0.67467890  0.92790399  0.18397994  1
  H+  H175  1  0.36315397  0.50698296  0.17584197  1
  H+  H176  1  0.38803036  0.27143153  0.32852622  1
  H+  H177  1  0.65583588  0.57614849  0.90049704  1
  H+  H178  1  0.88156131  0.27354651  0.66067866  1
  H+  H179  1  0.14371811  0.51522574  0.85445021  1
  H+  H180  1  0.27699687  0.32957559  0.14133376  1
  H+  H181  1  0.16473527  0.04573889  0.82986017  1
  H+  H182  1  0.29233783  0.61995969  0.65645386  1
  H+  H183  1  0.63402130  0.34993222  0.33821065  1
  H+  H184  1  -0.01960256  0.81093920  0.49471585  1
  H+  H185  1  0.85457864  0.40246676  0.15547586  1
  H+  H186  1  0.62578879  0.76597954  0.65645783  1
  H+  H187  1  0.61318161  0.47388596  0.82856295  1
  H+  H188  1  0.98853583  0.60817312  0.47881902  1
  H+  H189  1  -0.02585717  0.10279504  0.51201200  1
  H+  H190  1  0.09215540  0.16669334  0.43654884  1
  H+  H191  1  0.82485029  0.22165038  0.29106478  1
  H+  H192  1  0.09991286  0.39611359  0.15874214  1
  H+  H193  1  0.62051758  0.58084191  0.16764717  1
  H+  H194  1  0.06564483  0.19557419  0.01633977  1
  H+  H195  1  0.32919852  0.96712187  0.15124513  1
  H+  H196  1  0.03702498  0.42299475  0.34010006  1
  H+  H197  1  0.90638136  0.14143992  0.97466854  1
  H+  H198  1  0.63375045  0.50117070  0.32406090  1
  H+  H199  1  0.72723957  0.34754438  0.64404127  1
  H+  H200  1  0.89502403  -0.00479976  0.15663009  1
  H+  H201  1  0.07202976  0.92773034  0.79032000  1
  H+  H202  1  -0.02091619  0.13635856  0.66425527  1
  H+  H203  1  0.14782204  0.05550622  0.64891063  1
  H+  H204  1  0.21773173  0.36770614  0.50012134  1
  H+  H205  1  0.37538340  0.52077654  0.33106231  1
  H+  H206  1  0.36861503  0.28765381  0.52509949  1
  H+  H207  1  0.45246188  0.78575088  0.95271431  1
  H+  H208  1  0.64111002  0.77246101  0.19096252  1
  H+  H209  1  0.36729901  0.52540640  0.50807271  1
  H+  H210  1  0.51385706  0.62838479  -0.00146454  1
  H+  H211  1  -0.02928906  0.35704225  0.50445407  1
  H+  H212  1  0.50532684  0.12875214  0.34189918  1
  H+  H213  1  0.61774473  0.59549719  0.50891819  1
  H+  H214  1  0.14203297  0.25920058  0.33622173  1
  H+  H215  1  0.79164176  0.23474810  0.29710855  1
  H+  H216  1  0.13481157  0.36953890  0.65197546  1
  H+  H217  1  0.36804318  0.73221887  0.33638190  1
  H+  H218  1  0.12400895  0.64918911  0.16678026  1
  H+  H219  1  0.26245464  0.39776480  0.66888755  1
  H+  H220  1  0.88462855  0.87807289  -0.02471295  1
  H+  H221  1  0.76349541  0.53652112  0.70365369  1
  H+  H222  1  0.86597834  0.50451589  0.50357511  1
  H+  H223  1  0.22515342  0.09901918  0.33546246  1
  H+  H224  1  0.88336530  0.60996365  -0.00669977  1
  H+  H225  1  0.87834302  0.61612096  0.32346031  1
  H+  H226  1  0.90765706  0.36973518  0.92315185  1
  H+  H227  1  0.17269171  0.83349723  0.38801689  1
  H+  H228  1  0.30812058  0.88012954  0.66793418  1
  H+  H229  1  0.60139830  0.72427570  0.50199445  1
  H+  H230  1  0.56417423  0.63180729  0.41301651  1
  H+  H231  1  0.42183674  0.33499209  0.27170305  1
  H+  H232  1  0.28459395  0.39190095  0.00370662  1
  H+  H233  1  0.37821978  0.24066252  0.82670032  1
  H+  H234  1  0.11350668  0.15200641  0.17122061  1
  H+  H235  1  0.40029454  0.87573535  0.31932933  1
  H+  H236  1  0.84791901  -0.04294017  0.50007251  1
  H+  H237  1  0.98244587  0.12435934  0.18837277  1
  H+  H238  1  0.62769379  0.26644239  0.16558766  1
  H+  H239  1  0.39091652  0.13316254  0.98612312  1
  H+  H240  1  0.37811862  0.37679535  0.67369550  1
  H+  H241  1  0.72116584  0.60579419  0.16844224  1
  H+  H242  1  0.88533150  0.10171853  0.51539493  1
  H+  H243  1  0.89791823  0.40815955  0.02350884  1
  H+  H244  1  0.93370329  0.84144989  0.81817917  1
  H+  H245  1  0.12144111  0.35819359  0.84236359  1
  H+  H246  1  0.86690556  0.95559993  0.34913804  1
  H+  H247  1  0.09335748  -0.00475728  0.48565514  1
  H+  H248  1  0.76818355  0.62393732  0.00105848  1
  H+  H249  1  0.21776996  0.12387265  0.19303449  1
  H+  H250  1  0.86503163  0.47470903  0.82658958  1
  H+  H251  1  0.17828942  0.42759025  0.98409490  1
  H+  H252  1  0.37086050  0.38343963  0.00320231  1
  H+  H253  1  0.36797990  0.23621927  0.17824601  1
  H+  H254  1  0.13907679  0.90493545  0.81544351  1
  H+  H255  1  0.88645160  0.10693628  0.18763491  1
  H+  H256  1  0.64919029  0.87446607  0.33826332  1
  H+  H257  1  0.94911697  0.07983526  0.96879386  1
  H+  H258  1  0.70624182  0.60715283  0.66388910  1
  H+  H259  1  0.97705661  0.88251095  0.97203510  1
  H+  H260  1  0.13474111  0.93973444  0.62921085  1
  H+  H261  1  0.91629010  0.57846524  0.90114998  1
  H+  H262  1  0.88664519  0.08792771  0.34685013  1
  H+  H263  1  0.14641879  0.15790477  0.50196466  1
  H+  H264  1  0.66266842  0.27300384  0.56448158  1
  H+  H265  1  0.01458563  0.61801764  0.82260113  1
  H+  H266  1  0.09383929  0.70810016  0.19947453  1
  H+  H267  1  0.86458624  0.38731462  0.66765869  1
  H+  H268  1  0.83261856  0.87096019  0.82566214  1
  H+  H269  1  0.71407585  0.35893085  0.16262289  1
  H+  H270  1  0.62132894  0.38557008  0.00454907  1
  H+  H271  1  0.62863839  0.60568455  -0.00806687  1
  H+  H272  1  0.16379012  0.34356820  0.90068210  1
  H+  H273  1  0.61601653  0.22686918  0.82975536  1
  H+  H274  1  0.13650143  0.33065975  0.00629559  1
  H+  H275  1  0.96918622  0.61598663  0.17112236  1
  H+  H276  1  0.70968354  0.86085601  0.50420961  1
  H+  H277  1  0.97455167  0.38626296  0.16661792  1
  H+  H278  1  0.42211482  0.34595655  0.89575730  1
  H+  H279  1  0.75226157  0.91137298  0.18115145  1
  H+  H280  1  0.85866452  0.19323788  0.06952068  1
  H+  H281  1  0.66689412  0.56179559  0.25611446  1
  H+  H282  1  0.75746046  0.12373460  0.98985735  1
  H+  H283  1  0.52917020  0.89664846  0.15916961  1
  H+  H284  1  0.61621251  0.52047681  0.66509690  1
  H+  H285  1  0.91453914  0.32838517  0.56537391  1
  H+  H286  1  0.27578204  0.38057961  0.34715196  1
  H+  H287  1  0.85815858  0.18754596  0.36520792  1
  H+  H288  1  0.93207601  0.38004781  0.25571430  1
  H+  H289  1  0.10484181  0.39051299  0.49055497  1
  H+  H290  1  0.39679760  0.80195641  0.90433217  1
  H+  H291  1  0.63124618  0.01532683  0.33493663  1
  H+  H292  1  0.23883779  0.14247480  0.66211042  1
  H+  H293  1  0.82848601  0.41231010  0.43642302  1
  H+  H294  1  0.07881220  0.42832647  0.43333765  1
  H+  H295  1  0.37441335  0.17661210  0.04498141  1
  H+  H296  1  0.90088898  0.83133265  0.88819541  1
  H+  H297  1  0.58269641  0.16697836  0.73547497  1
  H+  H298  1  0.05519068  0.41587228  0.10024642  1
  H+  H299  1  0.42886529  0.08245199  0.92543237  1
  H+  H300  1  0.83108548  0.41686905  0.72461336  1
  H+  H301  1  0.21938732  0.89909582  0.61274206  1
  H+  H302  1  0.48994409  0.84543939  0.65079085  1
  H+  H303  1  0.31344348  0.16887971  0.12634910  1
  H+  H304  1  0.96162667  0.83925823  0.32367377  1
  H+  H305  1  0.32387170  0.67074790  0.42870067  1
  H+  H306  1  0.06053515  0.74637257  0.45325546  1
  H+  H307  1  0.46475626  0.13420648  0.27757698  1
  H+  H308  1  0.82632853  0.17444720  0.72701579  1
  H+  H309  1  0.19664796  0.13150648  0.57058656  1
  H+  H310  1  0.03436953  0.39422488  0.78275348  1
  H+  H311  1  0.90820639  0.58850165  0.22985282  1
  H+  H312  1  0.67227458  0.07547776  0.89115640  1
  H+  H313  1  0.58119793  0.42438456  0.73312595  1
  H+  H314  1  0.39261912  0.34577588  0.58482885  1
  H+  H315  1  0.42402575  0.25360790  0.46643246  1
  H+  H316  1  0.42079536  0.11404235  0.60166392  1
  H+  H317  1  0.14154233  0.81829232  0.90084731  1
  H+  H318  1  0.40294220  0.93785849  0.02994604  1
  H+  H319  1  0.15799413  0.33272857  0.55972273  1
  H+  H320  1  0.17633818  0.59406493  0.25904041  1
  H+  H321  1  0.91229869  0.82246762  0.23439258  1
  H+  H322  1  0.82035418  0.92013217  0.05456857  1
  H+  H323  1  0.32518227  0.65145789  0.08964520  1
  H+  H324  1  0.40926184  0.57547451  0.92699560  1
  H+  H325  1  0.65356578  0.83341587  0.56471859  1
  H+  H326  1  0.38018636  0.28792334  0.67216314  1
  H+  H327  1  0.55708440  0.61706767  0.09188075  1
  H+  H328  1  0.59400118  0.93446546  0.10324719  1
  H+  H329  1  0.81936656  0.89708450  0.44159406  1
  H+  H330  1  0.91801754  0.09133092  0.60790808  1
  H+  H331  1  0.80798158  0.62078029  0.74245383  1
  H+  H332  1  0.93673994  0.96385362  0.10795381  1
  H+  H333  1  0.91973726  0.07165271  0.28306301  1
  H+  H334  1  0.57084674  0.65589432  0.76628576  1
  H+  H335  1  0.64054185  0.82206196  0.89643469  1
  H+  H336  1  0.58382582  0.40896111  0.06355762  1
  H+  H337  1  0.51936746  0.89616824  0.49456693  1
  H+  H338  1  0.06371654  0.64687040  0.38456798  1
  H+  H339  1  0.12263459  0.94673547  0.69991786  1
  H+  H340  1  0.07924838  0.19219187  0.11783046  1
  H+  H341  1  0.07261927  0.67384696  0.07287214  1
  H+  H342  1  0.33161822  0.40339977  0.09523108  1
  H+  H343  1  0.18401269  0.09541692  0.89353602  1
  H+  H344  1  0.32802123  0.42446806  0.43797634  1
  H+  H345  1  0.65862600  0.07965101  0.60717766  1
  H+  H346  1  0.90423105  0.57455965  0.55786189  1
  H+  H347  1  0.81097793  0.89552388  0.73040910  1
  H+  H348  1  0.21592087  0.84921700  0.98905836  1
  H+  H349  1  0.13518600  0.53456232  0.16377592  1
  H+  H350  1  0.85594043  0.37785784  0.49406487  1
  H+  H351  1  0.81075110  0.64898872  0.39822049  1
  H+  H352  1  0.16857505  0.58290953  0.59001915  1
  H+  H353  1  0.36311737  0.85423623  0.16185355  1
  H+  H354  1  0.85666501  0.72679086  0.15631766  1
  H+  H355  1  0.83712461  0.61641395  0.48644330  1
  H+  H356  1  0.58003075  0.16298290  0.06383622  1
  H+  H357  1  0.43141643  0.83964561  0.26470886  1
  H+  H358  1  0.69541733  0.88178699  0.27620022  1
  H+  H359  1  0.66539772  0.08561128  0.24231127  1
  H+  H360  1  0.90044723  0.07663662  0.88151494  1
  H+  H361  1  0.36105084  0.94550149  0.42969637  1
  H+  H362  1  0.61376240  0.97175870  0.67240636  1
  H+  H363  1  0.58345692  0.41198738  0.39922315  1
  H+  H364  1  0.14766637  0.75538757  0.67529948  1
  H+  H365  1  0.85813542  0.38289110  0.82372403  1
  H+  H366  1  0.32876106  0.68719185  -0.01018321  1
  H+  H367  1  0.37824466  0.04556940  0.23037368  1
  H+  H368  1  0.12936104  0.28995648  0.18619603  1
  H+  H369  1  0.77169661  0.87549877  0.34501196  1
  H+  H370  1  0.82526087  0.13402485  0.42507403  1
  H+  H371  1  0.82617860  0.65723214  0.06011079  1
  H+  H372  1  0.34139080  0.17082472  0.39777213  1
  H+  H373  1  0.41933385  0.83041710  0.55741522  1
  H+  H374  1  0.34234963  0.65020514  0.71920938  1
  H+  H375  1  0.90978036  0.28473215  0.92440870  1
  H+  H376  1  0.57632932  0.91245720  0.76113456  1
  H+  H377  1  0.08821113  0.18139592  0.73478347  1
  H+  H378  1  0.64969960  0.56755842  0.56586378  1
  H+  H379  1  0.58240654  0.92312674  0.40911345  1
  H+  H380  1  0.05545302  0.82158611  0.41718538  1
  H+  H381  1  0.07783205  0.64204477  0.72812664  1
  H+  H382  1  0.83718279  0.42607250  0.06450767  1
  H+  H383  1  0.47073806  0.60732209  0.83651230  1
  O2-  O384  1  0.08450111  0.18648868  0.16201645  1
  O2-  O385  1  0.09718392  0.17531913  0.48339521  1
  O2-  O386  1  0.07886355  0.16811556  0.81376639  1
  O2-  O387  1  0.07217294  0.42879342  0.14384886  1
  O2-  O388  1  0.07385491  0.42127586  0.47948486  1
  O2-  O389  1  0.05312754  0.39656882  0.82454291  1
  O2-  O390  1  0.09331554  0.68333838  0.15990257  1
  O2-  O391  1  0.04674015  0.63890088  0.45853812  1
  O2-  O392  1  0.07189105  0.63993419  0.80327890  1
  O2-  O393  1  0.09713127  0.93783271  0.16021377  1
  O2-  O394  1  0.07991525  0.80858792  0.45285593  1
  O2-  O395  1  0.13350828  0.94863859  0.79079648  1
  O2-  O396  1  0.32749716  0.17197781  0.16935184  1
  O2-  O397  1  0.36886130  0.20142253  0.47401011  1
  O2-  O398  1  0.34857663  0.17952669  0.81257492  1
  O2-  O399  1  0.31945442  0.39061924  0.14036380  1
  O2-  O400  1  0.31792449  0.42651609  0.48276765  1
  O2-  O401  1  0.32357777  0.41558297  0.81378099  1
  O2-  O402  1  0.32982830  0.65757064  0.13524249  1
  O2-  O403  1  0.31883627  0.67211791  0.47397587  1
  O2-  O404  1  0.33292296  0.65968141  0.79210038  1
  O2-  O405  1  0.30003313  0.90793982  0.13350799  1
  O2-  O406  1  0.35713948  0.94903655  0.47412370  1
  O2-  O407  1  0.32786741  0.91529792  0.81294463  1
  O2-  O408  1  0.57163714  0.15549191  0.14740781  1
  O2-  O409  1  0.58047236  0.24151724  0.49739233  1
  O2-  O410  1  0.58406145  0.16689406  0.81386534  1
  O2-  O411  1  0.57533441  0.40363800  0.14044126  1
  O2-  O412  1  0.56882074  0.39144201  0.47105506  1
  O2-  O413  1  0.58545389  0.41370886  0.81254690  1
  O2-  O414  1  0.54462629  0.58393352  0.13018286  1
  O2-  O415  1  0.57285804  0.66111360  0.49418404  1
  O2-  O416  1  0.57389097  0.65635426  0.81153326  1
  O2-  O417  1  0.59034947  0.93274485  0.14884731  1
  O2-  O418  1  0.58185463  0.93098161  0.48333006  1
  O2-  O419  1  0.56993370  0.91220139  0.80689051  1
  O2-  O420  1  0.83579785  0.17579830  0.17480944  1
  O2-  O421  1  0.83000691  0.15299547  0.49468797  1
  O2-  O422  1  0.82497814  0.16393732  0.79904596  1
  O2-  O423  1  0.82060287  0.42739195  0.13806278  1
  O2-  O424  1  0.82651668  0.40941786  0.48148710  1
  O2-  O425  1  0.83276704  0.41578648  0.80758550  1
  O2-  O426  1  0.82309811  0.66652263  0.14111870  1
  O2-  O427  1  0.80643905  0.64503444  0.46926092  1
  O2-  O428  1  0.81875960  0.64465572  0.81599472  1
  O2-  O429  1  0.88295345  0.94491340  0.12969014  1
  O2-  O430  1  0.80606443  0.89955948  0.48498454  1
  O2-  O431  1  0.80391839  0.90313424  0.81178318  1
  O2-  O432  1  0.15535215  0.09422912  0.20165450  1
  O2-  O433  1  0.19805980  0.13584759  0.52409078  1
  O2-  O434  1  0.18175749  0.10220251  0.84873337  1
  O2-  O435  1  0.15157020  0.35100896  0.19861807  1
  O2-  O436  1  0.15577070  0.33077297  0.51414759  1
  O2-  O437  1  0.15735110  0.33331242  0.85626854  1
  O2-  O438  1  0.17024918  0.59445308  0.17941378  1
  O2-  O439  1  0.15332859  0.58724664  0.51532142  1
  O2-  O440  1  0.19529714  0.55929085  0.87482122  1
  O2-  O441  1  0.21489672  0.87185017  0.16229271  1
  O2-  O442  1  0.21519141  0.94489562  0.59100680  1
  O2-  O443  1  0.12522242  0.81495104  0.85658360  1
  O2-  O444  1  0.39082749  0.06499411  0.18815814  1
  O2-  O445  1  0.42395420  0.10711426  0.51933320  1
  O2-  O446  1  0.41938912  0.08251664  0.84927482  1
  O2-  O447  1  0.42640836  0.33417615  0.19159057  1
  O2-  O448  1  0.37709797  0.34220444  0.54060286  1
  O2-  O449  1  0.42008407  0.34384725  0.85036428  1
  O2-  O450  1  0.39910646  0.56699266  0.18804185  1
  O2-  O451  1  0.39688400  0.58729127  0.52236731  1
  O2-  O452  1  0.41014139  0.58138714  0.85154909  1
  O2-  O453  1  0.40444563  0.83495727  0.15145049  1
  O2-  O454  1  0.41524169  0.83987974  0.51289219  1
  O2-  O455  1  0.40210361  0.82300722  0.83609118  1
  O2-  O456  1  0.66838411  0.09201255  0.19675609  1
  O2-  O457  1  0.66693816  0.09206246  0.52964893  1
  O2-  O458  1  0.66043046  0.07649645  0.84749457  1
  O2-  O459  1  0.65392365  0.32760070  0.17734654  1
  O2-  O460  1  0.65015170  0.24029244  0.52234771  1
  O2-  O461  1  0.66777207  0.33298728  0.85472490  1
  O2-  O462  1  0.66315049  0.56607090  0.18627450  1
  O2-  O463  1  0.64655189  0.56245686  0.52095409  1
  O2-  O464  1  0.65777265  0.57551326  0.85466387  1
  O2-  O465  1  0.72667532  0.93726155  0.20615259  1
  O2-  O466  1  0.64804001  0.83391216  0.51961567  1
  O2-  O467  1  0.64166400  0.82039084  0.85117659  1
  O2-  O468  1  0.92206281  0.08193777  0.20039971  1
  O2-  O469  1  0.91565941  0.07056674  0.52831357  1
  O2-  O470  1  0.90481171  0.07299486  0.83681615  1
  O2-  O471  1  0.91342557  0.35923966  0.18224998  1
  O2-  O472  1  0.91072311  0.32127375  0.52032218  1
  O2-  O473  1  0.91220826  0.32918619  0.89632094  1
  O2-  O474  1  0.90862242  0.58844560  0.18377409  1
  O2-  O475  1  0.89524977  0.56875990  0.51315188  1
  O2-  O476  1  0.91308585  0.57459232  0.85549642  1
  O2-  O477  1  0.92263852  0.82826357  0.18911763  1
  O2-  O478  1  0.93340465  0.82064820  0.50662562  1
  O2-  O479  1  0.88264631  0.81252005  0.84333790  1
  O2-  O480  1  0.16258221  0.06836498  0.32517996  1
  O2-  O481  1  0.18079393  0.11902584  0.64112788  1
  O2-  O482  1  0.19669508  0.08993554  0.97140249  1
  O2-  O483  1  0.17634857  0.32068640  0.32587682  1
  O2-  O484  1  0.16513388  0.33930938  0.63716732  1
  O2-  O485  1  0.18248686  0.37565696  0.98039383  1
  O2-  O486  1  0.17438156  0.59763829  0.30406490  1
  O2-  O487  1  0.17673098  0.58119260  0.63528896  1
  O2-  O488  1  0.12833167  0.54333452  1.01154908  1
  O2-  O489  1  0.18304828  0.83066469  0.34422247  1
  O2-  O490  1  0.18548868  0.81965936  0.67506361  1
  O2-  O491  1  0.15672848  0.81831529  0.97503362  1
  O2-  O492  1  0.44387942  0.10644996  0.31689249  1
  O2-  O493  1  0.42250784  0.12742829  0.64531320  1
  O2-  O494  1  0.42747577  0.08354226  0.97109625  1
  O2-  O495  1  0.41963382  0.33329276  0.31684266  1
  O2-  O496  1  0.41046969  0.34964076  0.65784618  1
  O2-  O497  1  0.42649808  0.33945089  0.97360555  1
  O2-  O498  1  0.40094145  0.58042122  0.31468904  1
  O2-  O499  1  0.47729385  0.59969324  0.66155011  1
  O2-  O500  1  0.41048598  0.57639376  0.97287757  1
  O2-  O501  1  0.42651404  0.83895659  0.30881250  1
  O2-  O502  1  0.43415799  0.80969066  0.62928577  1
  O2-  O503  1  0.39939867  0.78766758  0.94955854  1
  O2-  O504  1  0.66554655  0.07665539  0.31929232  1
  O2-  O505  1  0.65881483  0.07638456  0.65245419  1
  O2-  O506  1  0.71723672  0.07085201  0.96681991  1
  O2-  O507  1  0.66404162  0.31727920  0.33110153  1
  O2-  O508  1  0.66996794  0.30968184  0.62637774  1
  O2-  O509  1  0.67796139  0.33618008  0.97867532  1
  O2-  O510  1  0.66990097  0.56073645  0.30275349  1
  O2-  O511  1  0.64694810  0.58334845  0.64848582  1
  O2-  O512  1  0.65928454  0.57651562  0.97550331  1
  O2-  O513  1  0.68283239  0.85298883  0.31641540  1
  O2-  O514  1  0.66035466  0.82613399  0.64304128  1
  O2-  O515  1  0.63897177  0.82551801  0.97646881  1
  O2-  O516  1  0.92348893  0.06721215  0.32780736  1
  O2-  O517  1  0.91879753  0.10912107  0.65060405  1
  O2-  O518  1  0.89511422  0.07883955  0.96184254  1
  O2-  O519  1  0.93954252  0.38531847  0.30116920  1
  O2-  O520  1  0.91564339  0.33570442  0.64487444  1
  O2-  O521  1  0.92368234  0.22642803  0.99259709  1
  O2-  O522  1  0.90773786  0.58690403  0.30423775  1
  O2-  O523  1  0.92259988  0.58019440  0.63817898  1
  O2-  O524  1  0.92186546  0.58653257  0.97842351  1
  O2-  O525  1  0.90061464  0.81114418  0.30978213  1
  O2-  O526  1  0.92805279  0.82323509  0.68057161  1
  O2-  O527  1  0.91887668  0.85827832  0.95308198  1
  O2-  O528  1  0.05897766  0.23486684  0.04328062  1
  O2-  O529  1  0.08635959  0.15241337  0.36872985  1
  O2-  O530  1  0.08964494  0.18638086  0.68958034  1
  O2-  O531  1  -0.00587188  0.39567943  0.03330504  1
  O2-  O532  1  0.09141645  0.44304066  0.36224656  1
  O2-  O533  1  0.09991424  0.43236925  0.68798516  1
  O2-  O534  1  0.07615535  0.66869571  0.02870066  1
  O2-  O535  1  0.07394583  0.65927667  0.33964376  1
  O2-  O536  1  0.08602786  0.65009309  0.68282256  1
  O2-  O537  1  0.07628608  0.91729829  -0.00066085  1
  O2-  O538  1  0.06802632  0.88913694  0.34222000  1
  O2-  O539  1  0.09823263  0.94833380  0.66035607  1
  O2-  O540  1  0.36109998  0.17006899  0.00179613  1
  O2-  O541  1  0.33483662  0.16262229  0.35282817  1
  O2-  O542  1  0.33333864  0.18691838  0.69000936  1
  O2-  O543  1  0.34277332  0.41462737  0.02149111  1
  O2-  O544  1  0.33636700  0.41883436  0.36195137  1
  O2-  O545  1  0.31874897  0.42736497  0.69151822  1
  O2-  O546  1  0.30812891  0.63437869  0.01428524  1
  O2-  O547  1  0.33175224  0.67252617  0.35130535  1
  O2-  O548  1  0.35047211  0.64388364  0.67430411  1
  O2-  O549  1  0.42496287  0.89854765  0.03572940  1
  O2-  O550  1  0.35928121  0.93394473  0.34256633  1
  O2-  O551  1  0.36680809  0.91535664  0.65292169  1
  O2-  O552  1  0.58282256  0.16403741  0.01894012  1
  O2-  O553  1  0.58370682  0.15992054  0.36794932  1
  O2-  O554  1  0.58076436  0.16534955  0.69019918  1
  O2-  O555  1  0.58665419  0.41216431  0.01792234  1
  O2-  O556  1  0.58592903  0.41499045  0.35306911  1
  O2-  O557  1  0.57804786  0.43105200  0.68851443  1
  O2-  O558  1  0.57313365  0.65643689  0.01607022  1
  O2-  O559  1  0.55781674  0.60620461  0.37241323  1
  O2-  O560  1  0.56457152  0.65469203  0.68695598  1
  O2-  O561  1  0.59019846  0.93622126  0.02700788  1
  O2-  O562  1  0.58611289  0.92114500  0.36331196  1
  O2-  O563  1  0.58494758  0.91073401  0.68704893  1
  O2-  O564  1  0.84593798  0.20634970  0.02883578  1
  O2-  O565  1  0.82648154  0.12817305  0.37869774  1
  O2-  O566  1  0.82665686  0.17807138  0.68084554  1
  O2-  O567  1  0.85156598  0.42268841  0.02062452  1
  O2-  O568  1  0.83282720  0.42919617  0.35801309  1
  O2-  O569  1  0.83324957  0.41826981  0.67957689  1
  O2-  O570  1  0.82825873  0.64990589  0.01559693  1
  O2-  O571  1  0.81553021  0.65136891  0.35161508  1
  O2-  O572  1  0.79693932  0.59877907  0.69925440  1
  O2-  O573  1  0.80820183  0.91550729  0.01054001  1
  O2-  O574  1  0.83220861  0.89447458  0.36094724  1
  O2-  O575  1  0.81406296  0.88768265  0.68615206  1
