# generated using pymatgen
data_H2O
_symmetry_space_group_name_H-M   'P 1'
_cell_length_a   17.95388727
_cell_length_b   17.94853844
_cell_length_c   21.98220419
_cell_angle_alpha   89.91577432
_cell_angle_beta   89.95469985
_cell_angle_gamma   119.98984035
_symmetry_Int_Tables_number   1
_chemical_formula_structural   H2O
_chemical_formula_sum   'H384 O192'
_cell_volume   6135.25703268
_cell_formula_units_Z   192
loop_
 _symmetry_equiv_pos_site_id
 _symmetry_equiv_pos_as_xyz
  1  'x, y, z'
loop_
 _atom_type_symbol
 _atom_type_oxidation_number
  H+  1.0
  O2-  -2.0
loop_
 _atom_site_type_symbol
 _atom_site_label
 _atom_site_symmetry_multiplicity
 _atom_site_fract_x
 _atom_site_fract_y
 _atom_site_fract_z
 _atom_site_occupancy
  H+  H0  1  0.62398639  0.36657860  1.00241101  1
  H+  H1  1  0.27798771  0.13946106  0.50452718  1
  H+  H2  1  0.89029316  0.61213084  0.17997466  1
  H+  H3  1  1.03266956  0.13962752  0.83040907  1
  H+  H4  1  0.10190051  0.36579265  0.02263499  1
  H+  H5  1  0.85489332  0.46685927  0.17915783  1
  H+  H6  1  0.13107968  0.74900134  0.34311497  1
  H+  H7  1  0.22613836  0.11775735  0.18444030  1
  H+  H8  1  0.60354578  0.19925285  0.14393480  1
  H+  H9  1  0.71560837  0.33775371  0.17208067  1
  H+  H10  1  0.57596696  0.41469722  0.86226041  1
  H+  H11  1  0.38652623  0.90187629  0.01852673  1
  H+  H12  1  0.60521060  0.22666432  1.00727266  1
  H+  H13  1  0.52035405  0.86985466  0.18146656  1
  H+  H14  1  0.39443571  0.11618852  0.66951946  1
  H+  H15  1  0.46852581  0.62162605  -0.00881186  1
  H+  H16  1  0.17812373  0.17281938  0.85546971  1
  H+  H17  1  0.20407275  0.59477997  0.66653464  1
  H+  H18  1  0.91064028  0.79448957  0.41171520  1
  H+  H19  1  0.87043644  0.46987219  0.84322280  1
  H+  H20  1  0.66295465  0.17348436  0.29616596  1
  H+  H21  1  0.77538805  0.88269639  -0.01133807  1
  H+  H22  1  0.21564362  0.36496869  0.85483041  1
  H+  H23  1  0.60618864  0.71392682  0.66899955  1
  H+  H24  1  0.28736321  0.91331068  0.34582280  1
  H+  H25  1  0.23377090  0.36160000  0.66751307  1
  H+  H26  1  0.27108761  0.38745661  0.33812717  1
  H+  H27  1  0.61649021  0.12573797  0.68051152  1
  H+  H28  1  0.89924006  0.29765878  -0.01442751  1
  H+  H29  1  0.78146787  0.37790042  0.85286885  1
  H+  H30  1  0.26234252  0.89368933  0.68015722  1
  H+  H31  1  0.59019216  0.42934806  0.07390277  1
  H+  H32  1  0.89330017  0.82128266  0.20731537  1
  H+  H33  1  0.71621912  0.84286493  0.65872578  1
  H+  H34  1  0.86902923  0.97131648  0.47609858  1
  H+  H35  1  0.75393444  0.89583174  0.33455624  1
  H+  H36  1  1.04065873  0.39574417  0.49251810  1
  H+  H37  1  0.64088329  0.84608235  0.17730963  1
  H+  H38  1  0.46924118  0.35285522  0.52467855  1
  H+  H39  1  0.42162764  0.08525615  0.57706160  1
  H+  H40  1  0.53000087  0.55826362  0.80171744  1
  H+  H41  1  0.21742673  0.61409650  0.84211928  1
  H+  H42  1  0.91655704  0.54987066  0.51469580  1
  H+  H43  1  0.64405571  0.12218177  0.51544267  1
  H+  H44  1  0.14208037  1.05577320  0.00023528  1
  H+  H45  1  0.14077277  0.35404721  0.66468611  1
  H+  H46  1  0.60293633  0.38578298  0.51011454  1
  H+  H47  1  0.70897035  0.59045278  0.50076545  1
  H+  H48  1  0.90106851  0.35962084  0.51161686  1
  H+  H49  1  0.35637235  0.98026766  0.68271401  1
  H+  H50  1  0.83710395  0.64069621  0.50435050  1
  H+  H51  1  0.14330376  0.73609603  0.49801061  1
  H+  H52  1  0.36795877  0.60387757  0.32117144  1
  H+  H53  1  0.15805553  0.15363715  0.99875608  1
  H+  H54  1  0.17354544  0.09330766  0.56367729  1
  H+  H55  1  0.61887534  0.86605081  0.34573930  1
  H+  H56  1  0.24021090  0.86908980  0.51566454  1
  H+  H57  1  0.87603252  0.36219441  0.65033974  1
  H+  H58  1  0.35120859  0.64362754  0.83129593  1
  H+  H59  1  0.60898299  0.36649452  0.15594019  1
  H+  H60  1  0.03194221  0.14090271  0.13659777  1
  H+  H61  1  0.89326907  0.58438590  0.66307797  1
  H+  H62  1  0.33586479  -0.04413892  0.84050167  1
  H+  H63  1  1.02239972  0.12672634  0.48055445  1
  H+  H64  1  0.48540472  0.85942779  0.85464215  1
  H+  H65  1  0.41020345  0.05121381  0.32551620  1
  H+  H66  1  0.13901264  0.27434798  0.17263706  1
  H+  H67  1  0.37294136  0.53555596  0.99262481  1
  H+  H68  1  0.36931353  0.89191535  0.50171604  1
  H+  H69  1  0.36510275  0.08379579  0.83813125  1
  H+  H70  1  0.10938087  0.46751457  0.16658105  1
  H+  H71  1  0.11669732  0.48278205  0.33434880  1
  H+  H72  1  0.60348669  0.63977559  0.33887951  1
  H+  H73  1  0.28618118  0.15990010  0.32188588  1
  H+  H74  1  0.38927201  0.78134773  0.85883525  1
  H+  H75  1  0.72900895  0.39462594  0.51571138  1
  H+  H76  1  0.89243316  0.48867273  0.65052478  1
  H+  H77  1  0.85919113  0.37975140  0.17119672  1
  H+  H78  1  0.75938577  0.39671192  0.02080716  1
  H+  H79  1  0.25117733  0.38282353  0.50181194  1
  H+  H80  1  0.60377446  0.64349721  1.00312040  1
  H+  H81  1  0.34768412  0.48335577  0.83814031  1
  H+  H82  1  0.23648813  0.61236800  0.32585099  1
  H+  H83  1  0.07443144  0.66756808  0.06312739  1
  H+  H84  1  0.60472945  0.72272304  0.49010989  1
  H+  H85  1  0.99841703  0.55491768  0.87309581  1
  H+  H86  1  0.40339718  0.79297597  1.00991229  1
  H+  H87  1  0.86976333  0.13587942  0.82975590  1
  H+  H88  1  0.93704271  0.01175652  0.64483494  1
  H+  H89  1  0.55350166  0.43829228  0.85147211  1
  H+  H90  1  0.38400828  0.37204055  0.33934427  1
  H+  H91  1  0.08219979  0.39924718  0.73698061  1
  H+  H92  1  0.61079147  0.48697853  1.01249798  1
  H+  H93  1  0.63477966  0.77675305  0.99456269  1
  H+  H94  1  0.87241948  0.10601638  0.26859750  1
  H+  H95  1  0.61790425  0.41458842  0.35436330  1
  H+  H96  1  0.92722082  0.60080802  0.27387338  1
  H+  H97  1  0.13220538  0.48391982  0.49111303  1
  H+  H98  1  0.12337395  0.22733884  0.67279575  1
  H+  H99  1  0.92458709  0.08834631  1.03540663  1
  H+  H100  1  0.73250546  0.60714954  0.65285932  1
  H+  H101  1  0.84894048  0.62599082  0.00759538  1
  H+  H102  1  0.72476325  0.10318313  0.16190892  1
  H+  H103  1  0.89231796  0.00932935  0.13703080  1
  H+  H104  1  0.13713625  0.36754225  0.32277136  1
  H+  H105  1  0.31081000  0.73077697  0.69011980  1
  H+  H106  1  0.89128840  0.10555325  0.50400494  1
  H+  H107  1  0.63020586  0.45921024  0.17547038  1
  H+  H108  1  0.11758502  0.87203651  0.17360284  1
  H+  H109  1  0.65268873  0.33864313  0.83787411  1
  H+  H110  1  0.47518316  0.36410724  0.67164261  1
  H+  H111  1  0.36912912  0.76770424  0.52855090  1
  H+  H112  1  0.59441351  0.47091570  0.50736408  1
  H+  H113  1  0.84830013  0.91631040  0.68795216  1
  H+  H114  1  0.77804149  0.13939845  0.50189332  1
  H+  H115  1  0.47397390  0.36408183  0.16671690  1
  H+  H116  1  0.35894385  0.23123808  0.18512844  1
  H+  H117  1  0.87581626  0.52254299  0.00150769  1
  H+  H118  1  0.53914591  0.18756151  0.29717740  1
  H+  H119  1  0.65901412  0.61971035  0.83333213  1
  H+  H120  1  0.28496132  0.39105978  0.15143862  1
  H+  H121  1  0.11105410  0.38626107  0.83584869  1
  H+  H122  1  0.87198502  0.19770636  0.66691063  1
  H+  H123  1  0.64022341  1.01676426  0.82195070  1
  H+  H124  1  0.87008303  0.87316055  0.13776716  1
  H+  H125  1  0.89732112  0.26958703  0.50194114  1
  H+  H126  1  0.82891435  0.16489078  0.43900474  1
  H+  H127  1  0.46286163  0.60229310  0.66062419  1
  H+  H128  1  0.89289396  0.02676503  0.85084165  1
  H+  H129  1  0.80224180  0.91769589  0.74847868  1
  H+  H130  1  0.60901688  0.95745119  0.17491030  1
  H+  H131  1  0.53464767  0.14824754  0.50671598  1
  H+  H132  1  1.05716599  0.68309748  0.78524076  1
  H+  H133  1  0.62500340  0.77932531  0.34063305  1
  H+  H134  1  0.61095378  0.88836331  0.49758200  1
  H+  H135  1  0.96555947  0.61400163  0.99692877  1
  H+  H136  1  0.22784009  0.72612479  0.94015036  1
  H+  H137  1  0.78464381  0.36256563  0.64893010  1
  H+  H138  1  0.85540556  0.36853964  0.35353363  1
  H+  H139  1  0.88624214  0.35829575  0.83008290  1
  H+  H140  1  0.68659177  0.55080754  0.84537924  1
  H+  H141  1  0.70921112  0.45261151  0.27694744  1
  H+  H142  1  0.37410419  0.51626597  0.66683075  1
  H+  H143  1  0.09017214  0.17333691  0.40192684  1
  H+  H144  1  0.93955346  0.88658001  0.73562555  1
  H+  H145  1  0.63593871  -0.00874830  0.99120114  1
  H+  H146  1  0.38556887  0.12302274  0.99844837  1
  H+  H147  1  0.12594278  0.15473840  0.33310187  1
  H+  H148  1  0.09299553  0.97210816  0.16362046  1
  H+  H149  1  0.22641231  0.60462270  0.17374823  1
  H+  H150  1  0.82009644  0.42440548  0.07944182  1
  H+  H151  1  0.52191160  0.88616714  0.50842891  1
  H+  H152  1  0.38785368  0.27134898  0.67763387  1
  H+  H153  1  0.89135746  0.27191714  0.33345024  1
  H+  H154  1  0.78106964  0.88340883  0.84076736  1
  H+  H155  1  0.91925107  0.07183854  0.19364335  1
  H+  H156  1  0.67130691  0.08210586  0.60544883  1
  H+  H157  1  0.36325518  0.64987935  0.00549538  1
  H+  H158  1  0.37093740  0.23266947  1.03074896  1
  H+  H159  1  0.36254743  0.75572677  0.33309449  1
  H+  H160  1  0.14348739  0.89036142  0.32337458  1
  H+  H161  1  0.54912862  0.90417381  0.00674767  1
  H+  H162  1  0.72380047  0.61734172  1.00076794  1
  H+  H163  1  0.35573215  0.62137189  0.16036522  1
  H+  H164  1  0.63368430  0.84551931  0.64946564  1
  H+  H165  1  0.35828128  0.48017962  0.33817202  1
  H+  H166  1  0.08797523  0.91457840  -0.00010763  1
  H+  H167  1  0.68351321  0.34714703  0.69514898  1
  H+  H168  1  0.62223505  0.23727424  0.50543754  1
  H+  H169  1  0.45205426  0.28861352  0.79109668  1
  H+  H170  1  0.37541882  0.15815662  0.32325636  1
  H+  H171  1  0.26990310  0.13403330  0.83202057  1
  H+  H172  1  0.55994648  0.91198287  0.40457900  1
  H+  H173  1  0.84157579  0.14482723  0.72828476  1
  H+  H174  1  0.02389945  0.54796143  0.11184192  1
  H+  H175  1  0.35868636  0.14109684  0.18299727  1
  H+  H176  1  0.29085032  0.63379559  0.57940851  1
  H+  H177  1  0.16324703  0.82518295  0.61227874  1
  H+  H178  1  0.14675099  1.02933816  0.50597256  1
  H+  H179  1  0.72731285  0.10714495  0.81420484  1
  H+  H180  1  0.76554628  0.15154625  0.33566761  1
  H+  H181  1  0.37981060  1.01422998  0.17482096  1
  H+  H182  1  0.36054438  0.38332345  0.69147573  1
  H+  H183  1  0.01850662  0.62089626  0.51890764  1
  H+  H184  1  0.10229363  0.59769419  0.15609062  1
  H+  H185  1  0.14561067  0.05232667  0.32185672  1
  H+  H186  1  0.11249267  0.83783920  0.92106277  1
  H+  H187  1  0.18232213  0.63739022  0.50456697  1
  H+  H188  1  0.46580241  0.61914440  0.84068463  1
  H+  H189  1  0.34267921  0.39330059  0.85523759  1
  H+  H190  1  0.14467611  0.61537275  0.32562912  1
  H+  H191  1  0.64654460  0.87422026  0.98841931  1
  H+  H192  1  0.28397055  0.66726929  0.00400883  1
  H+  H193  1  0.07911928  0.78088775  0.98180860  1
  H+  H194  1  0.64409847  0.98169553  0.67910442  1
  H+  H195  1  0.13461834  0.61687451  0.82365154  1
  H+  H196  1  0.37548643  0.75793669  0.18150540  1
  H+  H197  1  1.03243416  0.92715170  0.66808881  1
  H+  H198  1  0.00006112  0.87471137  0.15695401  1
  H+  H199  1  0.66802307  0.58397861  0.59530419  1
  H+  H200  1  0.63906779  0.11738224  -0.01814521  1
  H+  H201  1  0.60993782  0.62743618  0.66823319  1
  H+  H202  1  0.98338050  0.33687014  0.66240390  1
  H+  H203  1  0.61893905  0.28419884  0.30699296  1
  H+  H204  1  0.37557357  0.24307725  0.52152243  1
  H+  H205  1  0.22884038  0.04621318  0.79871788  1
  H+  H206  1  0.42181652  0.29612191  0.81043207  1
  H+  H207  1  0.04190555  0.66204095  0.34433925  1
  H+  H208  1  0.34399906  0.92646839  0.44136201  1
  H+  H209  1  0.37705826  0.50817372  0.15975192  1
  H+  H210  1  0.15278515  0.03776121  0.65111816  1
  H+  H211  1  0.48094656  0.10881444  0.66938611  1
  H+  H212  1  0.75678096  0.57905434  0.20156931  1
  H+  H213  1  0.47143928  0.37918551  1.02359579  1
  H+  H214  1  0.37481814  0.84680868  0.18120127  1
  H+  H215  1  0.97181748  0.59629550  0.17937361  1
  H+  H216  1  0.51157492  0.63110607  0.15006497  1
  H+  H217  1  0.94731442  0.57675348  0.60295304  1
  H+  H218  1  0.60703135  0.11971784  0.81950729  1
  H+  H219  1  0.61682877  0.48023928  0.66226383  1
  H+  H220  1  0.03382479  0.94333997  0.29269405  1
  H+  H221  1  0.32433732  0.43763489  0.07140479  1
  H+  H222  1  0.26085087  0.39815193  0.01095491  1
  H+  H223  1  0.10926996  0.44982421  0.67318496  1
  H+  H224  1  0.14147770  0.78043751  0.67965789  1
  H+  H225  1  0.97344608  0.35590485  0.17704070  1
  H+  H226  1  0.14736680  0.37384531  0.51202648  1
  H+  H227  1  0.44401026  0.84999282  0.68256968  1
  H+  H228  1  0.87386704  0.16540456  -0.00003865  1
  H+  H229  1  0.39043533  1.03553631  -0.00000357  1
  H+  H230  1  0.13073214  0.27386292  0.84566335  1
  H+  H231  1  0.72676287  0.85829302  0.49307936  1
  H+  H232  1  0.72733189  0.62418635  0.34881996  1
  H+  H233  1  0.62591310  0.60766450  0.50530434  1
  H+  H234  1  0.82554319  0.45308717  0.44165551  1
  H+  H235  1  0.81162866  0.67221722  0.81106545  1
  H+  H236  1  0.86722532  0.22268355  0.81933359  1
  H+  H237  1  0.38322542  0.37466562  1.04201829  1
  H+  H238  1  0.51519682  0.11740775  0.83012020  1
  H+  H239  1  0.35581194  0.47933939  0.49329333  1
  H+  H240  1  0.45934651  0.60556523  0.32241468  1
  H+  H241  1  0.64413825  0.76182572  0.84906069  1
  H+  H242  1  0.63926187  0.02974632  0.51326510  1
  H+  H243  1  0.12235692  0.24631429  0.33797005  1
  H+  H244  1  0.87959641  0.69246784  0.65253125  1
  H+  H245  1  0.73222178  0.12918086  0.98306377  1
  H+  H246  1  0.68372067  0.11403621  0.25373597  1
  H+  H247  1  0.13588692  0.91719741  0.81509736  1
  H+  H248  1  0.87007286  0.72333283  0.15849217  1
  H+  H249  1  0.14783273  0.86086890  0.51360330  1
  H+  H250  1  0.86682877  0.96903704  -0.01563402  1
  H+  H251  1  0.36608406  0.86883912  0.67437299  1
  H+  H252  1  0.49697466  0.87356261  0.34777456  1
  H+  H253  1  0.60708474  0.38685182  0.65758608  1
  H+  H254  1  0.63222185  0.09619316  0.15980349  1
  H+  H255  1  0.23523978  0.83753013  -0.05165566  1
  H+  H256  1  0.86954270  0.02066642  0.29266173  1
  H+  H257  1  0.72723509  0.84755412  0.15915157  1
  H+  H258  1  0.26617277  0.84603262  0.92240642  1
  H+  H259  1  0.57053656  0.14120438  0.08525166  1
  H+  H260  1  0.39390058  1.02978382  0.51534438  1
  H+  H261  1  0.51681920  0.13819206  -0.00284731  1
  H+  H262  1  0.87164346  0.66050765  0.35569603  1
  H+  H263  1  0.28342163  0.14139041  0.67017449  1
  H+  H264  1  0.36272147  0.89214184  0.34682619  1
  H+  H265  1  0.11587747  0.13433151  0.48247883  1
  H+  H266  1  0.90765517  0.87645141  0.43801165  1
  H+  H267  1  0.83885193  0.75533774  0.32128146  1
  H+  H268  1  -0.07348686  0.82299321  0.29729359  1
  H+  H269  1  0.10599921  0.89517713  0.66347557  1
  H+  H270  1  0.26196628  0.88148209  0.16512946  1
  H+  H271  1  0.16912034  0.85379606  0.26787476  1
  H+  H272  1  0.11152194  0.47627136  0.82711196  1
  H+  H273  1  1.03760708  0.13462893  0.66937846  1
  H+  H274  1  0.04420331  0.89285242  0.46068449  1
  H+  H275  1  0.28344149  0.14847297  0.01869060  1
  H+  H276  1  0.74507063  0.41212344  0.32737598  1
  H+  H277  1  0.69840015  0.94215457  0.70497272  1
  H+  H278  1  0.89129830  0.84727331  0.97604431  1
  H+  H279  1  0.90639677  0.55178302  0.33674623  1
  H+  H280  1  0.75509521  0.41956441  0.77782006  1
  H+  H281  1  0.51377082  0.63520701  0.49615404  1
  H+  H282  1  0.73439152  0.10623867  0.66267646  1
  H+  H283  1  1.02913414  0.38865275  1.00918675  1
  H+  H284  1  0.15301584  0.12655917  0.65640633  1
  H+  H285  1  0.91431174  0.88283311  0.63108605  1
  H+  H286  1  0.86393946  0.21877759  0.15758377  1
  H+  H287  1  0.31731577  0.27823454  0.89275740  1
  H+  H288  1  1.11557353  0.67264054  0.99825555  1
  H+  H289  1  0.55215572  0.07615427  0.40126651  1
  H+  H290  1  0.62987574  0.24582788  0.85530497  1
  H+  H291  1  0.36966893  0.13776990  0.51159087  1
  H+  H292  1  0.86517497  0.13144727  0.14095653  1
  H+  H293  1  0.38572634  0.27194723  0.33328938  1
  H+  H294  1  0.85123456  0.66178145  0.72157913  1
  H+  H295  1  1.00087271  0.90161783  0.79252989  1
  H+  H296  1  0.60629745  0.71556334  0.15161921  1
  H+  H297  1  0.59388202  0.90337329  0.77367455  1
  H+  H298  1  0.83832277  0.90346796  0.07873590  1
  H+  H299  1  0.09244396  0.42273428  0.39389997  1
  H+  H300  1  0.16605904  0.10330539  0.25865155  1
  H+  H301  1  0.30020471  0.90314850  0.77974267  1
  H+  H302  1  0.40463518  0.07547916  0.90133162  1
  H+  H303  1  0.32556377  0.41345994  0.74896914  1
  H+  H304  1  0.97828714  0.36465018  0.33120215  1
  H+  H305  1  0.40360586  0.57090931  0.57256535  1
  H+  H306  1  0.14481770  0.29988287  0.94593782  1
  H+  H307  1  0.95424354  0.77520618  0.58755308  1
  H+  H308  1  0.40996898  0.32085853  0.58720151  1
  H+  H309  1  0.55006812  0.03745096  0.38628549  1
  H+  H310  1  0.81888601  0.64853953  0.42070464  1
  H+  H311  1  0.67421588  0.59665072  0.93801864  1
  H+  H312  1  0.63619197  0.27801662  0.21651446  1
  H+  H313  1  0.69338251  0.56047863  0.25816565  1
  H+  H314  1  0.63970112  0.25514397  0.66436609  1
  H+  H315  1  0.66976146  0.82428943  0.90788275  1
  H+  H316  1  0.11627819  0.78184711  0.17886312  1
  H+  H317  1  0.40524434  0.83386228  0.58249205  1
  H+  H318  1  0.56480567  0.65951463  0.39694293  1
  H+  H319  1  0.65517942  0.33030955  0.94638476  1
  H+  H320  1  0.58266174  0.15651250  0.73833624  1
  H+  H321  1  0.93430456  0.31123524  0.59809164  1
  H+  H322  1  0.57462227  0.41886849  0.41854947  1
  H+  H323  1  0.85207735  0.71523728  0.00669009  1
  H+  H324  1  0.14044813  0.12164824  0.16597529  1
  H+  H325  1  0.87409196  0.90095801  0.81385362  1
  H+  H326  1  0.13785998  0.93504166  0.43536912  1
  H+  H327  1  0.76728957  0.32699348  0.38820323  1
  H+  H328  1  0.93108691  0.56997539  0.90874958  1
  H+  H329  1  0.38006240  0.34567643  0.94156200  1
  H+  H330  1  0.61761339  0.87295186  0.83458674  1
  H+  H331  1  0.67395815  0.82791481  0.55621008  1
  H+  H332  1  0.47926801  0.37593240  0.34644014  1
  H+  H333  1  0.07710059  0.94247512  0.06599068  1
  H+  H334  1  0.82857943  0.64793701  0.10890993  1
  H+  H335  1  0.82758807  0.11354794  0.35186015  1
  H+  H336  1  0.89731744  0.07639609  0.65335153  1
  H+  H337  1  0.67596808  0.34476046  0.57582980  1
  H+  H338  1  0.39571492  0.82024563  0.27700926  1
  H+  H339  1  0.11445795  0.68043415  0.43643875  1
  H+  H340  1  0.32118942  0.14566317  0.73639394  1
  H+  H341  1  0.42165400  0.09037824  0.25848569  1
  H+  H342  1  0.11647317  0.95048498  0.75132969  1
  H+  H343  1  0.29744103  0.90031723  0.01425239  1
  H+  H344  1  0.92757512  0.07011673  0.55657804  1
  H+  H345  1  0.43258854  0.84844008  0.94859483  1
  H+  H346  1  0.16732092  0.57877172  0.23500947  1
  H+  H347  1  0.32117833  0.41952522  0.43109930  1
  H+  H348  1  0.83575241  0.18481223  0.05823550  1
  H+  H349  1  0.41021179  0.59631685  0.90256841  1
  H+  H350  1  0.97774613  0.36169217  0.82807091  1
  H+  H351  1  0.57347628  0.63821411  0.75766280  1
  H+  H352  1  0.16090911  0.56120793  0.60034842  1
  H+  H353  1  0.13412382  0.36025912  0.17683901  1
  H+  H354  1  0.17406383  0.62984758  0.92102619  1
  H+  H355  1  0.10528477  0.19601953  0.08755369  1
  H+  H356  1  0.32832625  0.66226393  0.10481152  1
  H+  H357  1  0.33013597  0.91111837  0.11000453  1
  H+  H358  1  0.07604202  0.40632486  0.10688869  1
  H+  H359  1  0.09186988  0.17015159  0.76999887  1
  H+  H360  1  0.93636102  0.34597352  0.92392718  1
  H+  H361  1  0.47126886  0.09873220  0.16385766  1
  H+  H362  1  0.91491818  0.76372630  0.56849701  1
  H+  H363  1  0.16558427  0.33219666  0.26371857  1
  H+  H364  1  0.63633189  0.53705971  0.34952493  1
  H+  H365  1  0.32132996  0.64782737  0.38754158  1
  H+  H366  1  0.83790578  0.88989237  0.31785255  1
  H+  H367  1  0.18272904  0.34496625  0.57269946  1
  H+  H368  1  0.83029229  0.92522396  0.41212088  1
  H+  H369  1  0.38896689  0.37139790  0.15901522  1
  H+  H370  1  0.20822065  0.14602919  0.91699481  1
  H+  H371  1  0.21296203  0.69009280  0.71525428  1
  H+  H372  1  0.80604111  0.52458099  0.47412582  1
  H+  H373  1  0.68434536  0.44289129  0.74872064  1
  H+  H374  1  0.57017651  0.66848187  0.06338227  1
  H+  H375  1  0.01465529  0.91104343  0.36197317  1
  H+  H376  1  0.96334899  0.82216055  0.96298257  1
  H+  H377  1  0.91283243  0.32419527  0.23594591  1
  H+  H378  1  0.92799505  0.09148172  0.90737385  1
  H+  H379  1  0.40257829  0.56789011  0.22303143  1
  H+  H380  1  1.00497734  0.15535970  0.99770001  1
  H+  H381  1  0.30748883  0.67741530  0.78093715  1
  H+  H382  1  0.36735982  0.60101192  0.51781465  1
  H+  H383  1  0.89242961  0.75931562  0.78682104  1
  O2-  O384  1  0.09543126  0.17916848  0.13199995  1
  O2-  O385  1  0.08243619  0.15914464  0.46389557  1
  O2-  O386  1  0.09280173  0.17503032  0.81523460  1
  O2-  O387  1  0.07492712  0.40614249  0.15341797  1
  O2-  O388  1  0.10105404  0.42361163  0.47714965  1
  O2-  O389  1  0.08476459  0.41562950  0.81263476  1
  O2-  O390  1  0.05538882  0.60304716  0.13281382  1
  O2-  O391  1  0.12075151  0.67639165  0.48143721  1
  O2-  O392  1  0.11593522  0.69353929  0.78143939  1
  O2-  O393  1  0.06881285  0.91318300  0.14726601  1
  O2-  O394  1  0.10598152  0.92163852  0.47354837  1
  O2-  O395  1  0.11959865  0.95866681  0.79636135  1
  O2-  O396  1  0.32488867  0.16799871  0.19535554  1
  O2-  O397  1  0.34247225  0.17311727  0.49816303  1
  O2-  O398  1  0.28568035  0.10003674  0.80322144  1
  O2-  O399  1  0.34175742  0.42528157  0.13248201  1
  O2-  O400  1  0.32129828  0.41867802  0.47723556  1
  O2-  O401  1  0.31814432  0.42129571  0.82707909  1
  O2-  O402  1  0.32493118  0.65514016  0.14978956  1
  O2-  O403  1  0.29287398  0.64571117  0.53525420  1
  O2-  O404  1  0.31794223  0.67395969  0.82534313  1
  O2-  O405  1  0.32378956  0.90614842  0.15532505  1
  O2-  O406  1  0.34134294  0.92470875  0.48708794  1
  O2-  O407  1  0.29894413  0.89612366  0.82449124  1
  O2-  O408  1  0.57110820  0.13759475  0.13126765  1
  O2-  O409  1  0.59566852  0.17611050  0.49378461  1
  O2-  O410  1  0.57545825  0.15356556  0.81550827  1
  O2-  O411  1  0.59144409  0.41050668  0.14872917  1
  O2-  O412  1  0.56505557  0.40819667  0.49490288  1
  O2-  O413  1  0.69611262  0.39713527  0.75988856  1
  O2-  O414  1  0.56974275  0.65849258  0.13118731  1
  O2-  O415  1  0.57231706  0.66057451  0.47837761  1
  O2-  O416  1  0.56769675  0.62064255  0.80246914  1
  O2-  O417  1  0.58069363  0.89479522  0.16807092  1
  O2-  O418  1  0.58001617  0.92073061  0.49056185  1
  O2-  O419  1  0.58536000  0.90047305  0.81842005  1
  O2-  O420  1  0.83297579  0.16299977  0.13536507  1
  O2-  O421  1  0.83774460  0.16767255  0.48400197  1
  O2-  O422  1  0.84012924  0.16099143  0.80639532  1
  O2-  O423  1  0.82480768  0.40811355  0.16130876  1
  O2-  O424  1  0.82072778  0.47589671  0.48131636  1
  O2-  O425  1  0.82760002  0.41324186  0.82344844  1
  O2-  O426  1  0.84040576  0.65601614  0.15332635  1
  O2-  O427  1  0.79404005  0.60397721  0.47467078  1
  O2-  O428  1  0.86389863  0.69507546  0.78582963  1
  O2-  O429  1  0.84247081  0.90877244  0.12366600  1
  O2-  O430  1  0.83866111  0.91392168  0.45576560  1
  O2-  O431  1  0.83707888  0.92689820  0.82264099  1
  O2-  O432  1  0.16030030  0.08702317  0.18921089  1
  O2-  O433  1  0.17404918  0.09081992  0.51741470  1
  O2-  O434  1  0.22863640  0.17578203  0.87623299  1
  O2-  O435  1  0.16626944  0.33196248  0.19266801  1
  O2-  O436  1  0.18201802  0.34729418  0.52645807  1
  O2-  O437  1  0.15408156  0.32958593  0.86843125  1
  O2-  O438  1  0.16468427  0.57399779  0.18914609  1
  O2-  O439  1  0.20032011  0.59523472  0.52048439  1
  O2-  O440  1  0.15309007  0.58439882  0.85051600  1
  O2-  O441  1  0.15026163  0.84186428  0.19109270  1
  O2-  O442  1  0.17900873  0.83274726  0.53009719  1
  O2-  O443  1  0.16963472  0.85809865  0.85147730  1
  O2-  O444  1  0.41463373  0.07656212  0.18516460  1
  O2-  O445  1  0.42164349  0.08984315  0.53142951  1
  O2-  O446  1  0.40359588  0.06462595  0.85653059  1
  O2-  O447  1  0.41301246  0.33692001  0.17850861  1
  O2-  O448  1  0.40887160  0.31596284  0.54118824  1
  O2-  O449  1  0.36676137  0.33761270  0.89719866  1
  O2-  O450  1  0.40375556  0.57225341  0.17816241  1
  O2-  O451  1  0.40335331  0.57489002  0.52610555  1
  O2-  O452  1  0.40667712  0.59393608  0.85604217  1
  O2-  O453  1  0.40388962  0.81727646  0.19905001  1
  O2-  O454  1  0.40761583  0.82929266  0.53716730  1
  O2-  O455  1  0.43025203  0.83745448  0.87695915  1
  O2-  O456  1  0.66736033  0.07556559  0.18188874  1
  O2-  O457  1  0.67439620  0.09000789  0.52848041  1
  O2-  O458  1  0.66396594  0.07724057  0.80915427  1
  O2-  O459  1  0.65167579  0.30069935  0.17427897  1
  O2-  O460  1  0.67093519  0.35057810  0.53138572  1
  O2-  O461  1  0.66140471  0.30680112  0.87088565  1
  O2-  O462  1  0.71061447  0.53211536  0.22659812  1
  O2-  O463  1  0.65125661  0.57372439  0.52249948  1
  O2-  O464  1  0.70396967  0.61080676  0.85305785  1
  O2-  O465  1  0.67254291  0.81359317  0.18115845  1
  O2-  O466  1  0.66825858  0.83076784  0.51121710  1
  O2-  O467  1  0.67370495  0.82218431  0.86073378  1
  O2-  O468  1  0.92130587  0.07342086  0.14807954  1
  O2-  O469  1  0.92183643  0.07303594  0.51113651  1
  O2-  O470  1  0.92752644  0.08904633  0.86271223  1
  O2-  O471  1  0.91133508  0.32340306  0.19080761  1
  O2-  O472  1  0.93458152  0.33098189  0.51709312  1
  O2-  O473  1  0.91670821  0.32702030  0.84210516  1
  O2-  O474  1  0.91705130  0.57998106  0.20105365  1
  O2-  O475  1  0.96172195  0.59778534  0.53948270  1
  O2-  O476  1  0.94800751  0.56087591  0.86663790  1
  O2-  O477  1  0.91065172  0.81983090  0.16532844  1
  O2-  O478  1  0.94758809  0.85612679  0.42271362  1
  O2-  O479  1  0.93945081  0.86959448  0.77956407  1
  O2-  O480  1  0.17428403  0.11123727  0.30535474  1
  O2-  O481  1  0.18477024  0.09982990  0.63678035  1
  O2-  O482  1  0.18383005  0.11720946  0.98745556  1
  O2-  O483  1  0.16636543  0.33455839  0.31059936  1
  O2-  O484  1  0.17659624  0.33099846  0.64603334  1
  O2-  O485  1  0.14814888  0.30090996  0.99156115  1
  O2-  O486  1  0.16839217  0.57973688  0.31062973  1
  O2-  O487  1  0.16722155  0.54285779  0.64109950  1
  O2-  O488  1  0.19633580  0.66829334  0.95770227  1
  O2-  O489  1  0.17561487  0.86104869  0.31323926  1
  O2-  O490  1  0.15868462  0.83566141  0.65602051  1
  O2-  O491  1  0.07885491  0.82831808  0.95937994  1
  O2-  O492  1  0.43066514  0.10611144  0.30332570  1
  O2-  O493  1  0.42021854  0.08145948  0.65396921  1
  O2-  O494  1  0.41329650  0.09120799  0.97834650  1
  O2-  O495  1  0.41941460  0.34386879  0.32811654  1
  O2-  O496  1  0.41258992  0.33159525  0.66110348  1
  O2-  O497  1  0.40755705  0.34524798  1.01852857  1
  O2-  O498  1  0.39854036  0.57020709  0.30864861  1
  O2-  O499  1  0.40297501  0.57284154  0.64550837  1
  O2-  O500  1  0.40844882  0.59606382  0.97461828  1
  O2-  O501  1  0.39066527  0.81965956  0.32239934  1
  O2-  O502  1  0.39154317  0.83185672  0.65933713  1
  O2-  O503  1  0.43341317  0.85363408  0.99490889  1
  O2-  O504  1  0.69394539  0.14089973  0.29518925  1
  O2-  O505  1  0.67207530  0.07911554  0.65106675  1
  O2-  O506  1  0.67348321  0.09190982  0.96687400  1
  O2-  O507  1  0.69280563  0.40864978  0.30982623  1
  O2-  O508  1  0.67395171  0.31866276  0.65412570  1
  O2-  O509  1  0.65462935  0.33462276  0.99153011  1
  O2-  O510  1  0.67047494  0.59331825  0.32819957  1
  O2-  O511  1  0.67137117  0.58375396  0.64139370  1
  O2-  O512  1  0.66393350  0.59082218  0.98222252  1
  O2-  O513  1  0.65937491  0.84255683  0.34415638  1
  O2-  O514  1  0.66056526  0.81155580  0.63527388  1
  O2-  O515  1  0.67152460  0.83518376  0.97558431  1
  O2-  O516  1  0.90563450  0.07681765  0.27052416  1
  O2-  O517  1  0.94188365  0.06884130  0.63228688  1
  O2-  O518  1  0.93969010  0.11269178  0.99442899  1
  O2-  O519  1  0.91571369  0.33238512  0.31947689  1
  O2-  O520  1  0.92472753  0.30476430  0.64266755  1
  O2-  O521  1  0.94041803  0.35504308  0.96846482  1
  O2-  O522  1  0.93192774  0.60957881  0.31978901  1
  O2-  O523  1  0.92836676  0.55764644  0.64881451  1
  O2-  O524  1  0.90697680  0.58007731  0.97916462  1
  O2-  O525  1  0.86627939  0.80756511  0.29510370  1
  O2-  O526  1  0.93886501  0.92374003  0.66435597  1
  O2-  O527  1  0.90100551  0.80018932  0.96299688  1
  O2-  O528  1  0.10575764  0.20938624  0.01097844  1
  O2-  O529  1  0.09412285  0.18269263  0.35286620  1
  O2-  O530  1  0.09556432  0.16716055  0.68910205  1
  O2-  O531  1  0.08154745  0.40534696  0.03488744  1
  O2-  O532  1  0.08535910  0.42002889  0.34910076  1
  O2-  O533  1  0.07934396  0.39053572  0.69173645  1
  O2-  O534  1  0.07253472  0.68257279  0.02005533  1
  O2-  O535  1  0.10266387  0.68879564  0.35818623  1
  O2-  O536  1  0.12886881  0.69445059  0.71602081  1
  O2-  O537  1  0.07923916  0.95765400  0.02239587  1
  O2-  O538  1  0.05961221  0.93434967  0.32901099  1
  O2-  O539  1  0.09418898  0.94174469  0.67547215  1
  O2-  O540  1  0.34321786  0.16913201  0.03306643  1
  O2-  O541  1  0.34479632  0.18765035  0.33996675  1
  O2-  O542  1  0.33918760  0.16586251  0.69296951  1
  O2-  O543  1  0.31733559  0.44471853  0.02367279  1
  O2-  O544  1  0.32985352  0.41858592  0.35656723  1
  O2-  O545  1  0.32858694  0.41332478  0.70337748  1
  O2-  O546  1  0.33811574  0.68286875  0.02552674  1
  O2-  O547  1  0.32102878  0.65271669  0.34348331  1
  O2-  O548  1  0.26460841  0.67946899  0.71110012  1
  O2-  O549  1  0.35300689  0.93059819  0.03457644  1
  O2-  O550  1  0.34592620  0.93476851  0.36217691  1
  O2-  O551  1  0.32191954  0.91942776  0.69744479  1
  O2-  O552  1  0.57720035  0.16291363  0.01288756  1
  O2-  O553  1  0.60124023  0.22821183  0.28811030  1
  O2-  O554  1  0.58510874  0.15662973  0.69246151  1
  O2-  O555  1  0.58084910  0.42689149  0.02870994  1
  O2-  O556  1  0.57612248  0.42909750  0.37345855  1
  O2-  O557  1  0.58571389  0.42019914  0.67927372  1
  O2-  O558  1  0.57246420  0.67345070  0.01587560  1
  O2-  O559  1  0.56519243  0.66211277  0.35172038  1
  O2-  O560  1  0.57677914  0.65352655  0.68557083  1
  O2-  O561  1  0.61250654  0.93146842  0.00806529  1
  O2-  O562  1  0.55859102  0.90863607  0.35985527  1
  O2-  O563  1  0.63852060  0.92740751  0.69728430  1
  O2-  O564  1  0.83888670  0.19108837  0.01297673  1
  O2-  O565  1  0.81992715  0.16259817  0.36028076  1
  O2-  O566  1  0.83887800  0.13772037  0.68298181  1
  O2-  O567  1  0.81935695  0.43388904  0.03526976  1
  O2-  O568  1  0.81307672  0.38255289  0.37361769  1
  O2-  O569  1  0.84833165  0.39890105  0.64836145  1
  O2-  O570  1  0.82049680  0.65615832  0.02632813  1
  O2-  O571  1  0.83802932  0.68290122  0.37659561  1
  O2-  O572  1  0.84442050  0.64048878  0.67647872  1
  O2-  O573  1  0.83876944  0.90942945  -0.00179361  1
  O2-  O574  1  0.82085557  0.93034397  0.33459647  1
  O2-  O575  1  0.79429759  0.91491993  0.70340915  1
