# generated using pymatgen
data_H2O
_symmetry_space_group_name_H-M   'P 1'
_cell_length_a   17.97099242
_cell_length_b   17.96301972
_cell_length_c   21.99006357
_cell_angle_alpha   90.08173539
_cell_angle_beta   89.96980367
_cell_angle_gamma   119.96205477
_symmetry_Int_Tables_number   1
_chemical_formula_structural   H2O
_chemical_formula_sum   'H384 O192'
_cell_volume   6149.98423991
_cell_formula_units_Z   192
loop_
 _symmetry_equiv_pos_site_id
 _symmetry_equiv_pos_as_xyz
  1  'x, y, z'
loop_
 _atom_type_symbol
 _atom_type_oxidation_number
  H+  1.0
  O2-  -2.0
loop_
 _atom_site_type_symbol
 _atom_site_label
 _atom_site_symmetry_multiplicity
 _atom_site_fract_x
 _atom_site_fract_y
 _atom_site_fract_z
 _atom_site_occupancy
  H+  H0  1  0.61356312  0.47867668  0.80684084  1
  H+  H1  1  0.88084228  0.39372088  0.15189465  1
  H+  H2  1  0.36436880  0.84234179  0.83622136  1
  H+  H3  1  0.33330795  0.83050176  0.13676052  1
  H+  H4  1  0.41746343  0.11096458  0.22394221  1
  H+  H5  1  0.49482104  0.36241777  0.60147016  1
  H+  H6  1  0.83732238  0.15948484  0.67719437  1
  H+  H7  1  1.02601206  0.88942164  0.99667834  1
  H+  H8  1  0.15307561  0.12204088  0.32017698  1
  H+  H9  1  0.89195114  0.62066656  0.66926955  1
  H+  H10  1  0.85109518  0.40569092  0.67018212  1
  H+  H11  1  0.11337137  0.47791969  0.99520241  1
  H+  H12  1  0.13231427  1.01936782  -0.01262706  1
  H+  H13  1  0.09959541  0.92229927  0.75902027  1
  H+  H14  1  0.15268975  0.27850237  0.16220410  1
  H+  H15  1  0.11162177  0.71591049  0.15773985  1
  H+  H16  1  0.39877629  1.01950727  0.35804442  1
  H+  H17  1  0.33512790  0.66037349  0.43049838  1
  H+  H18  1  0.37780281  0.21679098  0.34247047  1
  H+  H19  1  0.23989689  0.61137588  0.31713769  1
  H+  H20  1  0.25488275  0.86319428  0.99043087  1
  H+  H21  1  0.86941774  0.12032302  0.51229755  1
  H+  H22  1  1.00794228  0.37824598  0.31464839  1
  H+  H23  1  0.37996553  0.23154360  0.13142233  1
  H+  H24  1  1.11020907  0.46719185  0.66699246  1
  H+  H25  1  0.35247184  0.19022796  0.44873651  1
  H+  H26  1  0.13817360  0.49698097  0.50423692  1
  H+  H27  1  0.87520432  0.03759542  0.49394289  1
  H+  H28  1  0.14259010  1.01574353  0.83641175  1
  H+  H29  1  0.01388437  0.62009310  0.81191909  1
  H+  H30  1  0.38716341  0.24069191  0.51323323  1
  H+  H31  1  0.89140804  0.61081532  0.17348932  1
  H+  H32  1  0.41471220  0.06543378  0.05167273  1
  H+  H33  1  0.13796368  0.36723613  0.98483200  1
  H+  H34  1  0.35271650  0.95731741  0.82498062  1
  H+  H35  1  0.87641290  0.59063848  0.99804317  1
  H+  H36  1  0.68936149  0.08128116  0.68055725  1
  H+  H37  1  0.62140308  0.24241426  1.01188143  1
  H+  H38  1  1.11936658  0.13079728  0.67679110  1
  H+  H39  1  0.48985148  0.33193325  0.30885794  1
  H+  H40  1  0.87938020  0.38270506  0.00490387  1
  H+  H41  1  0.63723118  0.03669539  0.15810983  1
  H+  H42  1  0.77721760  0.90124749  -0.00378352  1
  H+  H43  1  0.88505683  0.50844788  0.83847508  1
  H+  H44  1  0.41354709  0.08164257  0.56937231  1
  H+  H45  1  0.50939544  0.12406091  0.68301072  1
  H+  H46  1  0.70638528  0.88939412  0.84982088  1
  H+  H47  1  0.86007513  0.39720221  0.49585269  1
  H+  H48  1  0.85917723  0.36943189  0.82877450  1
  H+  H49  1  0.61786670  0.72811792  0.16679467  1
  H+  H50  1  0.72870094  0.38293906  0.32782639  1
  H+  H51  1  0.28585314  0.38800842  0.15393534  1
  H+  H52  1  0.36329266  0.61984075  0.00190423  1
  H+  H53  1  0.15403874  0.05950597  0.51255469  1
  H+  H54  1  0.62754196  0.14847253  0.17472146  1
  H+  H55  1  0.92154613  0.83692631  0.87830603  1
  H+  H56  1  0.97576501  0.60947426  0.99642292  1
  H+  H57  1  0.77135949  0.14095906  0.00382873  1
  H+  H58  1  1.02359843  0.64449396  0.34210273  1
  H+  H59  1  0.38094908  0.76246951  0.98779476  1
  H+  H60  1  0.35422429  0.71802916  0.49029473  1
  H+  H61  1  0.11518062  0.13932687  0.99445186  1
  H+  H62  1  0.36102807  0.24584001  0.69096154  1
  H+  H63  1  0.88638792  0.27393953  -0.00523452  1
  H+  H64  1  0.95826587  0.96326621  0.57011184  1
  H+  H65  1  0.88002243  0.48041340  1.00413984  1
  H+  H66  1  0.08369753  0.91241531  0.05740013  1
  H+  H67  1  0.60178293  0.08963305  0.68267191  1
  H+  H68  1  0.60599422  0.19923831  0.67594554  1
  H+  H69  1  0.38376357  0.12330997  0.66172776  1
  H+  H70  1  0.54835529  0.39547907  0.70817169  1
  H+  H71  1  0.84741239  -0.03220560  0.15490155  1
  H+  H72  1  0.87035190  0.91355853  0.49808135  1
  H+  H73  1  0.34897064  0.86126267  -0.00878615  1
  H+  H74  1  0.40834481  1.04969541  0.89929814  1
  H+  H75  1  0.82313316  0.35757175  0.36074392  1
  H+  H76  1  0.25271877  0.12637575  -0.01026185  1
  H+  H77  1  0.60871272  0.38886733  0.81361746  1
  H+  H78  1  0.38104987  0.72879586  0.34334829  1
  H+  H79  1  0.58987767  0.95853034  0.68129605  1
  H+  H80  1  0.12066990  0.23230498  -0.00422543  1
  H+  H81  1  0.80982641  0.06333761  0.69350337  1
  H+  H82  1  0.34157349  0.49099592  0.48931751  1
  H+  H83  1  0.55054710  0.39722191  1.01178238  1
  H+  H84  1  0.89593134  0.21492843  0.39720819  1
  H+  H85  1  0.74254708  0.90924796  0.65384181  1
  H+  H86  1  0.99235906  0.36969680  0.15699239  1
  H+  H87  1  0.98772882  0.77776134  0.39623807  1
  H+  H88  1  0.86776670  0.85778902  0.32299674  1
  H+  H89  1  0.11447587  0.21411025  0.82152419  1
  H+  H90  1  0.65671643  0.09317657  0.94501689  1
  H+  H91  1  0.35484141  1.00113613  0.16221654  1
  H+  H92  1  0.63410940  0.03069623  1.00187776  1
  H+  H93  1  0.77217920  0.89163877  0.49253622  1
  H+  H94  1  0.86826016  0.99111664  -0.00193883  1
  H+  H95  1  0.85329612  0.74048084  0.65404553  1
  H+  H96  1  0.68320349  0.68150841  0.52443860  1
  H+  H97  1  -0.00156937  0.77318897  0.36384692  1
  H+  H98  1  0.24572245  0.85911490  0.32237918  1
  H+  H99  1  0.37648695  0.63792766  0.33807457  1
  H+  H100  1  0.21122277  0.59842315  0.82635692  1
  H+  H101  1  0.91910087  0.32337427  0.89800918  1
  H+  H102  1  0.87526838  0.86890114  0.79227177  1
  H+  H103  1  0.28439893  0.13929883  0.35210868  1
  H+  H104  1  0.36796947  0.02716304  0.66249526  1
  H+  H105  1  1.03410644  0.13845718  0.33758122  1
  H+  H106  1  0.58299793  0.91457630  0.44860334  1
  H+  H107  1  0.22889768  0.37067343  -0.01239679  1
  H+  H108  1  0.35967496  0.97301915  0.49776009  1
  H+  H109  1  0.72154705  0.32206183  0.65809927  1
  H+  H110  1  0.01791881  0.36960625  0.82846937  1
  H+  H111  1  0.83700619  0.10281319  0.84073124  1
  H+  H112  1  0.90033158  0.62420385  0.51148292  1
  H+  H113  1  0.72401742  0.86144775  0.16771327  1
  H+  H114  1  0.41024731  0.40492766  0.84027215  1
  H+  H115  1  0.23010345  0.37525866  0.82942898  1
  H+  H116  1  0.98138408  0.61036415  0.17066888  1
  H+  H117  1  0.81269184  0.67944169  0.50082634  1
  H+  H118  1  0.14169553  0.10531943  0.83609772  1
  H+  H119  1  0.09275259  0.42293738  0.05755572  1
  H+  H120  1  0.66967690  0.83877253  0.27059215  1
  H+  H121  1  0.75589711  0.71792820  0.57721528  1
  H+  H122  1  0.50801223  0.87749236  0.34625036  1
  H+  H123  1  0.38846154  0.11548016  0.51074972  1
  H+  H124  1  0.89644749  0.76638342  0.82538280  1
  H+  H125  1  0.72857064  0.12606621  0.15562669  1
  H+  H126  1  0.52498095  0.12443935  0.40196315  1
  H+  H127  1  0.39091645  0.61633314  0.50535336  1
  H+  H128  1  0.94626808  0.59748063  0.56785734  1
  H+  H129  1  0.87359865  0.28464737  0.52071971  1
  H+  H130  1  0.12691631  0.39035021  0.14939108  1
  H+  H131  1  0.10200008  0.18151355  0.39265826  1
  H+  H132  1  0.61094674  0.89398657  1.00254890  1
  H+  H133  1  0.51263227  0.12873319  0.49603096  1
  H+  H134  1  0.87846589  0.48364259  0.15396765  1
  H+  H135  1  0.78565783  0.83533754  0.76094000  1
  H+  H136  1  0.98313316  0.42001100  0.64881757  1
  H+  H137  1  0.37562384  0.47565329  0.15595556  1
  H+  H138  1  0.88770794  0.79064735  0.97767540  1
  H+  H139  1  0.24513329  0.10895584  0.15737833  1
  H+  H140  1  0.11420456  0.89014454  0.66833305  1
  H+  H141  1  0.85024104  0.62417129  0.33461247  1
  H+  H142  1  0.72897014  0.36729594  -0.01721227  1
  H+  H143  1  0.38327296  0.88769635  0.34917680  1
  H+  H144  1  0.60244679  0.46608939  0.66003226  1
  H+  H145  1  0.86411147  0.48817194  0.49881699  1
  H+  H146  1  0.63880777  0.26802008  0.49951901  1
  H+  H147  1  0.49518823  0.39655622  0.84274487  1
  H+  H148  1  0.37682895  0.63268837  0.16719766  1
  H+  H149  1  0.22196691  0.86793033  0.50601417  1
  H+  H150  1  0.20939717  0.34312069  0.49405549  1
  H+  H151  1  0.51875063  0.88763899  1.00116435  1
  H+  H152  1  0.54097423  0.39231701  0.14731845  1
  H+  H153  1  0.52496110  0.89306092  0.15987343  1
  H+  H154  1  0.13565959  0.85488289  0.16832423  1
  H+  H155  1  0.33763554  0.22370420  0.97751186  1
  H+  H156  1  0.68267288  0.55641672  0.59599168  1
  H+  H157  1  0.48529667  0.61119623  0.17516452  1
  H+  H158  1  0.39730980  0.52530053  0.32747241  1
  H+  H159  1  0.73326047  0.86789478  0.32792039  1
  H+  H160  1  0.15107928  0.99941219  0.33857397  1
  H+  H161  1  0.39846988  0.36093116  0.15946302  1
  H+  H162  1  0.60906795  0.86297293  0.84432618  1
  H+  H163  1  0.61873450  0.72926963  0.34230827  1
  H+  H164  1  0.68504931  0.53817195  0.54954293  1
  H+  H165  1  0.17261033  0.34515001  0.89396788  1
  H+  H166  1  0.52710289  0.72444023  0.04792497  1
  H+  H167  1  0.13008033  0.85076097  0.82581283  1
  H+  H168  1  0.60917035  0.72992081  0.81969222  1
  H+  H169  1  0.61949456  0.63850918  0.16336937  1
  H+  H170  1  0.33761858  -0.01547823  0.19355074  1
  H+  H171  1  0.87750776  1.00407650  0.64819440  1
  H+  H172  1  0.54934738  0.16746513  0.20879092  1
  H+  H173  1  0.89176310  0.88020365  0.97888041  1
  H+  H174  1  0.20925728  0.84446487  0.65773219  1
  H+  H175  1  0.87989633  0.82213014  0.61356699  1
  H+  H176  1  0.83586115  0.70496151  0.33441956  1
  H+  H177  1  0.41862584  0.36802564  0.57339411  1
  H+  H178  1  0.24143065  0.82762934  0.14008919  1
  H+  H179  1  0.89692209  0.25620538  0.33372660  1
  H+  H180  1  0.03429122  0.88538131  0.81519511  1
  H+  H181  1  0.85106841  0.10085363  0.17352190  1
  H+  H182  1  0.47921323  0.05596419  0.85350451  1
  H+  H183  1  0.74843845  0.13391928  0.53039144  1
  H+  H184  1  0.60786211  0.43082964  0.09094900  1
  H+  H185  1  0.64261348  0.61795390  0.82451617  1
  H+  H186  1  0.89106461  0.25602135  0.84250916  1
  H+  H187  1  0.12712689  0.76451289  -0.01357062  1
  H+  H188  1  0.12861559  0.59693024  0.64654878  1
  H+  H189  1  0.08904457  0.34619240  0.48451030  1
  H+  H190  1  0.64647612  0.38091407  -0.00967695  1
  H+  H191  1  0.63049360  0.51197472  0.98270892  1
  H+  H192  1  0.83290849  0.95699058  0.82621984  1
  H+  H193  1  0.92857044  0.10440230  0.92754441  1
  H+  H194  1  0.63613402  0.25229696  0.17828891  1
  H+  H195  1  0.66405281  0.12368319  0.39695685  1
  H+  H196  1  0.65349693  0.37942817  0.16415815  1
  H+  H197  1  0.91871484  0.57891951  0.26651941  1
  H+  H198  1  0.25841469  0.87000049  0.82081413  1
  H+  H199  1  0.89050443  0.52333823  0.32749541  1
  H+  H200  1  0.61399451  0.63693641  0.34366227  1
  H+  H201  1  0.24571627  0.14412950  0.51638870  1
  H+  H202  1  0.04787569  0.13940211  0.15086976  1
  H+  H203  1  0.28385282  0.12303620  0.82950646  1
  H+  H204  1  0.34526291  0.71169874  0.82407037  1
  H+  H205  1  0.10595047  0.33569692  0.64654558  1
  H+  H206  1  0.52784897  0.63898536  0.49779490  1
  H+  H207  1  0.16614566  0.56330392  0.59358006  1
  H+  H208  1  0.51525884  0.36741707  0.50192256  1
  H+  H209  1  0.86852168  0.98232393  0.34085091  1
  H+  H210  1  0.36813043  0.38879937  0.35696064  1
  H+  H211  1  0.78074930  0.63373467  0.81682685  1
  H+  H212  1  0.86329872  0.14392527  -0.00151968  1
  H+  H213  1  0.87241178  0.23392561  0.15126501  1
  H+  H214  1  0.35873305  0.48213882  0.81176289  1
  H+  H215  1  0.74068365  0.53296997  0.04397915  1
  H+  H216  1  0.12063844  0.59790004  0.81957077  1
  H+  H217  1  0.58496415  0.66653311  0.76058386  1
  H+  H218  1  0.45453069  0.84363198  0.83632590  1
  H+  H219  1  0.46414300  0.85403542  0.50700016  1
  H+  H220  1  0.63692587  0.86564439  0.17114412  1
  H+  H221  1  0.47328387  0.61265990  -0.00920044  1
  H+  H222  1  0.01349945  0.36959072  0.48666732  1
  H+  H223  1  0.10903349  0.74697774  0.49097686  1
  H+  H224  1  0.37823889  0.82853510  0.22242048  1
  H+  H225  1  0.63535951  0.89898314  0.35316863  1
  H+  H226  1  0.14657404  0.26956591  0.31626549  1
  H+  H227  1  0.15416799  0.52094404  0.31839958  1
  H+  H228  1  0.70970882  0.59483069  0.33105622  1
  H+  H229  1  0.35322665  0.89328334  0.67190180  1
  H+  H230  1  0.02752097  0.88585467  0.15413555  1
  H+  H231  1  0.22297461  0.61859176  0.96445568  1
  H+  H232  1  0.11586855  0.62875536  0.15657447  1
  H+  H233  1  0.60049426  0.34956420  0.48563400  1
  H+  H234  1  0.01769312  0.64693353  0.49399644  1
  H+  H235  1  1.00294647  0.08867033  0.63632345  1
  H+  H236  1  0.12527910  0.91580011  0.50330918  1
  H+  H237  1  0.12658964  0.47997801  0.15201236  1
  H+  H238  1  0.12641854  0.37471406  0.83102032  1
  H+  H239  1  0.55949112  0.96065642  0.83053778  1
  H+  H240  1  0.98639227  0.12791574  0.98665268  1
  H+  H241  1  0.61268735  0.09470109  0.52810892  1
  H+  H242  1  0.10129127  0.70877523  0.80623830  1
  H+  H243  1  0.22443861  0.58943464  0.50329330  1
  H+  H244  1  0.09868514  0.17044247  0.08866951  1
  H+  H245  1  -0.00324250  0.92186884  0.52484700  1
  H+  H246  1  0.97984083  0.36344696  0.99371877  1
  H+  H247  1  0.12542088  0.37921363  0.33248443  1
  H+  H248  1  0.37627768  0.58759279  0.66068273  1
  H+  H249  1  0.38781906  0.76339982  0.17753879  1
  H+  H250  1  0.26166060  0.61558005  0.66964695  1
  H+  H251  1  0.75177737  0.60926389  0.00804704  1
  H+  H252  1  0.61843861  0.62243490  0.67283234  1
  H+  H253  1  0.33159492  0.40451579  0.76210255  1
  H+  H254  1  0.59704294  0.96579504  0.51202389  1
  H+  H255  1  0.08732951  0.40193256  0.39248351  1
  H+  H256  1  0.73874072  0.59349312  0.65948784  1
  H+  H257  1  0.13236845  0.85680032  -0.01671558  1
  H+  H258  1  0.72682402  0.61287996  0.18151132  1
  H+  H259  1  0.52786799  0.61800543  0.67094801  1
  H+  H260  1  0.11039085  0.63423327  -0.00154881  1
  H+  H261  1  0.47717749  0.61557474  0.82838946  1
  H+  H262  1  0.72130549  0.36604811  0.49945789  1
  H+  H263  1  0.23336319  0.61087080  0.16849762  1
  H+  H264  1  0.16034562  0.11447858  0.16092019  1
  H+  H265  1  0.38844945  0.72582378  0.65388790  1
  H+  H266  1  0.86664663  0.62742753  0.82468016  1
  H+  H267  1  0.64002122  0.78985673  0.99548091  1
  H+  H268  1  0.74276972  0.37705020  0.16605089  1
  H+  H269  1  0.39010834  0.15057822  0.10690787  1
  H+  H270  1  0.62433860  0.15640564  1.02176946  1
  H+  H271  1  0.63604463  0.87547773  0.66200442  1
  H+  H272  1  0.11734025  0.75754081  0.64829459  1
  H+  H273  1  0.48656014  0.61573721  0.32909859  1
  H+  H274  1  0.23517506  0.35905776  0.31840538  1
  H+  H275  1  0.86429929  0.72314260  0.15830471  1
  H+  H276  1  0.60789281  0.58675336  -0.03044416  1
  H+  H277  1  1.15359404  0.18665338  0.49701753  1
  H+  H278  1  0.90478593  0.12765819  0.32904665  1
  H+  H279  1  0.77164918  0.37455779  0.83049069  1
  H+  H280  1  0.63521717  0.77588980  0.51326168  1
  H+  H281  1  0.88826826  0.86215675  0.16294898  1
  H+  H282  1  0.10472334  0.46659644  0.82231683  1
  H+  H283  1  0.34578087  0.37666186  -0.00486564  1
  H+  H284  1  0.37166283  0.12190968  0.82518866  1
  H+  H285  1  0.12072710  0.97127742  0.15231845  1
  H+  H286  1  0.63011204  0.86330084  0.51383065  1
  H+  H287  1  0.59429304  0.46607587  0.34424744  1
  H+  H288  1  0.91942223  0.57302729  0.89505310  1
  H+  H289  1  0.55848946  0.90055181  0.77196301  1
  H+  H290  1  0.35229260  0.62608340  0.82307661  1
  H+  H291  1  0.85100430  0.42090801  0.07032093  1
  H+  H292  1  0.07082862  0.90727529  0.34936902  1
  H+  H293  1  0.40497326  0.80906857  0.56338752  1
  H+  H294  1  0.06935501  0.40320977  0.72308530  1
  H+  H295  1  0.84090495  0.95380276  0.71254141  1
  H+  H296  1  0.51709940  0.85626074  0.67274424  1
  H+  H297  1  0.83216910  -0.02804741  0.89673302  1
  H+  H298  1  0.17790589  0.33490049  0.22290509  1
  H+  H299  1  0.83356836  0.91821302  0.09159126  1
  H+  H300  1  0.30030082  0.85944339  0.05813445  1
  H+  H301  1  0.40272969  0.81687943  0.92534888  1
  H+  H302  1  0.64483140  0.99106459  0.37324072  1
  H+  H303  1  0.31911252  0.64541103  0.73136640  1
  H+  H304  1  0.65124208  0.57135211  0.27189771  1
  H+  H305  1  0.83896841  0.17274919  0.09218477  1
  H+  H306  1  0.95761142  0.49181493  0.62894860  1
  H+  H307  1  0.66087138  0.33618274  0.89512325  1
  H+  H308  1  0.27807185  0.60310739  0.03599260  1
  H+  H309  1  0.11193955  0.95410580  0.44327660  1
  H+  H310  1  0.09777449  0.20702094  0.67140453  1
  H+  H311  1  0.35516923  0.66838799  0.10690388  1
  H+  H312  1  0.65934798  0.84102205  0.93193862  1
  H+  H313  1  0.85272604  0.64583653  0.72605301  1
  H+  H314  1  0.42793430  0.31763415  0.21188707  1
  H+  H315  1  0.67253512  0.84912816  0.59585039  1
  H+  H316  1  0.41839370  0.58037247  0.88783205  1
  H+  H317  1  0.55579493  0.38362563  0.42604169  1
  H+  H318  1  0.83434623  0.92095672  0.39984756  1
  H+  H319  1  0.15898396  0.83433028  0.56410300  1
  H+  H320  1  0.92911856  0.39493730  0.30921167  1
  H+  H321  1  0.64709965  0.15407091  0.85636334  1
  H+  H322  1  0.57812189  0.91677525  0.09802716  1
  H+  H323  1  0.16122500  0.07500224  0.92408213  1
  H+  H324  1  0.16809289  0.87586626  0.32428141  1
  H+  H325  1  0.79112492  0.02305818  0.21482107  1
  H+  H326  1  0.18630756  0.10528412  0.60642696  1
  H+  H327  1  0.83248001  0.42542543  0.40988602  1
  H+  H328  1  0.61241344  0.38750441  0.33974575  1
  H+  H329  1  0.33778055  0.41570333  0.06042563  1
  H+  H330  1  0.77563194  0.15140002  0.46416716  1
  H+  H331  1  0.63978034  0.52468946  0.17200965  1
  H+  H332  1  0.66586068  0.57901442  0.88111318  1
  H+  H333  1  0.62614843  0.27756001  0.83538914  1
  H+  H334  1  0.11671701  0.73052114  0.34016932  1
  H+  H335  1  0.91132325  0.83164088  0.22421134  1
  H+  H336  1  0.57456712  0.68030820  0.07579560  1
  H+  H337  1  0.17268513  0.82985061  0.22765713  1
  H+  H338  1  0.08569472  0.66114921  0.06254770  1
  H+  H339  1  0.34478805  0.17613907  0.74189580  1
  H+  H340  1  0.45765134  0.12047089  0.28974008  1
  H+  H341  1  0.25798422  0.47367442  0.45537051  1
  H+  H342  1  0.92429310  0.37281919  0.56059524  1
  H+  H343  1  0.18998590  0.09445553  0.26251272  1
  H+  H344  1  0.07909244  0.68267222  0.42615028  1
  H+  H345  1  0.35488003  0.88091385  0.50072251  1
  H+  H346  1  0.13055295  0.98634230  0.67239976  1
  H+  H347  1  0.50671957  0.14334227  0.06667153  1
  H+  H348  1  0.94403387  0.07665039  0.57445477  1
  H+  H349  1  0.07958020  0.14954107  0.76667889  1
  H+  H350  1  0.93735948  0.34440137  0.21795562  1
  H+  H351  1  0.33722596  0.90540786  0.40610242  1
  H+  H352  1  0.91148516  0.08264344  0.26933015  1
  H+  H353  1  0.29370821  0.27852634  0.92076575  1
  H+  H354  1  0.42497813  0.57866395  0.23420674  1
  H+  H355  1  0.75319097  0.13771556  0.36838910  1
  H+  H356  1  0.15194621  0.81271620  0.88457355  1
  H+  H357  1  0.46070017  0.24448164  0.27128848  1
  H+  H358  1  0.82364211  0.14152096  0.78070640  1
  H+  H359  1  0.93787499  0.83000356  0.32676517  1
  H+  H360  1  0.38956505  0.51774906  0.98681477  1
  H+  H361  1  0.15164023  0.57722311  0.91411204  1
  H+  H362  1  0.46750333  0.74994803  0.61168517  1
  H+  H363  1  0.58951152  0.67363935  0.44001957  1
  H+  H364  1  0.24239357  0.12860981  0.66797716  1
  H+  H365  1  0.05295429  0.63928456  0.70789696  1
  H+  H366  1  0.17413581  0.57754634  0.22741059  1
  H+  H367  1  0.81298871  0.39857432  0.73601390  1
  H+  H368  1  0.67898149  0.35910391  0.26469895  1
  H+  H369  1  0.83837488  0.65671959  0.43725605  1
  H+  H370  1  0.32198577  0.42598490  0.39929168  1
  H+  H371  1  0.39385307  0.10706699  0.36791271  1
  H+  H372  1  0.38825590  0.50669743  0.64518214  1
  H+  H373  1  0.56344625  0.04610359  0.27806973  1
  H+  H374  1  0.63165779  0.06087948  0.59153805  1
  H+  H375  1  0.39619902  0.33899592  0.91236028  1
  H+  H376  1  0.32988155  0.17297474  0.04631020  1
  H+  H377  1  0.65897611  0.30091131  0.60184293  1
  H+  H378  1  0.13396091  0.29648821  0.59208780  1
  H+  H379  1  0.31711261  0.90926362  0.73285782  1
  H+  H380  1  0.82050005  0.64702444  0.10802731  1
  H+  H381  1  0.41619866  0.57933365  0.56424369  1
  H+  H382  1  0.59395383  0.02951429  0.27378377  1
  H+  H383  1  0.46457186  0.84645799  0.28282937  1
  O2-  O384  1  0.10585816  0.17032959  0.13411663  1
  O2-  O385  1  0.13848064  0.22204864  0.46925648  1
  O2-  O386  1  0.08733157  0.15290630  0.81201364  1
  O2-  O387  1  0.09675509  0.42049635  0.13345440  1
  O2-  O388  1  0.07163689  0.38740519  0.46956072  1
  O2-  O389  1  0.07971352  0.40299715  0.81209892  1
  O2-  O390  1  0.08296473  0.65632115  0.14062668  1
  O2-  O391  1  0.07919503  0.68540717  0.47458465  1
  O2-  O392  1  0.07135796  0.64800608  0.79149110  1
  O2-  O393  1  0.08692761  0.91100624  0.13715176  1
  O2-  O394  1  0.10480879  0.95467449  0.48776231  1
  O2-  O395  1  0.09686337  0.91628131  0.80572890  1
  O2-  O396  1  0.34811194  0.17264981  0.11235940  1
  O2-  O397  1  0.35099417  0.18415646  0.49397054  1
  O2-  O398  1  0.34392413  0.15552687  0.81471020  1
  O2-  O399  1  0.34607041  0.41664221  0.13777520  1
  O2-  O400  1  0.29071892  0.44524064  0.46527232  1
  O2-  O401  1  0.32454542  0.41832743  0.80480095  1
  O2-  O402  1  0.34888787  0.66613787  0.15157238  1
  O2-  O403  1  0.33176081  0.65766622  0.47609013  1
  O2-  O404  1  0.31614517  0.65062147  0.80866104  1
  O2-  O405  1  0.28241695  0.82038301  0.11263027  1
  O2-  O406  1  0.32719631  0.91244403  0.48271043  1
  O2-  O407  1  0.31979825  0.89847782  0.80639082  1
  O2-  O408  1  0.59733000  0.18638998  0.17794167  1
  O2-  O409  1  0.57713207  0.15735043  0.48556584  1
  O2-  O410  1  0.55536453  0.03540832  0.85180325  1
  O2-  O411  1  0.60340572  0.42743253  0.13800358  1
  O2-  O412  1  0.54775371  0.35633175  0.46841615  1
  O2-  O413  1  0.57614835  0.41604747  0.79833700  1
  O2-  O414  1  0.58813693  0.66873237  0.14917180  1
  O2-  O415  1  0.58869924  0.67666975  0.48522345  1
  O2-  O416  1  0.58202907  0.66909944  0.80682219  1
  O2-  O417  1  0.58388990  0.92033629  0.14350193  1
  O2-  O418  1  0.57104990  0.90675424  0.49335146  1
  O2-  O419  1  0.55143850  0.90014705  0.81680694  1
  O2-  O420  1  0.83683734  0.17279767  0.13781784  1
  O2-  O421  1  0.80115665  0.16799682  0.50521469  1
  O2-  O422  1  0.84142884  0.15535005  0.82372868  1
  O2-  O423  1  0.84982541  0.42356752  0.13561001  1
  O2-  O424  1  0.82940647  0.42831444  0.48207249  1
  O2-  O425  1  0.83297151  0.40477534  0.81746053  1
  O2-  O426  1  0.83258860  0.65945286  0.15208266  1
  O2-  O427  1  0.85755100  0.67115662  0.47965966  1
  O2-  O428  1  0.84331187  0.66236556  0.80642048  1
  O2-  O429  1  0.82948775  0.91051368  0.13650812  1
  O2-  O430  1  0.82981447  0.92569535  0.47384412  1
  O2-  O431  1  0.83664140  0.88850010  0.77338879  1
  O2-  O432  1  0.18777685  0.08231446  0.17706087  1
  O2-  O433  1  0.18427781  0.11993010  0.52829424  1
  O2-  O434  1  0.17126329  0.07530996  0.85447301  1
  O2-  O435  1  0.18018025  0.33862304  0.17730568  1
  O2-  O436  1  0.15115255  0.29586375  0.50632600  1
  O2-  O437  1  0.16903509  0.34544124  0.84774486  1
  O2-  O438  1  0.17209182  0.57954696  0.18072931  1
  O2-  O439  1  0.16721217  0.55501389  0.52238489  1
  O2-  O440  1  0.14902480  0.56738950  0.83946586  1
  O2-  O441  1  0.16305568  0.82150188  0.18269722  1
  O2-  O442  1  0.16028463  0.84154507  0.51845771  1
  O2-  O443  1  0.15427153  0.81296717  0.83956099  1
  O2-  O444  1  0.46700747  0.15010273  0.24862733  1
  O2-  O445  1  0.41558142  0.08092314  0.52348683  1
  O2-  O446  1  0.42139656  0.05494854  0.85600843  1
  O2-  O447  1  0.42898475  0.32808335  0.16727405  1
  O2-  O448  1  0.45914240  0.34830356  0.56303790  1
  O2-  O449  1  0.44966103  0.39887872  0.86849567  1
  O2-  O450  1  0.42364705  0.57857589  0.18845764  1
  O2-  O451  1  0.41780487  0.58156224  0.51850052  1
  O2-  O452  1  0.41563519  0.58266341  0.84284372  1
  O2-  O453  1  0.40941430  0.82646355  0.18668291  1
  O2-  O454  1  0.40203749  0.82230722  0.51981713  1
  O2-  O455  1  0.39305837  0.81089294  0.85282728  1
  O2-  O456  1  0.66826978  0.09796775  0.17063501  1
  O2-  O457  1  0.63916787  0.06272917  0.54586784  1
  O2-  O458  1  0.64279027  0.10061745  0.87060325  1
  O2-  O459  1  0.68403304  0.35056470  0.18347586  1
  O2-  O460  1  0.65894093  0.32930174  0.50995489  1
  O2-  O461  1  0.66365654  0.33642737  0.84900223  1
  O2-  O462  1  0.66447315  0.58272829  0.19202289  1
  O2-  O463  1  0.74399857  0.70258693  0.53377208  1
  O2-  O464  1  0.67236200  0.58564381  0.83609100  1
  O2-  O465  1  0.66662806  0.83557990  0.18780227  1
  O2-  O466  1  0.66527264  0.83731692  0.52850137  1
  O2-  O467  1  0.64832361  0.84037896  0.85768592  1
  O2-  O468  1  0.84914355  0.05189369  0.19780790  1
  O2-  O469  1  0.90860801  0.09657834  0.51092077  1
  O2-  O470  1  0.81731219  -0.01294441  0.85780862  1
  O2-  O471  1  0.93165573  0.34168303  0.17272507  1
  O2-  O472  1  0.91424177  0.34744833  0.51831780  1
  O2-  O473  1  0.92136433  0.31965422  0.85310189  1
  O2-  O474  1  0.92067330  0.57823252  0.18621207  1
  O2-  O475  1  0.93397462  0.59364499  0.52249449  1
  O2-  O476  1  0.91697572  0.57107723  0.85023053  1
  O2-  O477  1  0.91908173  0.83308074  0.17926727  1
  O2-  O478  1  0.94326818  0.91126912  0.54509569  1
  O2-  O479  1  0.92537147  0.83017251  0.83400859  1
  O2-  O480  1  0.18786139  0.09509416  0.30766475  1
  O2-  O481  1  0.18282692  0.09446540  0.65111666  1
  O2-  O482  1  0.16069330  0.07967384  0.97107419  1
  O2-  O483  1  0.17628842  0.33014076  0.30067000  1
  O2-  O484  1  0.13216957  0.30013266  0.63650567  1
  O2-  O485  1  0.17013409  0.33903526  0.96848464  1
  O2-  O486  1  0.18220143  0.57782761  0.29856622  1
  O2-  O487  1  0.16388662  0.56923776  0.63974116  1
  O2-  O488  1  0.16058690  0.58326475  0.95986451  1
  O2-  O489  1  0.18634541  0.83674434  0.30625058  1
  O2-  O490  1  0.15199071  0.81973037  0.63801334  1
  O2-  O491  1  0.15975061  0.82344125  0.96812962  1
  O2-  O492  1  0.43332676  0.08426340  0.35850803  1
  O2-  O493  1  0.40506769  0.08540262  0.64551472  1
  O2-  O494  1  0.44597139  0.10796263  1.08310263  1
  O2-  O495  1  0.44144138  0.28485012  0.28517694  1
  O2-  O496  1  0.34976323  0.35543853  0.69321424  1
  O2-  O497  1  0.34632689  0.30089715  0.94478991  1
  O2-  O498  1  0.42681571  0.58489988  0.31123941  1
  O2-  O499  1  0.41429633  0.56971253  0.64004523  1
  O2-  O500  1  0.41639533  0.57820067  0.97083473  1
  O2-  O501  1  0.44987783  0.84427682  0.32579451  1
  O2-  O502  1  0.43623722  0.77582848  0.62998347  1
  O2-  O503  1  0.40552615  0.82138844  0.97181393  1
  O2-  O504  1  0.70303582  0.09958333  0.39357278  1
  O2-  O505  1  0.62923064  0.05399792  0.66565676  1
  O2-  O506  1  0.66793925  0.09212087  0.98973668  1
  O2-  O507  1  0.67088114  0.35494005  0.30943816  1
  O2-  O508  1  0.67626644  0.27356175  0.63268241  1
  O2-  O509  1  0.66916291  0.34291273  0.96986059  1
  O2-  O510  1  0.64829411  0.56926564  0.31728771  1
  O2-  O511  1  0.67984123  0.57180902  0.64289002  1
  O2-  O512  1  0.65138239  0.57100574  0.96090839  1
  O2-  O513  1  0.67105574  0.83775372  0.31579511  1
  O2-  O514  1  0.68042080  0.86118496  0.64266321  1
  O2-  O515  1  0.67093934  0.84819076  0.97741202  1
  O2-  O516  1  0.92661421  0.09007139  0.31317044  1
  O2-  O517  1  0.95554457  0.04629239  0.60881039  1
  O2-  O518  1  0.92503178  0.09855170  0.97178210  1
  O2-  O519  1  0.94701047  0.35390004  0.29692793  1
  O2-  O520  1  0.94090514  0.42874957  0.62529294  1
  O2-  O521  1  0.91809969  0.33605785  0.98031442  1
  O2-  O522  1  0.91666944  0.58256066  0.31177240  1
  O2-  O523  1  0.96860501  0.58846557  0.64070842  1
  O2-  O524  1  0.91526196  0.57101111  0.98130786  1
  O2-  O525  1  0.88689383  0.81869894  0.30385336  1
  O2-  O526  1  0.83639097  0.78326639  0.64274794  1
  O2-  O527  1  0.92235429  0.84976002  0.96351678  1
  O2-  O528  1  0.08856600  0.17228763  0.01198320  1
  O2-  O529  1  0.09645098  0.16980469  0.34826718  1
  O2-  O530  1  0.07536176  0.14737143  0.68823600  1
  O2-  O531  1  0.08587268  0.41853295  0.01181363  1
  O2-  O532  1  0.09529107  0.41008139  0.34735580  1
  O2-  O533  1  0.06792254  0.40622551  0.67851774  1
  O2-  O534  1  0.08053468  0.66281467  0.01702066  1
  O2-  O535  1  0.08100225  0.67543222  0.36179507  1
  O2-  O536  1  0.05943321  0.64387807  0.66270913  1
  O2-  O537  1  0.08615331  0.91549875  0.01184470  1
  O2-  O538  1  0.13130267  0.94267463  0.35975917  1
  O2-  O539  1  0.09581842  0.92715175  0.68893745  1
  O2-  O540  1  0.31821548  0.16555386  -0.00070815  1
  O2-  O541  1  0.34264206  0.16793792  0.37077964  1
  O2-  O542  1  0.34363953  0.18496688  0.69647766  1
  O2-  O543  1  0.33085487  0.41746033  0.01506900  1
  O2-  O544  1  0.33512831  0.41837159  0.35573377  1
  O2-  O545  1  0.35484051  0.39181441  0.64112939  1
  O2-  O546  1  0.33365766  0.64939886  0.02203371  1
  O2-  O547  1  0.34503178  0.66716499  0.35350935  1
  O2-  O548  1  0.32182492  0.64019274  0.68614360  1
  O2-  O549  1  0.31356704  0.88536586  0.01138975  1
  O2-  O550  1  0.34551489  0.91121512  0.36073799  1
  O2-  O551  1  0.31532782  0.91342653  0.68686615  1
  O2-  O552  1  0.60376550  0.19331776  0.03991331  1
  O2-  O553  1  0.58509458  0.15276538  0.41897126  1
  O2-  O554  1  0.56719296  0.14636954  0.70084186  1
  O2-  O555  1  0.61196370  0.43263272  0.01990998  1
  O2-  O556  1  0.56949877  0.40416587  0.35642253  1
  O2-  O557  1  0.55661040  0.40478849  0.66403128  1
  O2-  O558  1  0.55805023  0.69513907  0.03541562  1
  O2-  O559  1  0.58603159  0.66977149  0.35887909  1
  O2-  O560  1  0.58614358  0.64994107  0.68844574  1
  O2-  O561  1  0.57641607  0.91857059  0.02020075  1
  O2-  O562  1  0.60599857  0.92734528  0.37344165  1
  O2-  O563  1  0.57312363  0.89636366  0.69252053  1
  O2-  O564  1  0.83439841  0.17406416  0.01581256  1
  O2-  O565  1  0.87263688  0.20016937  0.35606301  1
  O2-  O566  1  0.79696502  0.11087541  0.70178844  1
  O2-  O567  1  0.85042452  0.41823300  0.02172812  1
  O2-  O568  1  0.83285771  0.41589880  0.36388142  1
  O2-  O569  1  0.80063048  0.40018682  0.69252669  1
  O2-  O570  1  0.78523545  0.59252343  0.03520316  1
  O2-  O571  1  0.81328413  0.64650425  0.35100854  1
  O2-  O572  1  0.85121526  0.64051531  0.68113821  1
  O2-  O573  1  0.83932200  0.92893602  0.00876408  1
  O2-  O574  1  0.83557917  0.92098444  0.35367645  1
  O2-  O575  1  0.82561090  0.97948792  0.67815941  1
