# generated using pymatgen
data_H2O
_symmetry_space_group_name_H-M   'P 1'
_cell_length_a   17.97610748
_cell_length_b   17.97405387
_cell_length_c   21.99901842
_cell_angle_alpha   90.00930002
_cell_angle_beta   90.02607138
_cell_angle_gamma   119.96672285
_symmetry_Int_Tables_number   1
_chemical_formula_structural   H2O
_chemical_formula_sum   'H384 O192'
_cell_volume   6157.73609842
_cell_formula_units_Z   192
loop_
 _symmetry_equiv_pos_site_id
 _symmetry_equiv_pos_as_xyz
  1  'x, y, z'
loop_
 _atom_type_symbol
 _atom_type_oxidation_number
  H+  1.0
  O2-  -2.0
loop_
 _atom_site_type_symbol
 _atom_site_label
 _atom_site_symmetry_multiplicity
 _atom_site_fract_x
 _atom_site_fract_y
 _atom_site_fract_z
 _atom_site_occupancy
  H+  H0  1  0.13365882  0.77024735  0.99495147  1
  H+  H1  1  0.13787536  0.28155063  0.50980151  1
  H+  H2  1  0.77963424  0.12072351  0.67405497  1
  H+  H3  1  0.65032330  0.35940663  0.16990848  1
  H+  H4  1  0.85999259  0.63400617  0.34266326  1
  H+  H5  1  0.59952427  -0.04157443  0.17209408  1
  H+  H6  1  0.22677661  0.36472887  0.33122268  1
  H+  H7  1  1.03537122  0.43240787  0.17553289  1
  H+  H8  1  0.47457820  0.36459721  0.32841300  1
  H+  H9  1  0.85154501  0.62362694  0.49045330  1
  H+  H10  1  0.38996571  0.29820627  0.67263201  1
  H+  H11  1  0.22975614  0.61033078  0.23613306  1
  H+  H12  1  0.37652176  0.87971782  0.65845828  1
  H+  H13  1  0.35598244  0.61882483  0.49768132  1
  H+  H14  1  0.92022928  0.80666356  0.97879705  1
  H+  H15  1  0.64124301  0.10261008  0.18105604  1
  H+  H16  1  0.22466296  0.37533449  0.17714833  1
  H+  H17  1  0.36895234  0.86336078  0.48709727  1
  H+  H18  1  0.89760257  0.91168232  1.01018720  1
  H+  H19  1  0.89080172  0.37999562  0.84547231  1
  H+  H20  1  0.86014398  0.21383918  1.01828393  1
  H+  H21  1  0.63128669  0.27305379  0.50444410  1
  H+  H22  1  0.09336839  0.93137958  0.11283061  1
  H+  H23  1  0.87449820  0.21282013  0.36583457  1
  H+  H24  1  0.37075871  0.86049900  0.01474497  1
  H+  H25  1  0.85896744  0.39756549  0.33666944  1
  H+  H26  1  0.32531082  0.91593214  0.27899133  1
  H+  H27  1  0.60993108  0.63630928  0.33978606  1
  H+  H28  1  0.12242830  -0.01791348  0.81629124  1
  H+  H29  1  0.10665957  0.18590125  0.01199235  1
  H+  H30  1  0.41554394  0.59362225  0.61181574  1
  H+  H31  1  0.04136744  0.14667125  0.67845409  1
  H+  H32  1  0.76739857  0.38721774  0.49243356  1
  H+  H33  1  0.08426341  0.57662672  0.84029646  1
  H+  H34  1  0.17155182  0.09170485  0.57384681  1
  H+  H35  1  0.02823262  0.39738486  0.50201616  1
  H+  H36  1  0.74477406  0.08369447  0.15848930  1
  H+  H37  1  0.65265389  -0.00716314  0.83447126  1
  H+  H38  1  0.66126846  0.82041976  0.95126040  1
  H+  H39  1  0.27406569  0.88958123  0.16519061  1
  H+  H40  1  0.62701654  0.48477019  0.17561784  1
  H+  H41  1  0.60986858  0.59628148  0.85094465  1
  H+  H42  1  0.03053243  0.39047600  0.65995066  1
  H+  H43  1  0.14279275  0.56225219  0.93376273  1
  H+  H44  1  0.86416797  0.89068971  0.33725828  1
  H+  H45  1  0.52755420  0.88459217  0.34506972  1
  H+  H46  1  0.39682904  0.76945093  0.66693605  1
  H+  H47  1  0.37191879  0.51688513  0.16784065  1
  H+  H48  1  0.50659465  0.84775799  0.51039557  1
  H+  H49  1  0.27051120  0.13334514  0.17373885  1
  H+  H50  1  0.62178154  0.75773680  0.18233360  1
  H+  H51  1  0.81050850  0.15645040  0.83373375  1
  H+  H52  1  0.86327500  0.96557195  0.49485520  1
  H+  H53  1  0.48391976  0.41795093  -0.00165550  1
  H+  H54  1  0.73953597  0.36020389  0.17007276  1
  H+  H55  1  0.96372325  0.01583910  0.14829352  1
  H+  H56  1  0.51015814  0.86936857  0.17004910  1
  H+  H57  1  0.60211649  0.91326878  0.73966499  1
  H+  H58  1  0.66661267  0.86911841  0.66478028  1
  H+  H59  1  0.91297433  0.59102619  0.27050339  1
  H+  H60  1  0.11178147  0.65192357  0.33892556  1
  H+  H61  1  0.24102487  0.30923545  0.01160384  1
  H+  H62  1  0.82564448  0.41889618  0.43233543  1
  H+  H63  1  0.11620754  0.66876158  0.07851252  1
  H+  H64  1  0.62093571  0.47577068  0.01659975  1
  H+  H65  1  0.09639159  0.70724764  0.81889366  1
  H+  H66  1  0.62092680  0.72185989  0.01853589  1
  H+  H67  1  0.26877728  0.38260276  0.82347283  1
  H+  H68  1  0.36702348  0.97596752  0.16222231  1
  H+  H69  1  0.62503932  0.84821421  0.18132414  1
  H+  H70  1  0.89621122  0.24551502  0.82923825  1
  H+  H71  1  0.44130086  0.82032524  0.60591922  1
  H+  H72  1  0.36225702  0.50094083  0.67452357  1
  H+  H73  1  0.73033655  0.10565457  0.33451578  1
  H+  H74  1  0.14832988  0.86439840  -0.01195381  1
  H+  H75  1  0.30974592  1.00844155  0.83611184  1
  H+  H76  1  0.29408060  -0.00973654  0.86717678  1
  H+  H77  1  0.61453880  0.73102146  0.48946602  1
  H+  H78  1  0.49937171  0.87218293  0.85225447  1
  H+  H79  1  0.62419809  0.02035615  0.51118762  1
  H+  H80  1  0.27722775  0.21916640  0.03793626  1
  H+  H81  1  0.61726051  0.13721506  0.34119035  1
  H+  H82  1  0.36855049  0.52178965  0.84480423  1
  H+  H83  1  0.96638763  0.61271481  0.65518504  1
  H+  H84  1  0.51381981  0.62388436  0.16277175  1
  H+  H85  1  0.85596743  0.64559217  0.80982692  1
  H+  H86  1  0.70443007  0.36948737  0.65631479  1
  H+  H87  1  0.86402087  0.74970896  0.66492241  1
  H+  H88  1  0.12468442  0.23881699  0.67511125  1
  H+  H89  1  0.25054006  0.90980996  0.47093053  1
  H+  H90  1  0.65659443  0.31657577  0.96748447  1
  H+  H91  1  0.47180262  0.10975756  0.50097917  1
  H+  H92  1  0.47933909  0.11063104  0.17127599  1
  H+  H93  1  0.54854416  0.11853440  0.79797743  1
  H+  H94  1  1.01691603  0.37478025  0.34881856  1
  H+  H95  1  0.97577622  0.00944862  0.54510945  1
  H+  H96  1  0.62681994  0.22170957  0.15575832  1
  H+  H97  1  0.11051887  0.63973403  0.49596424  1
  H+  H98  1  0.84918937  0.10829668  0.16059231  1
  H+  H99  1  0.12295101  0.39555309  0.66234419  1
  H+  H100  1  0.76621448  0.38936967  0.33597756  1
  H+  H101  1  0.14014281  0.86651600  0.17657033  1
  H+  H102  1  0.38519297  0.51798233  0.51116794  1
  H+  H103  1  0.13169454  0.77797206  0.50131377  1
  H+  H104  1  0.88640115  0.77281648  0.49786363  1
  H+  H105  1  0.27669245  0.14805998  0.50897873  1
  H+  H106  1  0.51364193  0.93666681  0.47079019  1
  H+  H107  1  0.34434160  0.34893171  1.01215667  1
  H+  H108  1  0.41224297  0.07520105  0.95151072  1
  H+  H109  1  0.72817805  0.62123986  0.17646711  1
  H+  H110  1  0.68252495  0.13244234  0.83389010  1
  H+  H111  1  0.24266598  0.66919785  0.13721361  1
  H+  H112  1  0.11718588  0.39461578  0.50129069  1
  H+  H113  1  0.63701506  0.86141007  0.33566072  1
  H+  H114  1  0.14266370  0.52476319  0.51270915  1
  H+  H115  1  0.13431824  0.02787487  0.33679433  1
  H+  H116  1  0.37545545  0.71244497  0.50275219  1
  H+  H117  1  0.81200089  0.23854650  0.17349763  1
  H+  H118  1  0.37841620  0.27393028  0.17727257  1
  H+  H119  1  0.27881969  0.45446595  0.09231974  1
  H+  H120  1  0.63566114  0.52384065  0.32924707  1
  H+  H121  1  0.60831334  0.13447601  0.49866231  1
  H+  H122  1  0.13605883  0.50919506  0.99299543  1
  H+  H123  1  0.39335144  0.12140377  0.32251755  1
  H+  H124  1  0.63402776  0.61262074  0.17705251  1
  H+  H125  1  0.27886005  0.13534762  0.33835245  1
  H+  H126  1  0.80624085  0.39784025  0.00396529  1
  H+  H127  1  0.12798299  0.86571317  0.50568021  1
  H+  H128  1  0.16451502  0.83025932  0.59388868  1
  H+  H129  1  0.50179821  0.62841308  0.83669315  1
  H+  H130  1  0.82923068  0.24994211  0.14164717  1
  H+  H131  1  0.23338697  0.38510327  0.66066158  1
  H+  H132  1  0.66126565  0.82844594  0.27425360  1
  H+  H133  1  0.80387731  0.87574033  0.66221174  1
  H+  H134  1  0.91960486  1.00139971  0.16064031  1
  H+  H135  1  0.89008759  0.53545146  0.18129874  1
  H+  H136  1  0.17073336  0.34650723  0.24154483  1
  H+  H137  1  0.47353421  0.09045955  1.00636092  1
  H+  H138  1  0.39098198  0.16433187  0.87982941  1
  H+  H139  1  0.45634026  0.36708386  0.16775796  1
  H+  H140  1  0.36113733  0.85154993  0.81717547  1
  H+  H141  1  0.00501213  0.89645270  -0.00809728  1
  H+  H142  1  0.63653244  0.27120575  0.32358399  1
  H+  H143  1  0.83596843  0.98251049  0.81650528  1
  H+  H144  1  0.37388776  0.63726487  0.67779321  1
  H+  H145  1  0.22557021  0.85508706  0.65124450  1
  H+  H146  1  0.11118873  -0.01837844  0.50089195  1
  H+  H147  1  0.13685212  0.34133455  0.99354306  1
  H+  H148  1  0.02703244  0.88963552  0.16831773  1
  H+  H149  1  0.35964645  0.63016533  0.34607171  1
  H+  H150  1  0.22828988  0.36993553  0.50723468  1
  H+  H151  1  0.09964677  0.88946381  0.66260055  1
  H+  H152  1  0.93131807  0.78455739  0.83470526  1
  H+  H153  1  0.86842648  0.73213207  0.16686090  1
  H+  H154  1  0.14676007  0.42188185  0.16708644  1
  H+  H155  1  0.75075607  0.84125753  0.15675587  1
  H+  H156  1  0.98612297  0.11754057  0.33324374  1
  H+  H157  1  0.47352180  0.60831981  0.50695233  1
  H+  H158  1  0.39766299  1.03367838  0.32416186  1
  H+  H159  1  1.03802662  0.15566363  0.17247511  1
  H+  H160  1  0.36159860  0.38801162  0.49963247  1
  H+  H161  1  0.52955200  0.14024118  0.33878420  1
  H+  H162  1  0.37516993  0.73227763  0.83172681  1
  H+  H163  1  0.11578263  0.13855641  0.34641067  1
  H+  H164  1  0.72588516  0.63685539  0.65270217  1
  H+  H165  1  0.35916471  0.47150275  0.34386841  1
  H+  H166  1  0.87225743  0.12619342  0.34903189  1
  H+  H167  1  0.76438571  0.88623840  0.82715234  1
  H+  H168  1  0.89608656  0.66249708  0.96909965  1
  H+  H169  1  0.63249865  0.84762382  0.86324626  1
  H+  H170  1  0.13047552  0.33781929  0.83210264  1
  H+  H171  1  0.39104574  0.38999787  0.83982186  1
  H+  H172  1  0.35859134  0.25721363  0.84926225  1
  H+  H173  1  0.66821304  0.33149473  0.87311070  1
  H+  H174  1  0.89589829  0.02580391  0.32516335  1
  H+  H175  1  0.38371633  0.28037132  0.51869868  1
  H+  H176  1  0.85371966  0.01196314  0.98431674  1
  H+  H177  1  0.86227561  0.65900321  0.66514552  1
  H+  H178  1  0.10529928  0.49951586  0.83874866  1
  H+  H179  1  1.03314809  0.37403091  1.01454567  1
  H+  H180  1  0.35932761  0.38240230  0.34397139  1
  H+  H181  1  0.88978132  0.62295180  0.18116119  1
  H+  H182  1  0.36128734  0.40847592  0.67425298  1
  H+  H183  1  0.61090288  0.47777024  0.48947236  1
  H+  H184  1  0.46342378  0.14522823  0.85917458  1
  H+  H185  1  0.28621358  0.16139491  0.68637937  1
  H+  H186  1  0.36108135  0.13535990  0.16289413  1
  H+  H187  1  0.85634805  0.22456782  0.49802837  1
  H+  H188  1  0.47738843  0.38278687  0.84014090  1
  H+  H189  1  0.38819799  0.76687577  0.33603057  1
  H+  H190  1  0.87800194  0.85631528  0.49463752  1
  H+  H191  1  0.12716557  0.61695738  0.65400228  1
  H+  H192  1  0.24265237  0.64842197  0.32802027  1
  H+  H193  1  0.89118358  0.41919486  0.16646975  1
  H+  H194  1  0.11006115  0.72419987  0.66484602  1
  H+  H195  1  0.26963419  0.16762272  0.85019068  1
  H+  H196  1  0.84933861  0.24646006  0.65255764  1
  H+  H197  1  0.37551685  0.60502563  0.17560681  1
  H+  H198  1  0.75435986  0.62624359  0.49183548  1
  H+  H199  1  0.88417181  0.77433156  0.33395603  1
  H+  H200  1  0.76215427  0.37236152  0.81128193  1
  H+  H201  1  0.30431031  0.38366710  0.09376465  1
  H+  H202  1  0.77525947  0.89162643  0.33691521  1
  H+  H203  1  0.49699192  0.76502903  0.55004264  1
  H+  H204  1  0.65455556  0.61541841  0.00328804  1
  H+  H205  1  0.64087040  0.62423366  0.49874891  1
  H+  H206  1  0.85037177  0.47405951  0.66723707  1
  H+  H207  1  0.17977365  0.52007783  0.14645347  1
  H+  H208  1  0.87837091  0.52220451  0.50203011  1
  H+  H209  1  0.38190357  0.75443881  0.99593652  1
  H+  H210  1  0.15195362  0.13050643  0.66538719  1
  H+  H211  1  0.14133267  0.25487027  0.83821278  1
  H+  H212  1  0.65599936  0.16787047  -0.02096795  1
  H+  H213  1  0.56666678  0.39835765  0.20875423  1
  H+  H214  1  0.90583469  1.01951663  0.66653337  1
  H+  H215  1  0.63480928  0.86620510  0.50346379  1
  H+  H216  1  0.16137200  0.74328775  0.16818748  1
  H+  H217  1  0.36740137  0.75793543  0.17411150  1
  H+  H218  1  0.42351759  0.51521594  0.98635313  1
  H+  H219  1  0.01401458  0.63554080  0.34272301  1
  H+  H220  1  0.00445065  0.62284845  0.00928904  1
  H+  H221  1  -0.03367438  0.89195453  0.66584518  1
  H+  H222  1  0.03659237  0.13643856  0.50215091  1
  H+  H223  1  0.14483235  0.12228633  0.51271995  1
  H+  H224  1  0.11787361  0.22893216  0.34448826  1
  H+  H225  1  0.52612581  0.54964016  0.71500977  1
  H+  H226  1  0.23740867  0.61619976  0.51426636  1
  H+  H227  1  0.10649257  0.89220936  0.34584449  1
  H+  H228  1  0.72476570  0.86322382  0.00759483  1
  H+  H229  1  0.60932368  0.38794755  0.49005849  1
  H+  H230  1  0.86780849  0.70145379  -0.08436212  1
  H+  H231  1  0.61173114  0.38575566  0.33516835  1
  H+  H232  1  0.46427083  0.11378693  0.64650996  1
  H+  H233  1  0.65072522  1.01230367  0.66578027  1
  H+  H234  1  0.36705074  0.15240250  0.50604708  1
  H+  H235  1  0.21102434  0.85548440  0.32946716  1
  H+  H236  1  0.37647544  0.85053208  0.17859859  1
  H+  H237  1  0.87021875  0.06145287  -0.07868735  1
  H+  H238  1  0.58232963  0.66890450  0.43122051  1
  H+  H239  1  0.12010174  0.89441523  0.81277368  1
  H+  H240  1  0.14684195  0.03905814  0.66256136  1
  H+  H241  1  0.37167881  1.03332630  0.48867281  1
  H+  H242  1  0.38396812  0.00490777  0.64744625  1
  H+  H243  1  0.13354582  0.35858880  0.33355498  1
  H+  H244  1  0.72296172  0.86583659  0.50018650  1
  H+  H245  1  0.28461202  0.64394165  0.67925613  1
  H+  H246  1  0.07791781  0.40844500  0.40689492  1
  H+  H247  1  0.36665843  0.22466513  0.33513124  1
  H+  H248  1  0.21220369  0.82278162  0.83061143  1
  H+  H249  1  0.62676107  0.36006404  0.82004029  1
  H+  H250  1  0.12623222  0.24273412  0.17330725  1
  H+  H251  1  0.97309866  0.86428888  0.33444246  1
  H+  H252  1  0.11888908  0.77145705  0.33266764  1
  H+  H253  1  0.88798631  0.37085982  0.50121964  1
  H+  H254  1  0.26907388  0.61366867  -0.00295688  1
  H+  H255  1  0.43311696  0.40019116  0.93532387  1
  H+  H256  1  0.86207049  0.50642248  0.82169343  1
  H+  H257  1  0.47325822  0.84537037  1.00462557  1
  H+  H258  1  0.95732546  0.20554472  0.21090859  1
  H+  H259  1  0.56567380  0.89825109  0.07452525  1
  H+  H260  1  0.14144773  0.65144855  0.19121993  1
  H+  H261  1  0.58279118  0.21949012  0.80819210  1
  H+  H262  1  0.90428094  0.36142118  0.00883495  1
  H+  H263  1  0.53595701  0.87843010  0.68285682  1
  H+  H264  1  0.87867205  0.52824178  0.32958688  1
  H+  H265  1  0.95170600  0.34382793  0.16721777  1
  H+  H266  1  0.13077913  0.52564319  0.65472467  1
  H+  H267  1  0.61845945  0.75275952  0.85891332  1
  H+  H268  1  0.23501057  0.10719111  0.02898916  1
  H+  H269  1  0.57900061  0.91708666  0.40798434  1
  H+  H270  1  0.52209991  0.41303004  0.66987305  1
  H+  H271  1  0.51352572  0.22196053  -0.05216066  1
  H+  H272  1  0.62273610  0.38232384  0.65278308  1
  H+  H273  1  0.91442226  0.12327614  0.83381959  1
  H+  H274  1  0.38134662  0.89423695  0.51334973  1
  H+  H275  1  0.14299089  0.11979785  0.18451539  1
  H+  H276  1  0.49135262  0.60597385  0.68112046  1
  H+  H277  1  0.36994648  0.61231803  0.84879622  1
  H+  H278  1  0.71609435  0.10880414  0.51404098  1
  H+  H279  1  0.87748726  0.84307182  0.17407071  1
  H+  H280  1  0.72046517  0.13505729  0.99700345  1
  H+  H281  1  0.60580409  0.47380918  0.82747828  1
  H+  H282  1  0.12856678  0.63230995  0.01510039  1
  H+  H283  1  0.47257003  0.36965309  0.51184365  1
  H+  H284  1  0.13824348  0.02739196  0.18541624  1
  H+  H285  1  0.02310395  0.37162296  0.81547976  1
  H+  H286  1  0.61066328  0.72612242  0.33998803  1
  H+  H287  1  0.76827909  0.63370334  0.34221062  1
  H+  H288  1  0.54512323  0.29876054  -0.00455878  1
  H+  H289  1  0.78273877  0.25501791  0.61255353  1
  H+  H290  1  0.82983047  0.91994723  0.42936865  1
  H+  H291  1  0.74288657  0.61973092  -0.01737607  1
  H+  H292  1  0.33724873  0.89879482  0.71612324  1
  H+  H293  1  0.66871849  0.58693425  0.27154129  1
  H+  H294  1  0.58064807  0.42725865  0.76177143  1
  H+  H295  1  0.01986327  0.89184687  0.49478646  1
  H+  H296  1  0.30087496  0.64705816  0.09360657  1
  H+  H297  1  0.17394753  0.34832599  0.59966677  1
  H+  H298  1  0.35780194  0.61303973  0.00839545  1
  H+  H299  1  0.83461990  0.69757192  0.76381320  1
  H+  H300  1  0.68977840  0.11036759  0.90275080  1
  H+  H301  1  0.62629613  0.61490622  0.65701868  1
  H+  H302  1  0.87518691  0.56922377  0.87619464  1
  H+  H303  1  0.58233250  0.41531472  0.39556879  1
  H+  H304  1  0.89410750  0.48539227  0.01211777  1
  H+  H305  1  0.70760461  0.41598573  0.95915846  1
  H+  H306  1  0.66729846  0.32647733  0.26191861  1
  H+  H307  1  0.40347569  0.06584988  0.58263529  1
  H+  H308  1  0.80828692  0.11858259  0.09109553  1
  H+  H309  1  0.82678826  0.14867410  0.45141650  1
  H+  H310  1  0.81640230  0.87692139  0.09978877  1
  H+  H311  1  0.84968486  0.42932248  0.10591967  1
  H+  H312  1  0.83349498  0.37629181  0.66296092  1
  H+  H313  1  0.57591371  0.23685069  0.65555651  1
  H+  H314  1  0.90505237  0.58365150  0.59773588  1
  H+  H315  1  0.98409632  0.43163266  0.87333542  1
  H+  H316  1  0.32801308  0.42787159  0.76445033  1
  H+  H317  1  0.92356446  0.33044192  0.94743386  1
  H+  H318  1  0.31163149  0.93532747  0.41306985  1
  H+  H319  1  0.33479177  0.19586674  0.74893569  1
  H+  H320  1  0.07756287  0.66408326  0.43564741  1
  H+  H321  1  0.16412851  0.83610738  0.23780835  1
  H+  H322  1  0.37241699  0.95785316  0.01221814  1
  H+  H323  1  0.92403886  0.98849519  0.05522827  1
  H+  H324  1  0.41500105  0.34884049  0.60818459  1
  H+  H325  1  0.94305563  0.37485328  0.26378344  1
  H+  H326  1  0.57870176  0.65653381  0.10546634  1
  H+  H327  1  0.07502435  0.65974829  0.72339435  1
  H+  H328  1  0.67185457  0.07297336  0.24154702  1
  H+  H329  1  0.67206138  0.07368458  0.60813378  1
  H+  H330  1  0.82804832  0.40848498  0.75690758  1
  H+  H331  1  0.53436138  0.63137010  0.00995641  1
  H+  H332  1  0.59632871  0.15062079  0.10365909  1
  H+  H333  1  0.58407351  0.16562328  0.43663103  1
  H+  H334  1  0.42033385  0.57812218  0.93815813  1
  H+  H335  1  0.16748948  0.58707318  0.58450338  1
  H+  H336  1  0.93942839  0.06179916  0.57737331  1
  H+  H337  1  0.00197368  0.62419488  0.81139883  1
  H+  H338  1  0.08802316  0.17411576  0.43961828  1
  H+  H339  1  0.83618599  0.67579291  0.10676375  1
  H+  H340  1  0.43259687  0.83673721  0.90754499  1
  H+  H341  1  0.83116352  0.11463637  -0.00139245  1
  H+  H342  1  0.08226697  0.40424101  0.75649318  1
  H+  H343  1  0.16569563  0.08786955  0.27765843  1
  H+  H344  1  0.36245738  0.87582410  0.32494135  1
  H+  H345  1  0.41489172  0.81736432  0.27278178  1
  H+  H346  1  0.10424838  0.41879249  0.06743932  1
  H+  H347  1  0.09560261  0.93079658  0.72523611  1
  H+  H348  1  0.33930656  0.67264135  0.77293382  1
  H+  H349  1  0.90117505  0.32944405  0.56062573  1
  H+  H350  1  0.57550375  0.41516522  0.07313431  1
  H+  H351  1  0.33261949  0.66052062  0.40742207  1
  H+  H352  1  0.65652510  0.33788578  0.56132378  1
  H+  H353  1  0.15101783  0.80823996  0.88795842  1
  H+  H354  1  0.68200005  0.83928784  0.60121531  1
  H+  H355  1  0.64838338  0.56742531  0.90602394  1
  H+  H356  1  0.61696973  0.49931282  0.66518228  1
  H+  H357  1  0.66929543  0.59588440  0.56066248  1
  H+  H358  1  0.08044766  0.92491999  0.40576738  1
  H+  H359  1  0.29394653  0.78062727  0.77594943  1
  H+  H360  1  0.97211440  0.59007059  0.94436635  1
  H+  H361  1  0.54092544  0.17637812  0.71418133  1
  H+  H362  1  0.82095396  0.65416839  0.42404626  1
  H+  H363  1  0.96856546  0.85764245  0.88492793  1
  H+  H364  1  0.09818047  0.15639321  0.07903740  1
  H+  H365  1  0.92604555  0.11813588  0.24657204  1
  H+  H366  1  0.41208750  0.33671305  0.27048878  1
  H+  H367  1  0.47211825  0.61007949  0.32918424  1
  H+  H368  1  0.33977030  0.90097977  0.07722078  1
  H+  H369  1  0.33228572  0.41680750  0.43843401  1
  H+  H370  1  0.84859715  0.16809915  0.72898241  1
  H+  H371  1  0.87061309  0.29134009  0.29324064  1
  H+  H372  1  0.40761417  0.57536013  0.27247059  1
  H+  H373  1  0.30411941  0.16349131  0.08660583  1
  H+  H374  1  0.60092428  -0.12762806  1.01713140  1
  H+  H375  1  0.56260993  0.65044238  0.77857668  1
  H+  H376  1  0.91736250  0.83147224  0.23747611  1
  H+  H377  1  0.42359011  0.08699260  0.23188915  1
  H+  H378  1  0.89633458  0.10432279  0.66224625  1
  H+  H379  1  0.97857563  0.08766605  0.84939430  1
  H+  H380  1  0.15976544  0.30859811  0.93233477  1
  H+  H381  1  0.69516943  0.94167944  0.80793847  1
  H+  H382  1  0.96686934  0.61360829  0.50301445  1
  H+  H383  1  0.63942627  0.01867041  0.33477340  1
  O2-  O384  1  0.09906572  0.18078535  0.16180968  1
  O2-  O385  1  0.09340861  0.17911273  0.48490202  1
  O2-  O386  1  0.09963310  0.13545817  0.83712004  1
  O2-  O387  1  0.13094548  0.46095432  0.14420781  1
  O2-  O388  1  0.08967698  0.42940357  0.48849208  1
  O2-  O389  1  0.08280168  0.39609868  0.80122766  1
  O2-  O390  1  0.15782931  0.68837991  0.15474213  1
  O2-  O391  1  0.07601501  0.66490606  0.48145287  1
  O2-  O392  1  0.06318065  0.64669213  0.80063703  1
  O2-  O393  1  0.08957292  0.92256627  0.15772447  1
  O2-  O394  1  0.08211675  0.92270522  0.48237824  1
  O2-  O395  1  0.13917887  0.94853657  0.79060320  1
  O2-  O396  1  0.32821562  0.16485814  0.15253399  1
  O2-  O397  1  0.33814967  0.18596863  0.49833244  1
  O2-  O398  1  0.33099757  0.19447517  0.83953250  1
  O2-  O399  1  0.30312977  0.42936529  0.11962575  1
  O2-  O400  1  0.33071852  0.41820140  0.48387341  1
  O2-  O401  1  0.32858154  0.42401739  0.81031515  1
  O2-  O402  1  0.28455428  0.64793659  0.13725319  1
  O2-  O403  1  0.32977674  0.65542731  0.48567965  1
  O2-  O404  1  0.33268554  0.67392233  0.81807870  1
  O2-  O405  1  0.33497333  0.91369113  0.15010629  1
  O2-  O406  1  0.29570951  0.95888582  0.44728688  1
  O2-  O407  1  0.31291251  0.83946365  0.78908861  1
  O2-  O408  1  0.59484767  0.15789089  0.14749401  1
  O2-  O409  1  0.57927723  0.16575904  0.48174617  1
  O2-  O410  1  0.53329472  0.16321541  0.79392788  1
  O2-  O411  1  0.59535880  0.42007189  0.16964256  1
  O2-  O412  1  0.57906681  0.41806256  0.47403515  1
  O2-  O413  1  0.57857851  0.41545482  0.80634032  1
  O2-  O414  1  0.57536010  0.65546055  0.15123081  1
  O2-  O415  1  0.58598765  0.66913508  0.47672775  1
  O2-  O416  1  0.56348685  0.65659790  0.82369075  1
  O2-  O417  1  0.57068854  0.89927123  0.15533962  1
  O2-  O418  1  0.55910818  0.92275696  0.47731272  1
  O2-  O419  1  0.63674357  0.93559195  0.81773168  1
  O2-  O420  1  0.79610379  0.08750004  0.13369881  1
  O2-  O421  1  0.82184850  0.16142542  0.49426716  1
  O2-  O422  1  0.86773615  0.18680396  0.81333171  1
  O2-  O423  1  0.84476007  0.42885236  0.15114578  1
  O2-  O424  1  0.82851191  0.41970560  0.47779001  1
  O2-  O425  1  0.82518457  0.40573935  0.80271848  1
  O2-  O426  1  0.83270029  0.67093283  0.15089096  1
  O2-  O427  1  0.81874039  0.65248758  0.47319137  1
  O2-  O428  1  0.84235263  0.69219660  0.80776939  1
  O2-  O429  1  0.79780322  0.83830436  0.13537263  1
  O2-  O430  1  0.82320361  0.91031599  0.47428988  1
  O2-  O431  1  0.78152233  0.93513586  0.79972541  1
  O2-  O432  1  0.17175939  0.08815123  0.20012400  1
  O2-  O433  1  0.16746994  0.08534481  0.52804897  1
  O2-  O434  1  0.14533838  0.10507482  0.85899850  1
  O2-  O435  1  0.16645577  0.34842060  0.19545808  1
  O2-  O436  1  0.16784088  0.34320718  0.52329492  1
  O2-  O437  1  0.16523253  0.31518948  0.85143701  1
  O2-  O438  1  0.17346096  0.59518493  0.25337530  1
  O2-  O439  1  0.17452691  0.58678376  0.52928595  1
  O2-  O440  1  0.08650079  0.53119365  0.86567792  1
  O2-  O441  1  0.17398762  0.84015079  0.19283222  1
  O2-  O442  1  0.16310240  0.83805696  0.51648666  1
  O2-  O443  1  0.15234914  0.80212478  0.84294892  1
  O2-  O444  1  0.41931580  0.08209930  0.18604209  1
  O2-  O445  1  0.41138816  0.08220598  0.51633701  1
  O2-  O446  1  0.43601945  0.15173864  0.89621427  1
  O2-  O447  1  0.40450248  0.33413472  0.19200442  1
  O2-  O448  1  0.41473618  0.34443137  0.53036365  1
  O2-  O449  1  0.42249341  0.36505038  0.86230767  1
  O2-  O450  1  0.40344012  0.57305216  0.18916263  1
  O2-  O451  1  0.41467557  0.58004630  0.52406189  1
  O2-  O452  1  0.39896871  0.58017521  0.86397425  1
  O2-  O453  1  0.40210860  0.81534186  0.19270131  1
  O2-  O454  1  0.46315629  0.79094514  0.53703730  1
  O2-  O455  1  0.43824335  0.84253939  0.86242345  1
  O2-  O456  1  0.66752871  0.06820543  0.19549484  1
  O2-  O457  1  0.65508195  0.08041934  0.52863758  1
  O2-  O458  1  0.70476281  0.10364661  0.85932798  1
  O2-  O459  1  0.67708063  0.32437588  0.18086932  1
  O2-  O460  1  0.66184687  0.33539989  0.51601801  1
  O2-  O461  1  0.65382039  0.32306831  0.82936840  1
  O2-  O462  1  0.66862329  0.58675593  0.19303961  1
  O2-  O463  1  0.67128145  0.59301881  0.51457133  1
  O2-  O464  1  0.63747922  0.56198172  0.86187873  1
  O2-  O465  1  0.65517322  0.81829692  0.19731731  1
  O2-  O466  1  0.66246309  0.83361949  0.51635380  1
  O2-  O467  1  0.65204044  0.80941253  0.88025292  1
  O2-  O468  1  0.93157026  0.14398405  0.20419675  1
  O2-  O469  1  0.95062130  0.04532716  0.53567857  1
  O2-  O470  1  0.91826230  0.07437486  0.85132798  1
  O2-  O471  1  0.97366148  0.39814611  0.18903971  1
  O2-  O472  1  0.91945266  0.34233841  0.51742624  1
  O2-  O473  1  0.93490489  0.37192987  0.86780180  1
  O2-  O474  1  0.91885946  0.59373022  0.19940810  1
  O2-  O475  1  0.90520735  0.58383785  0.51606495  1
  O2-  O476  1  0.89105980  0.56906993  0.83399005  1
  O2-  O477  1  0.92122572  0.82955832  0.19229337  1
  O2-  O478  1  0.91556816  0.83372580  0.50868842  1
  O2-  O479  1  0.98397934  0.82467433  0.85756189  1
  O2-  O480  1  0.16619086  0.08927490  0.32311762  1
  O2-  O481  1  0.18169278  0.09957295  0.64873183  1
  O2-  O482  1  0.18156105  0.00991982  1.00992481  1
  O2-  O483  1  0.16670853  0.33285421  0.31441198  1
  O2-  O484  1  0.17171809  0.35181731  0.64517032  1
  O2-  O485  1  0.15816968  0.30382805  0.97745859  1
  O2-  O486  1  0.19875047  0.65609769  0.30431038  1
  O2-  O487  1  0.16025518  0.58691158  0.63895067  1
  O2-  O488  1  0.16287371  0.56920548  0.97688396  1
  O2-  O489  1  0.15077239  0.83181930  0.31635676  1
  O2-  O490  1  0.16416264  0.82579933  0.63942506  1
  O2-  O491  1  0.14046674  0.81432159  0.96542099  1
  O2-  O492  1  0.42858602  0.09289247  0.30839375  1
  O2-  O493  1  0.40306284  0.06461956  0.63012655  1
  O2-  O494  1  0.41791137  0.04839094  0.98983064  1
  O2-  O495  1  0.41302250  0.33506252  0.31585301  1
  O2-  O496  1  0.41850347  0.35723323  0.65337182  1
  O2-  O497  1  0.43378929  0.41758407  0.97892381  1
  O2-  O498  1  0.40978819  0.57786417  0.31749345  1
  O2-  O499  1  0.41220959  0.59188356  0.65640737  1
  O2-  O500  1  0.42898328  0.57283766  0.98289644  1
  O2-  O501  1  0.41751359  0.82587847  0.31759329  1
  O2-  O502  1  0.43107533  0.82954024  0.64937451  1
  O2-  O503  1  0.41146999  0.81715787  0.98641246  1
  O2-  O504  1  0.67149513  0.07849157  0.31695545  1
  O2-  O505  1  0.68375806  0.07340052  0.65233243  1
  O2-  O506  1  0.66757143  0.12088952  0.97321871  1
  O2-  O507  1  0.66428362  0.33126590  0.30686839  1
  O2-  O508  1  0.64655608  0.34528020  0.63763952  1
  O2-  O509  1  0.71423937  0.36563569  0.95388607  1
  O2-  O510  1  0.66802605  0.58604299  0.31709124  1
  O2-  O511  1  0.66701146  0.60059795  0.63520679  1
  O2-  O512  1  0.68020707  0.58103515  0.98732583  1
  O2-  O513  1  0.66698655  0.83091826  0.31977257  1
  O2-  O514  1  0.69965641  0.84574146  0.64422271  1
  O2-  O515  1  0.66416067  0.82639284  0.99752960  1
  O2-  O516  1  0.92624201  0.08904562  0.31490420  1
  O2-  O517  1  0.93203612  0.07862034  0.64974434  1
  O2-  O518  1  0.83755792  0.04833438  0.96019032  1
  O2-  O519  1  0.91541715  0.34938081  0.30377618  1
  O2-  O520  1  0.84053063  0.29036348  0.62915621  1
  O2-  O521  1  0.92546997  0.32350063  0.99206912  1
  O2-  O522  1  0.91109686  0.59006460  0.31725988  1
  O2-  O523  1  0.90479794  0.58345518  0.64298315  1
  O2-  O524  1  0.94972043  0.59296104  0.98417876  1
  O2-  O525  1  0.91338585  0.83333872  0.31704078  1
  O2-  O526  1  0.90663726  0.86326424  0.64813156  1
  O2-  O527  1  0.94526696  0.86959148  0.97664507  1
  O2-  O528  1  0.09388087  0.13574454  0.03708303  1
  O2-  O529  1  0.08411336  0.16891136  0.36052877  1
  O2-  O530  1  0.10212046  0.18028152  0.69144544  1
  O2-  O531  1  0.09621270  0.40705677  0.02311198  1
  O2-  O532  1  0.07660316  0.39905279  0.36242793  1
  O2-  O533  1  0.08798420  0.42498940  0.67690216  1
  O2-  O534  1  0.10370877  0.66547044  0.03439972  1
  O2-  O535  1  0.07357483  0.66940133  0.35989714  1
  O2-  O536  1  0.07802176  0.66170550  0.67762848  1
  O2-  O537  1  0.10630163  0.95652662  0.03446885  1
  O2-  O538  1  0.07667420  0.92325671  0.36002295  1
  O2-  O539  1  0.07688249  0.92415041  0.68078464  1
  O2-  O540  1  0.28534232  0.16629595  0.04238603  1
  O2-  O541  1  0.34199480  0.16230142  0.34287793  1
  O2-  O542  1  0.34340707  0.20022639  0.70458618  1
  O2-  O543  1  0.29006275  0.31172812  0.03623540  1
  O2-  O544  1  0.32770615  0.41151370  0.35965219  1
  O2-  O545  1  0.32851500  0.43625059  0.68919616  1
  O2-  O546  1  0.32600285  0.64358517  0.01846182  1
  O2-  O547  1  0.33313352  0.66393600  0.36192586  1
  O2-  O548  1  0.34327373  0.67273440  0.69526001  1
  O2-  O549  1  0.34242699  0.89660108  0.03108460  1
  O2-  O550  1  0.33034294  0.90894957  0.32255511  1
  O2-  O551  1  0.34314043  0.90888941  0.67159810  1
  O2-  O552  1  0.55464918  0.25186773  -0.01798262  1
  O2-  O553  1  0.58990423  0.17057795  0.35505547  1
  O2-  O554  1  0.54514638  0.17574315  0.66928677  1
  O2-  O555  1  0.57608679  0.41629031  0.02859332  1
  O2-  O556  1  0.58299696  0.41762738  0.34994668  1
  O2-  O557  1  0.58411908  0.44027601  0.68327003  1
  O2-  O558  1  0.59246953  0.65938806  0.02957818  1
  O2-  O559  1  0.57702690  0.66442778  0.35362735  1
  O2-  O560  1  0.54717472  0.60877725  0.70229168  1
  O2-  O561  1  0.56324736  0.89568840  0.02941960  1
  O2-  O562  1  0.58702035  0.91605860  0.36142352  1
  O2-  O563  1  0.59772522  0.90872952  0.69470997  1
  O2-  O564  1  0.81820615  0.15252418  0.02773971  1
  O2-  O565  1  0.83664596  0.15085019  0.36619224  1
  O2-  O566  1  0.84353573  0.16033034  0.68439670  1
  O2-  O567  1  0.86104342  0.42497543  0.02727366  1
  O2-  O568  1  0.82557467  0.42313392  0.35363124  1
  O2-  O569  1  0.81492325  0.41404172  0.68287712  1
  O2-  O570  1  0.86097265  0.68934118  -0.04048415  1
  O2-  O571  1  0.82784600  0.66272021  0.36063131  1
  O2-  O572  1  0.83109477  0.68866335  0.67814568  1
  O2-  O573  1  0.87366887  0.94424975  0.03363382  1
  O2-  O574  1  0.83684142  0.92499494  0.35028463  1
  O2-  O575  1  0.86444389  0.90457288  0.67960076  1
