# generated using pymatgen
data_H2O
_symmetry_space_group_name_H-M   'P 1'
_cell_length_a   17.99572205
_cell_length_b   17.99357585
_cell_length_c   22.00630174
_cell_angle_alpha   89.98469553
_cell_angle_beta   89.99820712
_cell_angle_gamma   120.01366511
_symmetry_Int_Tables_number   1
_chemical_formula_structural   H2O
_chemical_formula_sum   'H384 O192'
_cell_volume   6170.27626526
_cell_formula_units_Z   192
loop_
 _symmetry_equiv_pos_site_id
 _symmetry_equiv_pos_as_xyz
  1  'x, y, z'
loop_
 _atom_type_symbol
 _atom_type_oxidation_number
  H+  1.0
  O2-  -2.0
loop_
 _atom_site_type_symbol
 _atom_site_label
 _atom_site_symmetry_multiplicity
 _atom_site_fract_x
 _atom_site_fract_y
 _atom_site_fract_z
 _atom_site_occupancy
  H+  H0  1  0.20521239  0.87391354  0.99782768  1
  H+  H1  1  0.15132247  0.43192649  0.14992324  1
  H+  H2  1  0.63522201  0.98677126  -0.00389021  1
  H+  H3  1  0.39308660  0.10380125  0.99758708  1
  H+  H4  1  0.24717893  0.61514342  0.35262835  1
  H+  H5  1  0.12702909  0.23166527  0.67312032  1
  H+  H6  1  0.87074244  0.13807879  0.83330780  1
  H+  H7  1  0.77426583  0.63182494  0.83724145  1
  H+  H8  1  0.35825261  0.76292283  0.19723627  1
  H+  H9  1  0.70659346  0.56082014  0.67946642  1
  H+  H10  1  0.86681716  0.94502987  0.66023113  1
  H+  H11  1  0.12336674  0.13707498  0.16446917  1
  H+  H12  1  0.29753151  0.70567978  1.02290157  1
  H+  H13  1  0.24276351  0.62248656  0.82420633  1
  H+  H14  1  0.63174034  0.77169114  1.00338344  1
  H+  H15  1  0.62134767  0.65698135  0.47885720  1
  H+  H16  1  0.89324046  0.86857949  0.32721230  1
  H+  H17  1  0.23773167  0.14063727  0.33808337  1
  H+  H18  1  0.13560252  0.86785513  0.17942719  1
  H+  H19  1  0.14944816  0.03341525  0.19417045  1
  H+  H20  1  0.63276000  0.36268425  0.99260097  1
  H+  H21  1  0.76765702  0.13696325  0.15944576  1
  H+  H22  1  0.40912998  0.76323199  0.65283422  1
  H+  H23  1  0.86960529  0.48580167  0.33246394  1
  H+  H24  1  0.38110930  0.39801570  0.49872617  1
  H+  H25  1  0.86768612  0.11403706  0.17046114  1
  H+  H26  1  0.64763050  0.12058980  0.99197985  1
  H+  H27  1  0.21558569  0.24590332  0.43770917  1
  H+  H28  1  0.37590813  0.60554336  0.19738846  1
  H+  H29  1  0.48676659  0.12196462  0.50527106  1
  H+  H30  1  0.38964748  0.28664037  0.51276923  1
  H+  H31  1  0.72464739  0.85209623  0.63965907  1
  H+  H32  1  0.39740659  0.89126062  0.00998400  1
  H+  H33  1  0.97906569  0.35905041  0.17841236  1
  H+  H34  1  0.74508009  0.63035909  0.32737602  1
  H+  H35  1  0.22789250  0.37398204  0.49681810  1
  H+  H36  1  0.88999239  0.35787523  0.18905596  1
  H+  H37  1  0.10898477  0.73165765  0.15989453  1
  H+  H38  1  0.11050438  0.62831541  0.82373902  1
  H+  H39  1  0.87240968  0.14813651  0.49919658  1
  H+  H40  1  0.90168244  0.84351886  0.92882637  1
  H+  H41  1  0.41765753  0.09982222  0.27251249  1
  H+  H42  1  0.64166178  0.76905937  0.16209090  1
  H+  H43  1  0.58219764  0.41382155  1.07185476  1
  H+  H44  1  0.72133062  0.61189874  0.17347031  1
  H+  H45  1  0.91144021  0.57431123  0.59603452  1
  H+  H46  1  0.30927816  0.89063561  0.01196060  1
  H+  H47  1  0.14113888  0.11924699  0.84134331  1
  H+  H48  1  0.42904877  0.78279206  0.98660029  1
  H+  H49  1  0.97722879  0.36748850  0.50640281  1
  H+  H50  1  0.62395949  0.98427195  0.66750877  1
  H+  H51  1  0.37604686  0.15666689  0.83106249  1
  H+  H52  1  -0.02601357  0.36623357  0.83666819  1
  H+  H53  1  0.62006953  0.23018059  0.00603547  1
  H+  H54  1  0.35134331  0.19318053  0.73463956  1
  H+  H55  1  -0.02057289  0.61828553  0.32617162  1
  H+  H56  1  0.88575151  0.77361335  0.33038271  1
  H+  H57  1  0.88386803  0.94328092  0.99634622  1
  H+  H58  1  0.39436118  0.28660498  0.84193949  1
  H+  H59  1  0.98558191  0.12658584  0.52068676  1
  H+  H60  1  0.35917567  0.88567433  0.51963492  1
  H+  H61  1  0.28533630  0.15351650  0.82931227  1
  H+  H62  1  0.63427656  0.52080252  0.17832921  1
  H+  H63  1  0.63216530  0.01578290  0.32050464  1
  H+  H64  1  0.20012193  0.60117842  0.88778117  1
  H+  H65  1  0.39497783  0.52206477  0.65287243  1
  H+  H66  1  0.38555598  0.81862221  0.42597916  1
  H+  H67  1  0.11789618  0.72820010  0.49609102  1
  H+  H68  1  0.22124939  0.35856869  0.99907879  1
  H+  H69  1  0.72736798  0.86571455  0.84941592  1
  H+  H70  1  0.80440281  0.60266014  0.47566649  1
  H+  H71  1  0.60625956  0.12901967  0.34016663  1
  H+  H72  1  0.91291773  0.33518842  0.60088161  1
  H+  H73  1  0.10807093  0.47780173  0.48787009  1
  H+  H74  1  0.26887436  0.87557988  0.80781483  1
  H+  H75  1  0.00007235  0.60319873  0.66823341  1
  H+  H76  1  0.63579284  0.11396554  0.17032647  1
  H+  H77  1  0.86977145  0.21825057  0.00418375  1
  H+  H78  1  0.10529251  0.78298004  0.90620290  1
  H+  H79  1  0.90921659  0.62735926  0.50385856  1
  H+  H80  1  0.89131354  0.87059606  0.17429868  1
  H+  H81  1  0.52182798  0.40887205  0.49955376  1
  H+  H82  1  0.60817639  0.14104868  0.67143823  1
  H+  H83  1  0.26252526  0.37910009  0.17418602  1
  H+  H84  1  0.25927890  0.10537801  0.01097579  1
  H+  H85  1  0.98202286  0.61738956  0.84203576  1
  H+  H86  1  0.54455189  0.96208462  0.45297665  1
  H+  H87  1  0.12314149  1.01869179  0.65321894  1
  H+  H88  1  0.28245769  0.39237761  0.67111062  1
  H+  H89  1  0.51643491  0.63236738  0.17558893  1
  H+  H90  1  0.23419651  0.60826675  1.01710502  1
  H+  H91  1  0.83751279  0.67065588  0.40236325  1
  H+  H92  1  0.36786896  0.23835285  0.16635585  1
  H+  H93  1  0.88117285  0.36232902  0.66097395  1
  H+  H94  1  0.41101668  0.39159217  0.66072858  1
  H+  H95  1  0.06546783  0.81207202  0.95756571  1
  H+  H96  1  -0.00644082  0.61915024  0.50786794  1
  H+  H97  1  0.13605057  0.36422646  0.84274189  1
  H+  H98  1  0.00286810  0.88896434  -0.01237024  1
  H+  H99  1  0.85119793  0.68203328  0.07066119  1
  H+  H100  1  0.63849623  0.27113988  0.83697159  1
  H+  H101  1  0.37409163  0.64242382  0.81674541  1
  H+  H102  1  0.47244935  0.12373026  0.33361646  1
  H+  H103  1  0.49441716  0.63099697  0.49030636  1
  H+  H104  1  0.87494907  0.79620468  -0.00694165  1
  H+  H105  1  0.86163018  0.22338891  0.16124283  1
  H+  H106  1  0.35539610  0.99422229  0.33855845  1
  H+  H107  1  0.37559776  0.63265417  0.66164165  1
  H+  H108  1  0.63032188  0.89195714  0.65886776  1
  H+  H109  1  0.88283063  0.77608160  0.83970613  1
  H+  H110  1  0.38557090  0.25351393  0.67681042  1
  H+  H111  1  0.11582399  0.23175502  0.83263038  1
  H+  H112  1  0.36438857  0.39265001  0.82719000  1
  H+  H113  1  0.62600664  0.22801675  0.49007899  1
  H+  H114  1  0.14991185  0.12216251  0.49378056  1
  H+  H115  1  0.10139798  0.57073139  0.64001687  1
  H+  H116  1  1.01206646  0.36362997  1.00855545  1
  H+  H117  1  0.12272958  0.90909907  0.67144088  1
  H+  H118  1  0.73942372  0.11602045  0.51223028  1
  H+  H119  1  0.23021680  0.60986136  0.56430974  1
  H+  H120  1  0.85821702  0.63813615  0.16285744  1
  H+  H121  1  0.88819943  0.27347681  0.83775710  1
  H+  H122  1  0.01940828  0.87461451  0.49182663  1
  H+  H123  1  0.76434594  0.13144360  0.34305078  1
  H+  H124  1  0.11062359  0.87253863  0.33959850  1
  H+  H125  1  0.19141774  0.85431032  0.02912732  1
  H+  H126  1  0.12937669  0.80002053  0.67325690  1
  H+  H127  1  0.88884917  0.62486226  0.84366511  1
  H+  H128  1  0.73744299  0.37429935  0.48950152  1
  H+  H129  1  0.22317483  0.87361737  0.32893861  1
  H+  H130  1  0.47979320  0.61537859  0.83169306  1
  H+  H131  1  0.39244294  0.12302171  0.17868058  1
  H+  H132  1  0.43247106  0.11593118  0.60425471  1
  H+  H133  1  0.91390581  0.83583283  0.23563061  1
  H+  H134  1  0.12859140  0.25081821  0.18048267  1
  H+  H135  1  0.61505901  0.38706403  0.82497546  1
  H+  H136  1  0.35899303  0.88019264  0.81165783  1
  H+  H137  1  0.27343073  0.38895760  0.82641366  1
  H+  H138  1  0.52162290  0.38920901  0.16377880  1
  H+  H139  1  0.61697931  0.74380688  0.47479768  1
  H+  H140  1  0.40236965  0.14309143  0.66475027  1
  H+  H141  1  0.14409627  0.29063067  0.28015892  1
  H+  H142  1  0.28118550  0.14265086  0.50048443  1
  H+  H143  1  0.62545589  0.13895499  0.49824296  1
  H+  H144  1  0.72027570  0.11350255  0.66826213  1
  H+  H145  1  0.59171520  0.46478050  0.00910050  1
  H+  H146  1  0.96421277  0.59918863  0.99659325  1
  H+  H147  1  0.29498776  0.64683093  0.65571365  1
  H+  H148  1  0.07462168  0.89241470  0.03254732  1
  H+  H149  1  0.93827858  0.73047419  0.03629653  1
  H+  H150  1  0.02091948  0.37654184  0.67424791  1
  H+  H151  1  0.92989062  0.79927103  0.59820988  1
  H+  H152  1  0.12153252  0.13474289  0.00637675  1
  H+  H153  1  0.12830632  1.02263519  0.49911613  1
  H+  H154  1  0.10572552  0.53810199  0.94231961  1
  H+  H155  1  0.51097703  0.65185318  0.67515797  1
  H+  H156  1  0.58819516  0.59428002  0.99190148  1
  H+  H157  1  0.15204114  0.25247432  0.48057228  1
  H+  H158  1  0.14164208  1.03060872  0.83823859  1
  H+  H159  1  0.65043287  0.02617884  0.51222347  1
  H+  H160  1  0.63367569  0.89242710  0.00073730  1
  H+  H161  1  0.35136408  0.85206377  0.66216387  1
  H+  H162  1  0.63325670  0.73727117  0.32381809  1
  H+  H163  1  0.37370008  0.15151688  0.49684378  1
  H+  H164  1  0.48121252  0.12806445  0.83708969  1
  H+  H165  1  0.52573829  0.13965704  0.16101959  1
  H+  H166  1  0.13561701  0.26666586  0.99509911  1
  H+  H167  1  0.89031811  0.37063385  0.50336560  1
  H+  H168  1  0.35608516  0.38745460  0.01740589  1
  H+  H169  1  0.38991876  0.03252489  0.18025931  1
  H+  H170  1  0.26143930  0.53710047  0.49205873  1
  H+  H171  1  0.53412262  0.13978961  0.00654523  1
  H+  H172  1  0.60333303  0.62884759  0.17013359  1
  H+  H173  1  0.88772460  0.83417053  0.51935770  1
  H+  H174  1  0.02506058  0.88581418  0.66693841  1
  H+  H175  1  0.38435891  0.36596686  0.17383433  1
  H+  H176  1  0.78304011  0.89285455  0.14758427  1
  H+  H177  1  0.63289623  0.27356720  0.65579363  1
  H+  H178  1  0.52694208  0.72594573  0.71995073  1
  H+  H179  1  0.87507582  0.59552997  0.65745730  1
  H+  H180  1  0.85883077  0.72731024  0.16345228  1
  H+  H181  1  0.64121721  0.55651598  0.49964464  1
  H+  H182  1  1.04094584  0.13825716  0.67755148  1
  H+  H183  1  0.12560370  0.61856621  0.17608654  1
  H+  H184  1  0.87638777  0.02142605  0.17257062  1
  H+  H185  1  0.59969946  0.37470317  0.34734986  1
  H+  H186  1  0.50995818  0.87619003  -0.01341726  1
  H+  H187  1  0.39492384  0.61106618  0.50159460  1
  H+  H188  1  0.98479198  0.11668063  0.85228881  1
  H+  H189  1  0.12915145  0.85700507  0.82335050  1
  H+  H190  1  0.60739535  0.92969196  0.08485802  1
  H+  H191  1  0.02099845  0.89521750  0.17780792  1
  H+  H192  1  0.25932556  0.63390513  0.17586939  1
  H+  H193  1  0.10619996  0.48952332  0.00137658  1
  H+  H194  1  0.87897336  0.26973015  0.33440561  1
  H+  H195  1  0.35417464  0.88777074  0.17691594  1
  H+  H196  1  0.64199190  0.02753083  0.16628967  1
  H+  H197  1  0.85517453  0.37214577  0.82315849  1
  H+  H198  1  0.78881680  0.90001664  0.49928581  1
  H+  H199  1  0.86998732  0.98853115  0.84482097  1
  H+  H200  1  0.12374501  0.50838977  0.32746978  1
  H+  H201  1  0.09832328  0.67657457  0.66605532  1
  H+  H202  1  0.46778442  0.83735555  0.34118119  1
  H+  H203  1  0.54363314  0.89179067  0.13988354  1
  H+  H204  1  0.02186132  0.89164130  0.82486359  1
  H+  H205  1  0.98025765  0.14046237  0.31813646  1
  H+  H206  1  0.64892386  0.86174679  0.15451699  1
  H+  H207  1  0.85768659  0.47086728  0.00477543  1
  H+  H208  1  0.73894007  0.87498573  0.30371394  1
  H+  H209  1  0.86429137  0.70516896  0.67821276  1
  H+  H210  1  0.14804000  0.15185192  0.32549161  1
  H+  H211  1  0.88459919  0.12678780  0.32562196  1
  H+  H212  1  0.85787963  0.23622376  0.67313059  1
  H+  H213  1  0.44169088  0.84612750  0.21905794  1
  H+  H214  1  0.64899554  0.35140716  0.46025187  1
  H+  H215  1  0.89139934  0.83228568  0.64760062  1
  H+  H216  1  0.28482197  0.05523548  0.05611658  1
  H+  H217  1  0.37936186  0.28635889  0.32334827  1
  H+  H218  1  0.50475557  0.39985034  0.65696154  1
  H+  H219  1  0.73030297  0.64335219  0.49091043  1
  H+  H220  1  0.76368865  0.37831842  0.67039639  1
  H+  H221  1  0.88224008  0.60970627  0.99462646  1
  H+  H222  1  0.86811502  0.64707215  0.33676982  1
  H+  H223  1  0.62129565  -0.02076078  0.83551376  1
  H+  H224  1  0.34330363  0.91985042  0.58249107  1
  H+  H225  1  0.39641156  0.56269038  0.25385734  1
  H+  H226  1  0.13725211  0.36595010  0.50492705  1
  H+  H227  1  0.84722163  0.14857351  0.65421266  1
  H+  H228  1  0.85329450  0.46652514  0.67261097  1
  H+  H229  1  0.08639030  0.94467646  0.12506833  1
  H+  H230  1  0.53348338  0.88348377  0.66304237  1
  H+  H231  1  0.87626081  0.99779306  0.32587990  1
  H+  H232  1  0.40921879  0.02530975  0.99368325  1
  H+  H233  1  0.88562912  0.74584497  0.50188510  1
  H+  H234  1  0.64126458  0.52162703  0.83913253  1
  H+  H235  1  0.83194217  0.41415001  0.24656638  1
  H+  H236  1  0.64968328  0.63725633  0.32605807  1
  H+  H237  1  0.72898789  0.10839045  0.83791787  1
  H+  H238  1  0.61796926  0.14001350  0.82239354  1
  H+  H239  1  0.88414864  0.86657204  0.83714351  1
  H+  H240  1  0.34843720  0.47171725  0.17493056  1
  H+  H241  1  0.22462100  0.86791870  0.17579964  1
  H+  H242  1  0.87476826  0.48838022  0.48834667  1
  H+  H243  1  0.40086690  0.77580494  0.83223264  1
  H+  H244  1  0.11451657  0.89007327  0.49226781  1
  H+  H245  1  0.32924941  0.89649596  0.71609641  1
  H+  H246  1  0.75648955  0.36934461  0.82740272  1
  H+  H247  1  0.76802680  0.37940584  0.19258118  1
  H+  H248  1  0.50281928  0.86968623  0.47528715  1
  H+  H249  1  0.39252534  0.50176853  0.49160268  1
  H+  H250  1  0.11523543  0.72401279  0.34108714  1
  H+  H251  1  0.61962379  0.88276561  0.83802645  1
  H+  H252  1  0.11546521  0.47716620  0.82417461  1
  H+  H253  1  0.64137990  0.77271721  0.84325036  1
  H+  H254  1  0.62478477  0.63840194  0.82597360  1
  H+  H255  1  0.89858402  0.07776255  0.68123702  1
  H+  H256  1  0.24062042  0.12382507  0.18642038  1
  H+  H257  1  0.61580457  -0.12111707  0.32269810  1
  H+  H258  1  0.11160436  0.32752378  0.19570690  1
  H+  H259  1  0.13929859  0.35842587  0.66086781  1
  H+  H260  1  0.60925906  0.38601486  0.16664598  1
  H+  H261  1  0.03014864  0.12750590  0.01465962  1
  H+  H262  1  0.37466843  0.52636978  0.00956081  1
  H+  H263  1  0.10530397  0.36832918  1.00828417  1
  H+  H264  1  0.22599980  0.87192607  0.52079178  1
  H+  H265  1  0.92594588  0.08293961  0.91299463  1
  H+  H266  1  0.15481576  0.08202153  0.58845188  1
  H+  H267  1  0.35796635  0.49368063  0.36074628  1
  H+  H268  1  0.12438977  0.52876367  0.17294477  1
  H+  H269  1  0.34042519  0.69797292  0.36466551  1
  H+  H270  1  0.43287012  0.58230398  0.59191739  1
  H+  H271  1  0.63200273  0.40750211  0.67139499  1
  H+  H272  1  0.57380923  0.41447532  0.40297999  1
  H+  H273  1  0.38820004  0.52932069  0.82858543  1
  H+  H274  1  0.64978625  0.88177834  0.49188682  1
  H+  H275  1  0.13124156  0.01851551  0.98112254  1
  H+  H276  1  0.39678036  0.03742435  0.51966796  1
  H+  H277  1  0.09097193  0.61892018  0.00922655  1
  H+  H278  1  0.07734968  0.69999802  -0.00728406  1
  H+  H279  1  0.01659402  0.37318792  0.34336939  1
  H+  H280  1  0.35659113  0.14659525  0.34465652  1
  H+  H281  1  0.88344889  0.35360092  -0.00814087  1
  H+  H282  1  0.63282207  0.27158410  0.17744668  1
  H+  H283  1  0.01420467  0.87410733  0.34092584  1
  H+  H284  1  0.52848097  0.39234880  0.82619519  1
  H+  H285  1  0.38196080  0.27430062  -0.00524193  1
  H+  H286  1  0.50801554  0.64009749  0.01910092  1
  H+  H287  1  0.22832767  0.86239509  0.65812209  1
  H+  H288  1  0.72254089  0.36395594  0.99008501  1
  H+  H289  1  0.86914664  0.39399081  0.33626919  1
  H+  H290  1  0.34648105  0.92104424  0.11120701  1
  H+  H291  1  0.32100897  0.66340501  0.11963082  1
  H+  H292  1  0.35629400  0.75291353  0.47946501  1
  H+  H293  1  0.91750605  0.32453136  0.27385580  1
  H+  H294  1  0.87477107  0.92577646  0.46207457  1
  H+  H295  1  0.08856563  0.66806347  0.43797816  1
  H+  H296  1  0.65214587  0.32442647  0.24021269  1
  H+  H297  1  0.82734524  0.40738342  0.06137168  1
  H+  H298  1  0.82943169  0.65673613  0.77569904  1
  H+  H299  1  0.13934896  0.12109147  0.65663456  1
  H+  H300  1  0.16255646  0.83635196  0.26952057  1
  H+  H301  1  0.15310832  0.83775701  0.56856836  1
  H+  H302  1  0.43029938  0.83508923  0.89325943  1
  H+  H303  1  0.32671802  0.93248457  0.39530839  1
  H+  H304  1  0.60386815  0.43642585  0.73133066  1
  H+  H305  1  0.62596411  0.77871787  0.64996320  1
  H+  H306  1  0.52874301  0.51804638  0.94936400  1
  H+  H307  1  0.84479054  0.43070537  0.42759600  1
  H+  H308  1  0.66772929  0.33331344  0.89706925  1
  H+  H309  1  0.42581199  0.09761710  0.89704987  1
  H+  H310  1  0.41679312  0.33898472  0.23346861  1
  H+  H311  1  0.91422604  0.32734304  0.93170698  1
  H+  H312  1  0.91933805  0.59041436  0.90707040  1
  H+  H313  1  0.42413346  0.34668213  0.90079971  1
  H+  H314  1  0.63359135  0.26660084  0.33455372  1
  H+  H315  1  0.47294607  0.35775806  1.00415154  1
  H+  H316  1  0.06460815  0.63465832  0.76344981  1
  H+  H317  1  0.10919258  0.46164281  0.66613854  1
  H+  H318  1  0.86751641  0.23465325  0.49630930  1
  H+  H319  1  0.90614483  0.08960144  0.23480751  1
  H+  H320  1  0.82592588  0.16323955  0.40285080  1
  H+  H321  1  0.17286652  0.33485237  0.60053670  1
  H+  H322  1  0.59434380  0.67540537  0.76994153  1
  H+  H323  1  0.85576003  0.94641206  0.09717661  1
  H+  H324  1  0.35129991  0.57590756  0.34910031  1
  H+  H325  1  0.52265224  0.88241763  0.83294230  1
  H+  H326  1  0.42646373  0.35273823  0.57114642  1
  H+  H327  1  0.90077102  0.03506281  0.51916351  1
  H+  H328  1  0.33116999  0.16741069  0.11153874  1
  H+  H329  1  0.66470384  0.08184527  0.26543851  1
  H+  H330  1  0.07657977  0.90373159  0.40479518  1
  H+  H331  1  0.84186439  0.16402844  0.77100146  1
  H+  H332  1  0.67058115  0.08488972  0.89735981  1
  H+  H333  1  0.36895281  0.61110742  0.01188733  1
  H+  H334  1  0.72043648  0.35897406  0.33089406  1
  H+  H335  1  0.17910629  0.10756741  0.27123892  1
  H+  H336  1  0.43992586  0.82503446  0.59434600  1
  H+  H337  1  0.59749243  0.68004686  0.38500954  1
  H+  H338  1  0.08176612  0.41383060  0.76736992  1
  H+  H339  1  0.97248619  0.61480664  0.17277408  1
  H+  H340  1  0.66913607  0.08186402  0.60531880  1
  H+  H341  1  0.83568120  0.16176616  0.06461188  1
  H+  H342  1  0.07650171  0.66978653  0.10072385  1
  H+  H343  1  0.33870190  0.42466744  0.73189742  1
  H+  H344  1  0.73658507  0.11881241  0.98967391  1
  H+  H345  1  0.34627884  0.67527457  0.75752750  1
  H+  H346  1  0.57272470  0.66100904  0.07445046  1
  H+  H347  1  0.07869576  0.92603058  0.76472468  1
  H+  H348  1  0.08262210  0.41114078  0.09912395  1
  H+  H349  1  0.83006558  0.94316544  0.78329641  1
  H+  H350  1  0.91976665  0.59350308  0.26622241  1
  H+  H351  1  0.09628063  0.16665523  0.10362261  1
  H+  H352  1  0.66668461  0.82535161  0.94228128  1
  H+  H353  1  0.58686207  0.16990416  0.10136898  1
  H+  H354  1  0.52286999  0.15057057  0.67259258  1
  H+  H355  1  0.88846005  0.09737889  1.00604811  1
  H+  H356  1  0.37944984  0.81732709  0.31188987  1
  H+  H357  1  0.66190104  0.33374520  0.59625528  1
  H+  H358  1  0.08917814  0.17130953  0.77404171  1
  H+  H359  1  0.65137368  0.57505744  0.89924677  1
  H+  H360  1  0.16710816  0.33470232  0.90192912  1
  H+  H361  1  0.10134311  0.36524740  0.34549018  1
  H+  H362  1  0.67611408  0.83694437  0.24676768  1
  H+  H363  1  0.58350254  0.15899595  0.40253406  1
  H+  H364  1  0.66690850  0.84258263  0.55138224  1
  H+  H365  1  0.33036280  0.17667254  0.40659866  1
  H+  H366  1  0.81884116  0.40071082  0.76074519  1
  H+  H367  1  0.28969627  0.61471564  0.44793439  1
  H+  H368  1  0.92566982  0.07580866  0.61167431  1
  H+  H369  1  0.59049792  0.17454849  0.76352223  1
  H+  H370  1  0.32077014  0.41247164  0.07630595  1
  H+  H371  1  0.15308680  0.57372329  0.27067283  1
  H+  H372  1  0.08219174  0.41460016  0.43096873  1
  H+  H373  1  0.10088355  0.20025281  0.38583085  1
  H+  H374  1  0.82149452  0.93304623  0.37725813  1
  H+  H375  1  0.17472477  0.08868444  0.92926869  1
  H+  H376  1  0.47127575  0.36759692  0.32413969  1
  H+  H377  1  0.58741102  0.90497906  0.38461279  1
  H+  H378  1  0.12562186  0.76578988  0.81715517  1
  H+  H379  1  0.67717252  0.59131333  0.26698419  1
  H+  H380  1  0.10870256  0.63128100  0.34178295  1
  H+  H381  1  0.81885896  0.86295721  0.70303777  1
  H+  H382  1  0.88450509  0.52485407  0.18524691  1
  H+  H383  1  0.61185784  0.41847975  0.51110503  1
  O2-  O384  1  0.09162963  0.16472773  0.14873418  1
  O2-  O385  1  0.15673886  0.20993231  0.45301436  1
  O2-  O386  1  0.08479081  0.16994747  0.81896141  1
  O2-  O387  1  0.09361627  0.42328391  0.14419013  1
  O2-  O388  1  0.08264040  0.41730574  0.47712281  1
  O2-  O389  1  0.07958317  0.41588011  0.81285353  1
  O2-  O390  1  0.07724912  0.67050637  0.14613220  1
  O2-  O391  1  0.08965104  0.66753893  0.48313602  1
  O2-  O392  1  0.07076610  0.64740644  0.80798101  1
  O2-  O393  1  0.08484707  0.92942152  0.16773794  1
  O2-  O394  1  0.07848430  0.91381680  0.47491411  1
  O2-  O395  1  0.08207270  0.92176663  0.80952187  1
  O2-  O396  1  0.33654155  0.17414928  0.15621137  1
  O2-  O397  1  0.33982913  0.17975542  0.48448651  1
  O2-  O398  1  0.34601640  0.18873915  0.81644075  1
  O2-  O399  1  0.31990120  0.41356080  0.15524319  1
  O2-  O400  1  0.35190849  0.43459911  0.48873498  1
  O2-  O401  1  0.33261143  0.41968428  0.80915704  1
  O2-  O402  1  0.32174433  0.66551462  0.16443640  1
  O2-  O403  1  0.29000323  0.59974522  0.49266775  1
  O2-  O404  1  0.34490605  0.67640620  0.80268073  1
  O2-  O405  1  0.33342183  0.92251389  0.15482958  1
  O2-  O406  1  0.33882089  0.92254803  0.53786435  1
  O2-  O407  1  0.32619772  0.90079616  0.78857700  1
  O2-  O408  1  0.58677205  0.16869730  0.14693057  1
  O2-  O409  1  0.59343345  0.16542123  0.48052989  1
  O2-  O410  1  0.59291152  0.17546597  0.80930186  1
  O2-  O411  1  0.58301808  0.41901790  0.14951456  1
  O2-  O412  1  0.58335054  0.44174044  0.48617046  1
  O2-  O413  1  0.58912652  0.42134496  0.81064102  1
  O2-  O414  1  0.57384144  0.66022506  0.15584331  1
  O2-  O415  1  0.58635240  0.68346221  0.46086063  1
  O2-  O416  1  0.59718805  0.67302843  0.81467044  1
  O2-  O417  1  0.60485941  0.92600935  0.13133869  1
  O2-  O418  1  0.56062846  0.92013865  0.46650352  1
  O2-  O419  1  0.58975029  0.91546703  0.82252337  1
  O2-  O420  1  0.82924774  0.16343717  0.14484474  1
  O2-  O421  1  0.83769817  0.17253757  0.48318348  1
  O2-  O422  1  0.83932816  0.16584729  0.81586483  1
  O2-  O423  1  0.83178736  0.41089355  0.20191265  1
  O2-  O424  1  0.84283297  0.42769456  0.47275634  1
  O2-  O425  1  0.81939935  0.39811676  0.80759058  1
  O2-  O426  1  0.82859921  0.66832609  0.14606798  1
  O2-  O427  1  0.83634171  0.66348211  0.46539998  1
  O2-  O428  1  0.83514082  0.66323511  0.82095640  1
  O2-  O429  1  0.84646969  0.93254109  0.14146101  1
  O2-  O430  1  0.85313537  0.92841766  0.50221747  1
  O2-  O431  1  0.83490982  0.92943731  0.82539912  1
  O2-  O432  1  0.18079702  0.09562830  0.20466640  1
  O2-  O433  1  0.16114184  0.08133367  0.51740231  1
  O2-  O434  1  0.17308141  0.08999361  0.85492564  1
  O2-  O435  1  0.15247136  0.30820918  0.20432320  1
  O2-  O436  1  0.17230133  0.34049767  0.51905508  1
  O2-  O437  1  0.16740333  0.33468884  0.85641499  1
  O2-  O438  1  0.15355804  0.58622776  0.19230874  1
  O2-  O439  1  0.21422122  0.62186868  0.60488924  1
  O2-  O440  1  0.18432032  0.59251156  0.84487950  1
  O2-  O441  1  0.16432490  0.83507458  0.19142530  1
  O2-  O442  1  0.16226135  0.84137604  0.52384667  1
  O2-  O443  1  0.15667444  0.82318333  0.83624900  1
  O2-  O444  1  0.42342320  0.09341426  0.19376124  1
  O2-  O445  1  0.42714803  0.10095299  0.51986369  1
  O2-  O446  1  0.42239214  0.10495872  0.85294412  1
  O2-  O447  1  0.41685786  0.33712176  0.18653549  1
  O2-  O448  1  0.41938564  0.34847612  0.52492162  1
  O2-  O449  1  0.42603174  0.34892140  0.85585356  1
  O2-  O450  1  0.40427880  0.57259635  0.20884772  1
  O2-  O451  1  0.43687952  0.59209198  0.51148109  1
  O2-  O452  1  0.41778076  0.59152828  0.83881347  1
  O2-  O453  1  0.37940895  0.82004837  0.21814552  1
  O2-  O454  1  0.38821896  0.81456176  0.47124165  1
  O2-  O455  1  0.43298506  0.83686804  0.84795487  1
  O2-  O456  1  0.66857113  0.08558145  0.18523403  1
  O2-  O457  1  0.67886840  0.08455447  0.52899720  1
  O2-  O458  1  0.66796650  0.07763573  0.85173962  1
  O2-  O459  1  0.66037114  0.33086106  0.19497971  1
  O2-  O460  1  0.67337003  0.34027523  0.49648735  1
  O2-  O461  1  0.67162634  0.33335917  0.85134620  1
  O2-  O462  1  0.66384305  0.58184700  0.19339278  1
  O2-  O463  1  0.67112689  0.61914843  0.50740916  1
  O2-  O464  1  0.67096364  0.58177816  0.85618293  1
  O2-  O465  1  0.67909846  0.83215403  0.17062529  1
  O2-  O466  1  0.67908083  0.85180369  0.50671326  1
  O2-  O467  1  0.66519732  0.83275307  0.85989643  1
  O2-  O468  1  0.89860801  0.08280881  0.18872859  1
  O2-  O469  1  0.92652577  0.09518107  0.53570166  1
  O2-  O470  1  0.92411674  0.08658045  0.86785221  1
  O2-  O471  1  0.91993643  0.32391692  0.19384876  1
  O2-  O472  1  0.91657858  0.33791307  0.52119229  1
  O2-  O473  1  0.91269432  0.33456198  0.85112845  1
  O2-  O474  1  0.91269793  0.58833809  0.18925373  1
  O2-  O475  1  0.93035471  0.59018756  0.52086402  1
  O2-  O476  1  0.92196731  0.59526484  0.86037869  1
  O2-  O477  1  0.91848615  0.83795195  0.19016925  1
  O2-  O478  1  0.92139325  0.80511876  0.52311129  1
  O2-  O479  1  0.91423183  0.83702024  0.85337709  1
  O2-  O480  1  0.17567947  0.11528158  0.31801254  1
  O2-  O481  1  0.15602529  0.08048090  0.63518753  1
  O2-  O482  1  0.17020511  0.08130899  0.97510838  1
  O2-  O483  1  0.13700896  0.28959724  0.32588210  1
  O2-  O484  1  0.17229868  0.33092659  0.64576473  1
  O2-  O485  1  0.16201874  0.32771419  0.98096696  1
  O2-  O486  1  0.15237704  0.57027896  0.31598014  1
  O2-  O487  1  0.13016856  0.54470281  0.61616937  1
  O2-  O488  1  0.12832538  0.54972900  0.98372313  1
  O2-  O489  1  0.16133312  0.83694300  0.31519935  1
  O2-  O490  1  0.16716514  0.84965939  0.64852437  1
  O2-  O491  1  0.06557132  0.76080405  0.94174105  1
  O2-  O492  1  0.41259379  0.09938962  0.31784901  1
  O2-  O493  1  0.43349015  0.11327478  0.64896145  1
  O2-  O494  1  0.43220265  0.08556422  0.98002648  1
  O2-  O495  1  0.41378058  0.34242699  0.30377170  1
  O2-  O496  1  0.44419268  0.36626723  0.64246508  1
  O2-  O497  1  0.41401305  0.33564185  0.98604268  1
  O2-  O498  1  0.37818560  0.54372412  0.33327055  1
  O2-  O499  1  0.42640264  0.58282882  0.63687775  1
  O2-  O500  1  0.40578050  0.58829247  0.99892084  1
  O2-  O501  1  0.40464056  0.80815782  0.34883581  1
  O2-  O502  1  0.44192055  0.82626637  0.63866504  1
  O2-  O503  1  0.44671183  0.84109171  0.97326924  1
  O2-  O504  1  0.66257047  0.07822645  0.31083378  1
  O2-  O505  1  0.66162757  0.07652029  0.65072052  1
  O2-  O506  1  0.67660167  0.09065027  0.97345131  1
  O2-  O507  1  0.65936120  0.32642579  0.31831433  1
  O2-  O508  1  0.66548900  0.33527890  0.64068616  1
  O2-  O509  1  0.66283917  0.33390644  0.97414492  1
  O2-  O510  1  0.68215134  0.60112506  0.31261862  1
  O2-  O511  1  0.74338259  0.62397038  0.67180453  1
  O2-  O512  1  0.58669673  0.54652391  0.96635913  1
  O2-  O513  1  0.67751246  0.84077678  0.29248250  1
  O2-  O514  1  0.66418696  0.83542866  0.62903919  1
  O2-  O515  1  0.66701758  0.83102549  0.98695793  1
  O2-  O516  1  0.91905409  0.10260304  0.30612526  1
  O2-  O517  1  0.92891698  0.05819421  0.65466590  1
  O2-  O518  1  0.92071991  0.06716672  0.99314079  1
  O2-  O519  1  0.91428126  0.32978917  0.31880349  1
  O2-  O520  1  0.91152646  0.33173339  0.64638903  1
  O2-  O521  1  0.91370460  0.32351434  0.97697408  1
  O2-  O522  1  0.91843370  0.58925055  0.31167093  1
  O2-  O523  1  0.90606533  0.56636998  0.64158338  1
  O2-  O524  1  0.90480628  0.57302289  0.97787124  1
  O2-  O525  1  0.92102963  0.83550299  0.31400439  1
  O2-  O526  1  0.92881878  0.80664370  0.64368560  1
  O2-  O527  1  0.90288911  0.85355696  0.97388203  1
  O2-  O528  1  0.09214673  0.16451207  0.02412467  1
  O2-  O529  1  0.08951721  0.19664925  0.34059707  1
  O2-  O530  1  0.10186849  0.17119419  0.68998407  1
  O2-  O531  1  0.07201819  0.39567574  0.02531400  1
  O2-  O532  1  0.07819501  0.40319920  0.35690756  1
  O2-  O533  1  0.08155105  0.40583372  0.68859544  1
  O2-  O534  1  0.06327479  0.65196465  0.02276954  1
  O2-  O535  1  0.08106163  0.66438999  0.35636261  1
  O2-  O536  1  0.05987150  0.62124891  0.68475124  1
  O2-  O537  1  0.06608730  0.90668922  -0.00854202  1
  O2-  O538  1  0.07577321  0.90088862  0.35772420  1
  O2-  O539  1  0.08328122  0.93131036  0.68232785  1
  O2-  O540  1  0.30863208  0.11181181  0.03735874  1
  O2-  O541  1  0.32341696  0.17355248  0.36117156  1
  O2-  O542  1  0.35233352  0.19296793  0.68950409  1
  O2-  O543  1  0.32159437  0.41355377  0.03078134  1
  O2-  O544  1  0.30499260  0.40856515  0.43071000  1
  O2-  O545  1  0.34245814  0.42648650  0.68623952  1
  O2-  O546  1  0.29074704  0.65028607  0.03453687  1
  O2-  O547  1  0.30121765  0.63762351  0.37727363  1
  O2-  O548  1  0.35170822  0.66948891  0.67670184  1
  O2-  O549  1  0.36814175  0.92114459  0.02774659  1
  O2-  O550  1  0.32316405  0.93213707  0.35114928  1
  O2-  O551  1  0.32355391  0.88612910  0.67016224  1
  O2-  O552  1  0.59451553  0.17060956  0.02246900  1
  O2-  O553  1  0.57877994  0.16067104  0.35735308  1
  O2-  O554  1  0.58680652  0.17822437  0.68710043  1
  O2-  O555  1  0.57685549  0.40774093  0.02631115  1
  O2-  O556  1  0.56484536  0.40066266  0.35947634  1
  O2-  O557  1  0.61378725  0.44779368  0.68681168  1
  O2-  O558  1  0.57080063  0.66460142  0.02937591  1
  O2-  O559  1  0.60688600  0.67790961  0.34023389  1
  O2-  O560  1  0.55789846  0.70251568  0.69806642  1
  O2-  O561  1  0.60359821  0.92679284  0.01272076  1
  O2-  O562  1  0.58089533  0.90345233  0.34007888  1
  O2-  O563  1  0.59656498  0.91868650  0.67771424  1
  O2-  O564  1  0.83965502  0.15790706  0.01969132  1
  O2-  O565  1  0.82543808  0.16346550  0.35751118  1
  O2-  O566  1  0.82837774  0.17307856  0.68608733  1
  O2-  O567  1  0.82965789  0.40872084  0.01704975  1
  O2-  O568  1  0.83507264  0.42303045  0.34382443  1
  O2-  O569  1  0.82270430  0.40652541  0.68946095  1
  O2-  O570  1  0.87670888  0.69622897  0.02845746  1
  O2-  O571  1  0.83822087  0.67723190  0.35255593  1
  O2-  O572  1  0.82883379  0.64594786  0.69626968  1
  O2-  O573  1  0.86717156  0.98030865  0.01958202  1
  O2-  O574  1  0.84494905  0.93505434  0.33697849  1
  O2-  O575  1  0.82815171  0.88124283  0.66055145  1
