# generated using pymatgen
data_H2O
_symmetry_space_group_name_H-M   'P 1'
_cell_length_a   17.98568939
_cell_length_b   17.97449828
_cell_length_c   21.97730155
_cell_angle_alpha   89.92986988
_cell_angle_beta   90.02628968
_cell_angle_gamma   119.99457653
_symmetry_Int_Tables_number   1
_chemical_formula_structural   H2O
_chemical_formula_sum   'H384 O192'
_cell_volume   6153.35915550
_cell_formula_units_Z   192
loop_
 _symmetry_equiv_pos_site_id
 _symmetry_equiv_pos_as_xyz
  1  'x, y, z'
loop_
 _atom_type_symbol
 _atom_type_oxidation_number
  H+  1.0
  O2-  -2.0
loop_
 _atom_site_type_symbol
 _atom_site_label
 _atom_site_symmetry_multiplicity
 _atom_site_fract_x
 _atom_site_fract_y
 _atom_site_fract_z
 _atom_site_occupancy
  H+  H0  1  0.08943775  0.42961123  0.72032604  1
  H+  H1  1  0.10419785  0.38541471  0.11595970  1
  H+  H2  1  0.85729653  -0.01587696  0.83454361  1
  H+  H3  1  0.70385422  0.90150044  0.34557244  1
  H+  H4  1  0.56055451  0.00516379  0.81825821  1
  H+  H5  1  0.57962742  0.23812119  0.78631115  1
  H+  H6  1  0.39595597  0.63098475  0.28846032  1
  H+  H7  1  0.74698738  0.14393662  0.51305468  1
  H+  H8  1  1.06148398  0.92132040  0.98134894  1
  H+  H9  1  0.87567760  0.38854668  0.16520643  1
  H+  H10  1  0.89848346  0.49003318  1.00953762  1
  H+  H11  1  0.14677855  0.11286208  1.00157297  1
  H+  H12  1  0.64612253  0.11952913  0.66753089  1
  H+  H13  1  0.61548958  0.97986982  0.67214921  1
  H+  H14  1  0.47531959  0.11722947  1.00166704  1
  H+  H15  1  0.09589408  0.38225664  0.32864789  1
  H+  H16  1  0.11472173  0.14016838  0.18361675  1
  H+  H17  1  0.38784261  0.01507970  0.66269750  1
  H+  H18  1  0.88442746  0.59882109  0.17209686  1
  H+  H19  1  0.27057747  0.87888571  0.98080196  1
  H+  H20  1  0.62415956  0.16727961  0.49966725  1
  H+  H21  1  0.77539751  0.13391982  0.20204197  1
  H+  H22  1  -0.02651696  0.10053753  0.65403230  1
  H+  H23  1  0.62013158  0.23096317  0.65931794  1
  H+  H24  1  0.14259193  0.10818906  0.65693819  1
  H+  H25  1  0.97458136  0.66235874  0.52963579  1
  H+  H26  1  0.86136341  0.48025105  0.67735564  1
  H+  H27  1  0.74346349  0.38672582  0.50944505  1
  H+  H28  1  0.23308011  0.11722388  0.84006873  1
  H+  H29  1  0.13147586  0.10368969  0.49994811  1
  H+  H30  1  0.38782780  0.60832325  1.00062225  1
  H+  H31  1  0.12003188  0.23463834  0.83679678  1
  H+  H32  1  0.87589894  0.24230977  0.49756130  1
  H+  H33  1  0.60512600  0.71835039  1.01598404  1
  H+  H34  1  0.85563691  0.18642603  0.05759622  1
  H+  H35  1  0.11685437  0.73070915  0.83875111  1
  H+  H36  1  0.12197147  0.14759852  0.83641957  1
  H+  H37  1  0.86068020  -0.03123003  0.67201123  1
  H+  H38  1  0.33599743  0.16726839  0.09344155  1
  H+  H39  1  0.46988878  0.36731589  0.50672239  1
  H+  H40  1  0.88532655  0.87431331  0.51383084  1
  H+  H41  1  0.60949791  0.18499793  0.34026169  1
  H+  H42  1  0.03693202  0.65878990  0.17041576  1
  H+  H43  1  0.71815776  0.60577814  -0.01416168  1
  H+  H44  1  0.22344606  0.35111425  0.49041862  1
  H+  H45  1  0.39975898  0.63659298  0.50379745  1
  H+  H46  1  0.06781202  0.34057564  0.78460382  1
  H+  H47  1  0.65823822  0.57139655  0.23276741  1
  H+  H48  1  0.37339897  0.77654381  0.84400606  1
  H+  H49  1  0.98452052  0.35874619  0.50203392  1
  H+  H50  1  0.63542475  0.51332865  0.83173589  1
  H+  H51  1  0.36267104  0.22821388  0.16039534  1
  H+  H52  1  0.41731686  0.32229820  0.89863294  1
  H+  H53  1  0.61206799  0.40003518  0.49149568  1
  H+  H54  1  0.88384983  0.02598715  0.49995095  1
  H+  H55  1  0.97402632  0.86961553  0.84090407  1
  H+  H56  1  1.01348869  0.88289829  0.67529904  1
  H+  H57  1  0.18117600  0.09007584  0.94091620  1
  H+  H58  1  0.38415261  0.86586378  0.65444389  1
  H+  H59  1  0.56429134  0.67581793  0.17127224  1
  H+  H60  1  0.06784117  0.91693434  -0.05207661  1
  H+  H61  1  0.60746778  0.40136150  0.32651019  1
  H+  H62  1  0.26706813  0.88060143  0.68917277  1
  H+  H63  1  0.92197655  0.38060132  1.00095608  1
  H+  H64  1  0.65425600  0.63101178  0.50793590  1
  H+  H65  1  0.38921733  0.85678390  0.99055294  1
  H+  H66  1  0.61897639  0.96657751  0.45385306  1
  H+  H67  1  0.78629901  0.17749230  0.84654690  1
  H+  H68  1  0.17470634  0.57461350  0.91151868  1
  H+  H69  1  0.86924830  0.68017475  0.32425138  1
  H+  H70  1  0.77479366  0.62817765  0.48495346  1
  H+  H71  1  0.37040717  0.14000307  0.01518078  1
  H+  H72  1  0.15303347  0.37015908  0.85177887  1
  H+  H73  1  0.37381691  0.57051736  0.85398927  1
  H+  H74  1  0.39199546  0.86727354  0.15716859  1
  H+  H75  1  0.34646105  0.45626354  0.30649537  1
  H+  H76  1  0.50695032  0.87390303  0.82372264  1
  H+  H77  1  0.73548554  0.16154551  0.33626168  1
  H+  H78  1  0.97531227  0.09347338  0.32983088  1
  H+  H79  1  0.36127028  0.13338922  0.16016519  1
  H+  H80  1  0.15795373  0.82008746  0.76108946  1
  H+  H81  1  0.61902277  0.50484319  0.17512082  1
  H+  H82  1  0.67875906  0.34268789  0.59615358  1
  H+  H83  1  0.10605474  -0.02905981  0.67293811  1
  H+  H84  1  0.88175139  0.82270664  0.32725603  1
  H+  H85  1  0.63228742  0.03573616  0.19216679  1
  H+  H86  1  0.38436107  0.03150790  0.99237307  1
  H+  H87  1  0.63069598  0.65576015  0.34459303  1
  H+  H88  1  1.03127794  0.90160282  0.16784432  1
  H+  H89  1  0.48013117  0.87652609  0.49444626  1
  H+  H90  1  0.46397102  0.10528519  0.34514413  1
  H+  H91  1  0.73621298  0.36829764  0.16073143  1
  H+  H92  1  0.10989415  0.37022351  0.48490591  1
  H+  H93  1  0.34215143  0.36860809  0.32143909  1
  H+  H94  1  0.97528723  0.37287376  0.66766690  1
  H+  H95  1  0.89900653  0.36611405  0.50804725  1
  H+  H96  1  0.53342606  0.16408127  0.50187314  1
  H+  H97  1  0.32474193  0.16348107  0.72419195  1
  H+  H98  1  0.14328037  0.76938122  -0.00908789  1
  H+  H99  1  0.84794258  0.89142326  0.83666229  1
  H+  H100  1  0.87948005  0.13692334  0.34283738  1
  H+  H101  1  0.36600887  0.22149234  0.82360371  1
  H+  H102  1  0.59394456  0.85754645  0.32931347  1
  H+  H103  1  0.87872241  0.47883797  0.16991231  1
  H+  H104  1  0.47853991  0.62217007  0.65970700  1
  H+  H105  1  0.63193208  0.74547934  0.34848507  1
  H+  H106  1  0.37210628  0.45834294  0.83644730  1
  H+  H107  1  0.22383347  0.09858578  0.65335214  1
  H+  H108  1  0.44387062  0.83098804  0.31445090  1
  H+  H109  1  0.11594134  0.64123892  0.84395936  1
  H+  H110  1  0.12909692  0.37794194  1.02052679  1
  H+  H111  1  0.90650458  0.34578906  0.27179686  1
  H+  H112  1  0.07309611  0.82516238  0.50121412  1
  H+  H113  1  0.11169540  0.48409631  0.65831363  1
  H+  H114  1  0.34919912  0.92765279  -0.06377927  1
  H+  H115  1  0.36942854  0.72184393  0.01569017  1
  H+  H116  1  0.86494719  0.72608828  0.67115525  1
  H+  H117  1  0.35577745  0.49291309  0.68392807  1
  H+  H118  1  0.77846895  0.88429244  0.16661285  1
  H+  H119  1  0.36601859  0.47182256  0.01276323  1
  H+  H120  1  0.22859603  0.86671656  0.33105930  1
  H+  H121  1  0.10773162  -0.03024585  0.48544173  1
  H+  H122  1  0.47701034  0.60701570  1.00158364  1
  H+  H123  1  0.83635998  0.15444537  0.25839912  1
  H+  H124  1  0.51026206  0.38298065  0.33251771  1
  H+  H125  1  0.36252321  0.66279206  0.81195297  1
  H+  H126  1  0.11964414  0.72395955  0.33238099  1
  H+  H127  1  0.35658488  0.13042358  0.66886536  1
  H+  H128  1  0.14717007  0.51564207  0.00747712  1
  H+  H129  1  0.63639060  0.86703980  0.65804838  1
  H+  H130  1  0.88345481  0.85808494  0.66452266  1
  H+  H131  1  0.37330999  0.64540813  0.18176366  1
  H+  H132  1  0.38427021  0.27970230  0.62439345  1
  H+  H133  1  0.86049048  0.14940900  0.84311267  1
  H+  H134  1  0.14287098  0.52264045  0.84891009  1
  H+  H135  1  0.87886879  0.27427759  0.68413864  1
  H+  H136  1  0.81752752  0.61937365  0.42104465  1
  H+  H137  1  1.01623452  0.87028730  0.32904100  1
  H+  H138  1  0.61300069  0.13664066  0.01175882  1
  H+  H139  1  0.08913440  0.70051150  0.47548049  1
  H+  H140  1  0.84503114  0.88256619  0.00541781  1
  H+  H141  1  0.48063448  0.86365097  0.00157051  1
  H+  H142  1  0.97154826  0.87116436  0.50835991  1
  H+  H143  1  1.04320551  0.38288717  1.02114874  1
  H+  H144  1  0.60621486  0.38109052  0.15279440  1
  H+  H145  1  0.79103841  0.39252012  0.83743569  1
  H+  H146  1  0.62344926  0.52318057  0.32327408  1
  H+  H147  1  0.16722897  0.79322817  0.17687779  1
  H+  H148  1  0.26647943  0.63999240  0.82739592  1
  H+  H149  1  0.78111650  0.15525223  0.68863665  1
  H+  H150  1  0.74579224  0.96133616  0.21594107  1
  H+  H151  1  0.26872375  0.13354212  0.49422652  1
  H+  H152  1  0.88264803  0.49067762  0.50307509  1
  H+  H153  1  0.34841430  0.70241987  0.32740653  1
  H+  H154  1  0.72173389  0.59593383  0.31777002  1
  H+  H155  1  0.14942710  0.87253736  0.84661640  1
  H+  H156  1  0.35079381  0.96314926  0.30566290  1
  H+  H157  1  0.36157351  0.73455622  0.66026769  1
  H+  H158  1  0.18586042  0.59664001  0.55168245  1
  H+  H159  1  0.01965143  0.60591579  0.47329486  1
  H+  H160  1  0.88915560  0.11790653  0.50640164  1
  H+  H161  1  0.59392362  0.35462904  0.67467798  1
  H+  H162  1  0.39100518  0.02761722  0.38265342  1
  H+  H163  1  0.20827062  0.35612008  0.31255060  1
  H+  H164  1  0.26060549  0.87940897  0.83183319  1
  H+  H165  1  0.53566322  0.22924619  0.79548572  1
  H+  H166  1  0.59258782  0.60593956  0.16444861  1
  H+  H167  1  -0.02473296  0.11867344  0.84424428  1
  H+  H168  1  0.61231626  0.89182768  1.01440785  1
  H+  H169  1  0.11791258  0.51386651  0.31929713  1
  H+  H170  1  0.75558621  0.24409827  0.30261230  1
  H+  H171  1  0.39093167  1.01557399  0.48048958  1
  H+  H172  1  0.65448575  0.06146935  0.52291304  1
  H+  H173  1  0.72384858  0.61479084  0.66098936  1
  H+  H174  1  0.02102889  0.63468756  0.65659999  1
  H+  H175  1  0.90382816  0.29249100  0.84829493  1
  H+  H176  1  0.77036995  0.88867143  0.49086069  1
  H+  H177  1  0.23297067  0.60624516  0.00427070  1
  H+  H178  1  0.84809993  0.71540245  1.00852618  1
  H+  H179  1  0.44685545  0.54704518  0.21115648  1
  H+  H180  1  0.64502448  0.13291614  0.85545939  1
  H+  H181  1  0.72916860  0.36120447  0.66076732  1
  H+  H182  1  0.60856820  0.47491425  1.00302552  1
  H+  H183  1  0.61486393  0.63498285  0.82568493  1
  H+  H184  1  0.88127750  0.84400541  0.17006345  1
  H+  H185  1  0.88036897  0.60971900  0.66154167  1
  H+  H186  1  0.89114955  0.24638462  -0.00016476  1
  H+  H187  1  0.74505414  0.46199702  0.28715765  1
  H+  H188  1  0.65684138  0.35258380  0.84626122  1
  H+  H189  1  0.29474473  0.65042393  0.48484191  1
  H+  H190  1  0.38152698  0.74065793  0.48209027  1
  H+  H191  1  0.95045386  0.85426715  1.00277128  1
  H+  H192  1  0.41690405  0.82797941  0.90629189  1
  H+  H193  1  0.10547080  0.22176046  0.16595860  1
  H+  H194  1  0.50710595  0.35918012  0.67202980  1
  H+  H195  1  0.49464217  0.63240072  0.50463146  1
  H+  H196  1  0.52040194  0.38487420  1.00372171  1
  H+  H197  1  0.13548108  0.61402003  0.64207223  1
  H+  H198  1  0.88469747  0.02340292  0.99874160  1
  H+  H199  1  1.02722044  0.12695717  1.01552148  1
  H+  H200  1  0.25762332  0.81235033  0.51298089  1
  H+  H201  1  0.97841821  0.09984202  0.17608484  1
  H+  H202  1  0.65146641  0.30074734  0.50599248  1
  H+  H203  1  0.28849440  0.89646263  0.14765834  1
  H+  H204  1  0.86785630  0.94796395  0.33723292  1
  H+  H205  1  0.14332155  0.26163419  0.00406628  1
  H+  H206  1  0.23891577  0.36336467  0.84882168  1
  H+  H207  1  0.89156611  0.61427956  0.99228871  1
  H+  H208  1  0.63541381  0.86190579  0.50281257  1
  H+  H209  1  0.74344711  0.58649264  0.15297349  1
  H+  H210  1  0.63612222  0.61505821  0.65989996  1
  H+  H211  1  0.56821998  0.93243067  0.32740122  1
  H+  H212  1  1.02645368  0.38268435  0.82486591  1
  H+  H213  1  0.15759519  0.62018468  0.48930645  1
  H+  H214  1  0.88904211  0.09744229  0.18849838  1
  H+  H215  1  0.13479203  0.03967237  0.84086785  1
  H+  H216  1  0.12821695  0.02659084  0.20855809  1
  H+  H217  1  0.12537651  0.85619550  0.70814152  1
  H+  H218  1  0.23043631  0.82692737  0.49661418  1
  H+  H219  1  0.51130543  0.06034909  0.81646641  1
  H+  H220  1  0.21448869  0.23143167  0.70676771  1
  H+  H221  1  0.89103193  0.61232682  0.83834895  1
  H+  H222  1  0.39027933  0.62448373  0.65468891  1
  H+  H223  1  0.27896197  0.37981640  0.01321406  1
  H+  H224  1  0.33650394  0.91041547  0.73814101  1
  H+  H225  1  0.68896731  0.87683485  0.25505802  1
  H+  H226  1  0.38170072  0.27895828  0.50943129  1
  H+  H227  1  0.63004732  0.60741718  0.98945000  1
  H+  H228  1  -0.01072355  0.34928136  0.18534911  1
  H+  H229  1  0.58169479  0.39516097  0.76910518  1
  H+  H230  1  0.89913987  0.11939986  0.99608289  1
  H+  H231  1  0.28040661  0.14256112  1.01376041  1
  H+  H232  1  0.02218250  0.13111023  0.48712219  1
  H+  H233  1  0.87699085  0.37750801  0.33267711  1
  H+  H234  1  0.10881328  0.13488622  0.33101746  1
  H+  H235  1  0.85127380  0.49292285  0.34711425  1
  H+  H236  1  0.76635272  0.62425164  0.82357836  1
  H+  H237  1  0.11919027  0.26779577  0.31752225  1
  H+  H238  1  0.89849783  0.76544109  0.16430255  1
  H+  H239  1  0.39066286  0.35011542  0.83715034  1
  H+  H240  1  0.11754631  0.63388102  0.01259121  1
  H+  H241  1  0.61735080  0.98346935  0.01006796  1
  H+  H242  1  0.15036417  0.28853556  0.65698503  1
  H+  H243  1  0.35765569  0.88545657  0.83477920  1
  H+  H244  1  0.39045748  0.27333342  0.99735298  1
  H+  H245  1  0.41886865  0.07743883  0.75036895  1
  H+  H246  1  0.72434199  0.86356629  0.66013696  1
  H+  H247  1  0.08572724  0.15353283  0.07575386  1
  H+  H248  1  0.14375361  0.33482503  0.22612486  1
  H+  H249  1  0.62582013  0.91239456  0.17357789  1
  H+  H250  1  0.87699702  0.48530891  0.83202943  1
  H+  H251  1  0.73648476  0.12476344  0.99837908  1
  H+  H252  1  0.23657620  0.59610453  0.17738668  1
  H+  H253  1  0.38910813  0.36151108  0.99470125  1
  H+  H254  1  0.71252792  0.86550974  0.84718546  1
  H+  H255  1  0.41636555  0.84928428  0.55091170  1
  H+  H256  1  0.00884798  0.38623693  0.33699811  1
  H+  H257  1  0.89712306  0.26745698  0.19595704  1
  H+  H258  1  0.37411889  0.34966284  0.17125016  1
  H+  H259  1  0.85481201  0.71384837  0.82664991  1
  H+  H260  1  0.60007535  0.88532208  0.82513089  1
  H+  H261  1  0.26666236  0.38122871  0.16120916  1
  H+  H262  1  0.17746883  1.00150971  0.03377298  1
  H+  H263  1  0.34793965  0.11809036  0.34574781  1
  H+  H264  1  0.71214766  0.85766180  0.00019234  1
  H+  H265  1  0.39237835  0.13184933  0.51064448  1
  H+  H266  1  1.03209356  0.64001233  1.00775722  1
  H+  H267  1  0.47951757  0.86687552  0.16872256  1
  H+  H268  1  0.37414062  0.25964505  0.32450762  1
  H+  H269  1  0.15956544  0.49774103  0.18156339  1
  H+  H270  1  0.00838941  0.99052641  0.79083841  1
  H+  H271  1  0.18676372  0.84581778  0.39706883  1
  H+  H272  1  0.88205531  0.37556575  0.67693301  1
  H+  H273  1  0.52616410  0.63253243  0.83280297  1
  H+  H274  1  0.11368542  0.21808886  0.48638013  1
  H+  H275  1  0.47456360  0.86895764  0.65053777  1
  H+  H276  1  0.53463118  0.37782206  0.83162544  1
  H+  H277  1  0.37834031  1.01195696  0.80543734  1
  H+  H278  1  0.88173373  0.61284634  0.50003056  1
  H+  H279  1  0.11150231  0.88798537  0.34120362  1
  H+  H280  1  0.61037074  0.73115390  0.67453087  1
  H+  H281  1  0.61105722  0.14383982  0.16642364  1
  H+  H282  1  0.13286328  0.36680232  0.64746973  1
  H+  H283  1  0.35323453  0.38449795  0.47929186  1
  H+  H284  1  0.63407426  0.36151402  0.99604427  1
  H+  H285  1  0.46601036  0.35187405  0.16830275  1
  H+  H286  1  0.87072098  -0.03922308  0.15809470  1
  H+  H287  1  0.36249772  0.13193654  0.80961450  1
  H+  H288  1  0.63352558  0.27278207  0.99741265  1
  H+  H289  1  0.83344852  0.66475705  0.73022654  1
  H+  H290  1  0.39614926  0.81233513  0.25098067  1
  H+  H291  1  0.81346173  0.63891460  0.05902073  1
  H+  H292  1  0.57250464  0.64860806  0.07111740  1
  H+  H293  1  0.84806527  0.43534045  0.44263988  1
  H+  H294  1  0.05167441  0.94169336  0.75830419  1
  H+  H295  1  0.61411335  0.73083622  0.49724403  1
  H+  H296  1  0.90745454  0.38353076  0.84404909  1
  H+  H297  1  0.17404417  0.32443046  0.94523041  1
  H+  H298  1  0.90391865  0.58515564  0.23966911  1
  H+  H299  1  0.68568570  0.60589662  0.56825057  1
  H+  H300  1  0.58036291  0.67175536  0.73446047  1
  H+  H301  1  0.33156591  0.40848367  0.10578554  1
  H+  H302  1  0.09118902  0.68381336  0.10960729  1
  H+  H303  1  0.16151548  0.56905206  0.25353133  1
  H+  H304  1  0.68219750  0.12143145  0.94205625  1
  H+  H305  1  0.38773401  0.92907799  0.46228324  1
  H+  H306  1  0.34226577  0.66048795  0.07477839  1
  H+  H307  1  0.15908457  0.07177251  0.55987677  1
  H+  H308  1  0.08180508  0.16149775  0.39385662  1
  H+  H309  1  0.83142652  0.90706991  0.43258873  1
  H+  H310  1  0.98564673  0.61985154  0.84364948  1
  H+  H311  1  0.58089129  0.16655273  0.06981254  1
  H+  H312  1  0.38681388  0.02429204  0.16342624  1
  H+  H313  1  0.57289481  0.41380930  0.43058720  1
  H+  H314  1  0.64968268  0.82604195  0.94262998  1
  H+  H315  1  0.82622621  0.91531413  0.73431013  1
  H+  H316  1  0.88245949  0.22956532  0.34167831  1
  H+  H317  1  0.40329267  0.07201343  0.22777129  1
  H+  H318  1  0.83745227  0.18915451  0.75074672  1
  H+  H319  1  0.97657962  0.79264499  0.87235328  1
  H+  H320  1  0.92590880  0.58922467  0.93332857  1
  H+  H321  1  0.82163734  0.90983529  0.06774680  1
  H+  H322  1  0.62916674  0.77273211  0.84524191  1
  H+  H323  1  0.40362933  0.31582105  0.26346281  1
  H+  H324  1  0.10646596  0.71804073  0.67989440  1
  H+  H325  1  0.34788713  0.93364892  0.08624918  1
  H+  H326  1  0.66420932  0.11237508  0.24442522  1
  H+  H327  1  0.23451165  0.85983686  0.22638904  1
  H+  H328  1  0.11702995  0.94825357  0.12606811  1
  H+  H329  1  0.91706780  0.05783670  0.27089950  1
  H+  H330  1  0.16900628  0.32599780  0.55321118  1
  H+  H331  1  0.10046940  0.78860114  0.55819638  1
  H+  H332  1  0.69915345  0.23276945  0.87243692  1
  H+  H333  1  0.31840260  0.40410208  0.41782973  1
  H+  H334  1  0.91615876  0.07135255  0.59479343  1
  H+  H335  1  0.66667718  0.83854334  0.56575219  1
  H+  H336  1  0.22451736  0.61377459  0.64887160  1
  H+  H337  1  0.26531222  0.40782909  0.67979461  1
  H+  H338  1  0.34163401  0.86910529  0.29789539  1
  H+  H339  1  0.58826895  0.67429765  0.43585276  1
  H+  H340  1  0.92041160  0.08555752  0.90545210  1
  H+  H341  1  0.12337662  0.61260586  0.31279500  1
  H+  H342  1  0.68686538  0.37682304  0.24918144  1
  H+  H343  1  0.90692423  0.57857566  0.60157706  1
  H+  H344  1  0.32734943  0.16566876  0.43553116  1
  H+  H345  1  0.57215275  0.41222012  0.09659945  1
  H+  H346  1  0.91183230  0.80208648  0.26492699  1
  H+  H347  1  0.12786762  0.19267479  0.74358583  1
  H+  H348  1  0.77206805  0.53021422  0.11595633  1
  H+  H349  1  0.91791606  0.83845927  0.60226281  1
  H+  H350  1  0.57430568  0.91195203  0.72649839  1
  H+  H351  1  0.57282909  0.18956804  0.40401760  1
  H+  H352  1  0.69004600  0.10354216  0.61176607  1
  H+  H353  1  0.35527019  0.65518897  0.38550216  1
  H+  H354  1  0.42099201  0.56939329  0.91413389  1
  H+  H355  1  0.32900730  0.41537910  0.77309324  1
  H+  H356  1  0.83818078  0.17463284  0.43981224  1
  H+  H357  1  0.36533247  0.72513739  0.16144278  1
  H+  H358  1  0.68557870  0.33891508  0.91228437  1
  H+  H359  1  0.11965353  1.01079816  0.30568737  1
  H+  H360  1  0.59315164  0.93476841  0.11142634  1
  H+  H361  1  0.26292407  0.12322620  0.33290137  1
  H+  H362  1  0.56279634  0.88515114  0.41545936  1
  H+  H363  1  0.58575420  0.17997974  0.72081741  1
  H+  H364  1  0.07734357  0.65024247  0.38011310  1
  H+  H365  1  0.41952165  0.09638567  0.56911881  1
  H+  H366  1  0.83625146  0.42429435  0.74038213  1
  H+  H367  1  0.74100226  0.14147867  0.10206811  1
  H+  H368  1  0.47926473  0.10675069  0.65924464  1
  H+  H369  1  0.42767767  0.60123105  0.56864012  1
  H+  H370  1  0.90704100  0.82400305  0.93922398  1
  H+  H371  1  0.77483610  0.39999030  0.35359974  1
  H+  H372  1  0.87170139  0.43180521  0.06984697  1
  H+  H373  1  0.66044998  0.57317901  0.89105928  1
  H+  H374  1  0.64359776  0.28114743  0.16535866  1
  H+  H375  1  0.16671697  0.82694644  0.92870503  1
  H+  H376  1  0.77858963  0.86113550  0.33648588  1
  H+  H377  1  0.74844914  0.18645243  0.10369392  1
  H+  H378  1  0.52176111  0.14330091  0.16392860  1
  H+  H379  1  0.94946475  0.35297685  0.93870623  1
  H+  H380  1  0.16868887  0.91049373  0.03584156  1
  H+  H381  1  0.32575777  0.67795286  0.72059218  1
  H+  H382  1  0.06941278  0.91356117  0.42460341  1
  H+  H383  1  0.08032586  0.40800910  0.43035987  1
  O2-  O384  1  0.08304262  0.15996344  0.15712299  1
  O2-  O385  1  0.08175736  0.15668552  0.47055764  1
  O2-  O386  1  0.09091413  0.17577209  0.81834352  1
  O2-  O387  1  0.10158634  0.38187927  0.16229844  1
  O2-  O388  1  0.07833646  0.40109128  0.47483325  1
  O2-  O389  1  0.08254523  0.39547233  0.80338521  1
  O2-  O390  1  0.09550631  0.69328607  0.15398584  1
  O2-  O391  1  0.07756481  0.64500057  0.45721866  1
  O2-  O392  1  0.08397073  0.66794490  0.82764124  1
  O2-  O393  1  0.08578509  0.95521144  0.16115743  1
  O2-  O394  1  0.07115362  0.90982141  0.46973037  1
  O2-  O395  1  0.03638345  0.95733283  0.80023301  1
  O2-  O396  1  0.33310977  0.16566962  0.14311419  1
  O2-  O397  1  0.32988068  0.16778391  0.48065155  1
  O2-  O398  1  0.32914311  0.16232293  0.80577451  1
  O2-  O399  1  0.32727633  0.40260985  0.15100352  1
  O2-  O400  1  0.31550356  0.40525361  0.46244798  1
  O2-  O401  1  0.33451071  0.40164845  0.81732379  1
  O2-  O402  1  0.34107627  0.66234746  0.15352322  1
  O2-  O403  1  0.35787249  0.67893430  0.47159406  1
  O2-  O404  1  0.32062989  0.68093427  0.80455101  1
  O2-  O405  1  0.35167766  0.93177186  0.13041236  1
  O2-  O406  1  0.37081294  0.97061482  0.44831175  1
  O2-  O407  1  0.32596687  0.91159388  0.81570323  1
  O2-  O408  1  0.58182772  0.17362888  0.14862999  1
  O2-  O409  1  0.59233246  0.19467304  0.48343415  1
  O2-  O410  1  0.55878002  0.05532341  0.83463485  1
  O2-  O411  1  0.56958653  0.40663678  0.14249114  1
  O2-  O412  1  0.56734921  0.41102677  0.47534350  1
  O2-  O413  1  0.59337242  0.40866704  0.81409411  1
  O2-  O414  1  0.55089435  0.62370157  0.14903191  1
  O2-  O415  1  0.57996446  0.67052172  0.48209360  1
  O2-  O416  1  0.58479673  0.66793730  0.81603343  1
  O2-  O417  1  0.58840426  0.93414479  0.15677456  1
  O2-  O418  1  0.58038670  0.90516812  0.45909755  1
  O2-  O419  1  0.56471371  0.90583940  0.80401906  1
  O2-  O420  1  0.83689021  0.15598568  0.21350307  1
  O2-  O421  1  0.83887487  0.17620085  0.48452933  1
  O2-  O422  1  0.84255586  0.18994787  0.82771783  1
  O2-  O423  1  0.84783866  0.42067135  0.15031171  1
  O2-  O424  1  0.85059235  0.43107867  0.48795300  1
  O2-  O425  1  0.84950177  0.42414487  0.81718116  1
  O2-  O426  1  0.79295128  0.58959497  0.12833529  1
  O2-  O427  1  0.82868852  0.63605455  0.46398387  1
  O2-  O428  1  0.82817464  0.65557131  0.80955816  1
  O2-  O429  1  0.83302475  0.89990379  0.14456960  1
  O2-  O430  1  0.83110147  0.92127812  0.47620870  1
  O2-  O431  1  0.82285358  0.92343296  0.81874217  1
  O2-  O432  1  0.15868250  0.08652305  0.22963070  1
  O2-  O433  1  0.16145139  0.07254986  0.51453598  1
  O2-  O434  1  0.17523564  0.09500695  0.86022248  1
  O2-  O435  1  0.14661144  0.33493515  0.17945769  1
  O2-  O436  1  0.16287995  0.31705898  0.50858527  1
  O2-  O437  1  0.17909983  0.33659582  0.86696841  1
  O2-  O438  1  0.17645273  0.55758621  0.19157513  1
  O2-  O439  1  0.20137839  0.60986698  0.50816430  1
  O2-  O440  1  0.17606899  0.58045494  0.86569087  1
  O2-  O441  1  0.21060199  0.85497379  0.18534895  1
  O2-  O442  1  0.07155231  0.77277299  0.51894879  1
  O2-  O443  1  0.17323842  0.83474154  0.85073666  1
  O2-  O444  1  0.41042439  0.08282988  0.18395334  1
  O2-  O445  1  0.42895780  0.10731916  0.52492916  1
  O2-  O446  1  0.41898737  0.07469945  0.79489688  1
  O2-  O447  1  0.40547995  0.31794902  0.18378013  1
  O2-  O448  1  0.40811684  0.34062840  0.52027462  1
  O2-  O449  1  0.42027799  0.31984496  0.85334145  1
  O2-  O450  1  0.41693842  0.54484056  0.24932126  1
  O2-  O451  1  0.43072831  0.60536080  0.52199951  1
  O2-  O452  1  0.42168157  0.56415016  0.86771873  1
  O2-  O453  1  0.41608561  0.83271786  0.17517522  1
  O2-  O454  1  0.41885261  0.85039955  0.50563360  1
  O2-  O455  1  0.41141987  0.83453989  0.86148163  1
  O2-  O456  1  0.66588953  0.09865782  0.20108153  1
  O2-  O457  1  0.68804888  0.12204057  0.53326367  1
  O2-  O458  1  0.70075510  0.17848830  0.87492720  1
  O2-  O459  1  0.67523008  0.34419171  0.17399588  1
  O2-  O460  1  0.68274870  0.35957470  0.52384727  1
  O2-  O461  1  0.69524446  0.33562910  0.86672452  1
  O2-  O462  1  0.65525432  0.56711953  0.18651838  1
  O2-  O463  1  0.70078517  0.62371379  0.52464489  1
  O2-  O464  1  0.66346908  0.57528230  0.84568029  1
  O2-  O465  1  0.70490134  0.90047905  0.20977972  1
  O2-  O466  1  0.66835177  0.83626185  0.52004787  1
  O2-  O467  1  0.65251795  0.83206972  0.86206703  1
  O2-  O468  1  0.91738348  0.06218327  0.18986082  1
  O2-  O469  1  0.91817662  0.08482905  0.51786759  1
  O2-  O470  1  0.91544009  0.08705994  0.85992371  1
  O2-  O471  1  0.92920426  0.33139290  0.19612566  1
  O2-  O472  1  0.92358177  0.32934405  0.51884608  1
  O2-  O473  1  0.94052445  0.35498935  0.85908335  1
  O2-  O474  1  0.92198518  0.58452162  0.19620045  1
  O2-  O475  1  0.92624742  0.60299036  0.52520425  1
  O2-  O476  1  0.92275516  0.58594386  0.85708712  1
  O2-  O477  1  0.91631106  0.81888327  0.18613199  1
  O2-  O478  1  0.91757557  0.84830770  0.53185686  1
  O2-  O479  1  0.93853770  0.81619176  0.86615994  1
  O2-  O480  1  0.15292235  0.07484597  0.29616974  1
  O2-  O481  1  0.16133743  0.06934258  0.63993681  1
  O2-  O482  1  0.18457808  0.09104948  0.98613776  1
  O2-  O483  1  0.14558895  0.32724989  0.30053636  1
  O2-  O484  1  0.17044283  0.34350554  0.63527423  1
  O2-  O485  1  0.17453510  0.32307593  0.99061783  1
  O2-  O486  1  0.15015317  0.57350803  0.30052073  1
  O2-  O487  1  0.16519086  0.58035082  0.63227805  1
  O2-  O488  1  0.17295690  0.57354773  0.98820922  1
  O2-  O489  1  0.17144484  0.83926134  0.35403341  1
  O2-  O490  1  0.15702118  0.82494649  0.71625002  1
  O2-  O491  1  0.17278295  0.82962124  0.97451892  1
  O2-  O492  1  0.40098650  0.05922578  0.34286018  1
  O2-  O493  1  0.41576337  0.07769157  0.65276486  1
  O2-  O494  1  0.41416246  0.09462340  0.98923533  1
  O2-  O495  1  0.40215557  0.31972161  0.30861074  1
  O2-  O496  1  0.42264967  0.34247923  0.62557458  1
  O2-  O497  1  0.41848122  0.33108982  0.97755466  1
  O2-  O498  1  0.42561105  0.63043363  0.24872453  1
  O2-  O499  1  0.41997113  0.59349551  0.64018899  1
  O2-  O500  1  0.41638094  0.57592276  0.98542052  1
  O2-  O501  1  0.38575219  0.80749292  0.29594842  1
  O2-  O502  1  0.41465440  0.83889220  0.63423452  1
  O2-  O503  1  0.42160197  0.82547134  0.98498561  1
  O2-  O504  1  0.70822209  0.18550361  0.31009539  1
  O2-  O505  1  0.68115998  0.09236330  0.65633657  1
  O2-  O506  1  0.67657114  0.09585686  0.98352307  1
  O2-  O507  1  0.69697573  0.40189655  0.29093640  1
  O2-  O508  1  0.67209918  0.32739866  0.64108859  1
  O2-  O509  1  0.66614234  0.33288977  0.98260156  1
  O2-  O510  1  0.66263372  0.58225044  0.30604914  1
  O2-  O511  1  0.66571348  0.58615858  0.64287677  1
  O2-  O512  1  0.65755772  0.57648293  0.97086370  1
  O2-  O513  1  0.66964424  0.85201839  0.31945967  1
  O2-  O514  1  0.66484105  0.83496042  0.64289066  1
  O2-  O515  1  0.65022973  0.82521585  0.98816187  1
  O2-  O516  1  0.91364529  0.05850174  0.31615845  1
  O2-  O517  1  0.91474746  0.06454640  0.64017677  1
  O2-  O518  1  0.92395837  0.08274670  0.98323359  1
  O2-  O519  1  0.89409251  0.33578062  0.31616222  1
  O2-  O520  1  0.91031220  0.33957568  0.66427101  1
  O2-  O521  1  0.94795587  0.34511291  0.98370362  1
  O2-  O522  1  0.85361274  0.56387264  0.30609465  1
  O2-  O523  1  0.90753999  0.57556394  0.64705533  1
  O2-  O524  1  0.92908364  0.59145229  0.97902958  1
  O2-  O525  1  0.91361297  0.79550999  0.30980141  1
  O2-  O526  1  0.91765558  0.83244885  0.64879860  1
  O2-  O527  1  0.89388104  0.82368243  0.98352484  1
  O2-  O528  1  0.08777925  0.15617523  0.03050476  1
  O2-  O529  1  0.07725092  0.16241468  0.34807687  1
  O2-  O530  1  0.15231837  0.20265828  0.70131280  1
  O2-  O531  1  0.10135267  0.40790734  0.04072972  1
  O2-  O532  1  0.07130870  0.41701721  0.34561456  1
  O2-  O533  1  0.07943964  0.42333097  0.67600038  1
  O2-  O534  1  0.09230201  0.67001991  0.02361156  1
  O2-  O535  1  0.08590873  0.66055032  0.33528086  1
  O2-  O536  1  0.08450575  0.66821113  0.65219836  1
  O2-  O537  1  0.17914970  0.95937869  0.06174142  1
  O2-  O538  1  0.07506213  0.91560773  0.34252084  1
  O2-  O539  1  0.07144990  0.91632276  0.69666434  1
  O2-  O540  1  0.34060028  0.17284630  0.03144222  1
  O2-  O541  1  0.32009178  0.15371531  0.35237238  1
  O2-  O542  1  0.32068685  0.15622253  0.67915021  1
  O2-  O543  1  0.34003938  0.41125560  0.02752143  1
  O2-  O544  1  0.31250634  0.40240025  0.32923054  1
  O2-  O545  1  0.31214225  0.44450208  0.70836581  1
  O2-  O546  1  0.33942498  0.66050435  0.02924301  1
  O2-  O547  1  0.34479887  0.64818450  0.34125026  1
  O2-  O548  1  0.33127130  0.67395921  0.67615704  1
  O2-  O549  1  0.33709803  0.91500438  -0.02047451  1
  O2-  O550  1  0.31155678  0.90305150  0.29170086  1
  O2-  O551  1  0.33090849  0.91081530  0.69258207  1
  O2-  O552  1  0.57887545  0.16387520  0.02450712  1
  O2-  O553  1  0.56006597  0.18443965  0.35968730  1
  O2-  O554  1  0.58713241  0.16962328  0.67727244  1
  O2-  O555  1  0.57963547  0.41628570  0.02169372  1
  O2-  O556  1  0.57048448  0.42065431  0.34658552  1
  O2-  O557  1  0.55098907  0.35871329  0.70004754  1
  O2-  O558  1  0.57771957  0.65581985  0.02586001  1
  O2-  O559  1  0.60598202  0.68680523  0.36581902  1
  O2-  O560  1  0.57721227  0.67061652  0.68928152  1
  O2-  O561  1  0.58585900  0.92589477  0.02962433  1
  O2-  O562  1  0.54581915  0.87397770  0.34246099  1
  O2-  O563  1  0.57985862  0.91717851  0.68106755  1
  O2-  O564  1  0.85683044  0.18330762  0.01336675  1
  O2-  O565  1  0.84628545  0.16712160  0.34901317  1
  O2-  O566  1  0.84010283  0.19340687  0.70530308  1
  O2-  O567  1  0.88258208  0.43232408  0.02569831  1
  O2-  O568  1  0.83576241  0.43341827  0.36577117  1
  O2-  O569  1  0.83352435  0.41983041  0.69472869  1
  O2-  O570  1  0.82100627  0.65240205  0.01450560  1
  O2-  O571  1  0.82612264  0.62009190  0.33608667  1
  O2-  O572  1  0.83442978  0.66481762  0.68498932  1
  O2-  O573  1  0.81903396  0.91561690  0.02246531  1
  O2-  O574  1  0.83799533  0.88726010  0.35233202  1
  O2-  O575  1  0.82711529  0.90903545  0.68968166  1
