# generated using pymatgen
data_H2O
_symmetry_space_group_name_H-M   'P 1'
_cell_length_a   17.98751038
_cell_length_b   17.99014431
_cell_length_c   22.00255980
_cell_angle_alpha   89.96894500
_cell_angle_beta   89.99705562
_cell_angle_gamma   119.99961159
_symmetry_Int_Tables_number   1
_chemical_formula_structural   H2O
_chemical_formula_sum   'H384 O192'
_cell_volume   6166.10835767
_cell_formula_units_Z   192
loop_
 _symmetry_equiv_pos_site_id
 _symmetry_equiv_pos_as_xyz
  1  'x, y, z'
loop_
 _atom_type_symbol
 _atom_type_oxidation_number
  H+  1.0
  O2-  -2.0
loop_
 _atom_site_type_symbol
 _atom_site_label
 _atom_site_symmetry_multiplicity
 _atom_site_fract_x
 _atom_site_fract_y
 _atom_site_fract_z
 _atom_site_occupancy
  H+  H0  1  0.02212766  0.13352732  0.33066119  1
  H+  H1  1  0.63169630  0.85216345  0.49802331  1
  H+  H2  1  0.57692825  0.22854356  0.46293425  1
  H+  H3  1  0.11365253  0.97173820  0.32060684  1
  H+  H4  1  0.76044353  0.38444231  0.67817115  1
  H+  H5  1  0.62559047  0.64588265  0.82938906  1
  H+  H6  1  0.21748888  0.11332072  0.16174639  1
  H+  H7  1  0.61849895  -0.00223798  0.68283180  1
  H+  H8  1  0.66208197  0.40040475  0.67629280  1
  H+  H9  1  0.84408455  0.92421421  0.73074482  1
  H+  H10  1  0.42649670  0.59740068  0.93350760  1
  H+  H11  1  -0.02026124  0.87212829  0.16011566  1
  H+  H12  1  0.40797194  0.57692432  0.21060358  1
  H+  H13  1  0.88948352  0.02327921  0.66214031  1
  H+  H14  1  0.58366810  0.41641836  0.10666707  1
  H+  H15  1  0.11159227  0.97897551  0.14676686  1
  H+  H16  1  0.38361869  0.35540320  0.67838780  1
  H+  H17  1  0.87770109  0.77064831  0.30624967  1
  H+  H18  1  0.87818827  0.52775511  0.84208860  1
  H+  H19  1  0.85863428  0.37494276  0.68174114  1
  H+  H20  1  0.64025361  0.76868074  0.51122960  1
  H+  H21  1  0.72789224  0.11958384  0.65405628  1
  H+  H22  1  0.36741108  0.64080096  0.14866942  1
  H+  H23  1  0.59233857  0.15617842  0.49443494  1
  H+  H24  1  0.39935351  0.62951579  0.84351752  1
  H+  H25  1  0.90003590  0.10122345  -0.00045735  1
  H+  H26  1  0.88237359  0.28362892  0.30823857  1
  H+  H27  1  0.10319276  0.87789991  0.83991048  1
  H+  H28  1  0.13695356  0.11305544  0.31815632  1
  H+  H29  1  0.47175241  0.85578721  0.50125168  1
  H+  H30  1  0.29083378  0.64924668  0.29063614  1
  H+  H31  1  0.14694599  0.52687457  0.99402348  1
  H+  H32  1  0.02600988  0.88370582  0.32459717  1
  H+  H33  1  0.65900713  0.28987579  0.53604741  1
  H+  H34  1  0.14918606  0.28928631  0.17928556  1
  H+  H35  1  0.13915495  0.36239065  0.98915082  1
  H+  H36  1  0.10662619  0.64216644  0.68587226  1
  H+  H37  1  0.13683136  0.77987264  0.51474480  1
  H+  H38  1  0.34851999  0.91265849  0.38030107  1
  H+  H39  1  0.85619971  -0.03396199  1.00189526  1
  H+  H40  1  0.09440001  -0.03895895  0.98627196  1
  H+  H41  1  1.11565271  0.14250638  0.48843414  1
  H+  H42  1  0.37068346  0.02108451  0.65163680  1
  H+  H43  1  0.50960865  0.13803156  0.18600076  1
  H+  H44  1  0.81327485  0.66056620  0.76275662  1
  H+  H45  1  1.02488387  0.88878843  0.50285856  1
  H+  H46  1  0.13191008  0.52611361  0.66860592  1
  H+  H47  1  0.11799070  0.72964795  -0.01885968  1
  H+  H48  1  0.32918991  0.65230325  0.46404674  1
  H+  H49  1  0.09938408  0.11912940  0.14151327  1
  H+  H50  1  0.88196651  0.51162991  0.17796103  1
  H+  H51  1  0.14498495  0.61573870  0.99140937  1
  H+  H52  1  0.13571369  0.52309449  0.51937429  1
  H+  H53  1  0.63762343  0.77130236  -0.00941060  1
  H+  H54  1  0.35000540  0.36674476  0.82970178  1
  H+  H55  1  0.52495412  0.87458290  0.83106330  1
  H+  H56  1  0.82758129  0.13282245  0.48462124  1
  H+  H57  1  0.62757951  0.61827438  0.98648818  1
  H+  H58  1  0.18329409  0.09142224  0.78517632  1
  H+  H59  1  0.89263758  0.52988865  0.51481828  1
  H+  H60  1  0.27059694  0.62844088  0.52152847  1
  H+  H61  1  0.83847080  0.19778069  0.81070431  1
  H+  H62  1  0.39000789  0.00699862  0.84149754  1
  H+  H63  1  0.62825051  0.63638233  0.51351480  1
  H+  H64  1  0.13519909  0.49593896  0.82534067  1
  H+  H65  1  -0.05113457  0.05038004  0.14310916  1
  H+  H66  1  0.35862377  0.21827131  0.15797697  1
  H+  H67  1  0.36253455  0.47437053  0.68255048  1
  H+  H68  1  0.62655965  0.26466578  0.19354198  1
  H+  H69  1  0.63234567  0.51990663  0.84055205  1
  H+  H70  1  0.13736761  0.77996735  0.16499738  1
  H+  H71  1  0.74689334  0.14324111  0.49850896  1
  H+  H72  1  0.12284478  0.85493072  0.96228613  1
  H+  H73  1  0.57075232  0.14458263  0.39003319  1
  H+  H74  1  0.41339437  0.32317971  0.62245140  1
  H+  H75  1  0.89444983  0.38931873  1.00438436  1
  H+  H76  1  0.64371984  0.13124740  0.66307734  1
  H+  H77  1  0.88772335  0.78644812  0.16528142  1
  H+  H78  1  0.13416183  0.77698754  0.66704222  1
  H+  H79  1  0.86138992  0.63577872  0.50039131  1
  H+  H80  1  0.51992332  0.38378493  0.82696878  1
  H+  H81  1  0.47215337  0.86197872  0.98234943  1
  H+  H82  1  0.42278396  0.33098088  0.89936224  1
  H+  H83  1  0.87760311  0.85369831  0.50565029  1
  H+  H84  1  0.60718087  0.38134687  0.82772025  1
  H+  H85  1  0.08964231  0.67720379  0.22790551  1
  H+  H86  1  0.89303069  0.61885817  1.00064358  1
  H+  H87  1  0.85337738  0.31095985  0.15734863  1
  H+  H88  1  0.37194920  0.88707969  0.81784254  1
  H+  H89  1  0.63195624  0.86011217  0.84092068  1
  H+  H90  1  0.51485395  0.11652012  0.82757952  1
  H+  H91  1  0.89337636  0.21944544  0.04777731  1
  H+  H92  1  0.88679542  0.51205155  0.33634527  1
  H+  H93  1  0.92143501  0.31664314  0.85584075  1
  H+  H94  1  0.11176479  0.23016917  0.48887205  1
  H+  H95  1  0.11350623  0.72381406  0.33510659  1
  H+  H96  1  0.63516026  0.85167218  0.18445236  1
  H+  H97  1  0.88313569  0.26751556  0.66532964  1
  H+  H98  1  0.35622565  0.13131580  0.34242190  1
  H+  H99  1  0.37935709  0.27049091  0.51558556  1
  H+  H100  1  1.02217298  0.63986601  0.83607956  1
  H+  H101  1  0.86563805  0.72204385  0.01421718  1
  H+  H102  1  0.36146932  0.73921836  0.00386534  1
  H+  H103  1  0.11832299  0.01579785  0.65583829  1
  H+  H104  1  0.64057213  0.76755756  0.33777573  1
  H+  H105  1  0.27102468  0.38825990  0.67742169  1
  H+  H106  1  0.60701071  0.43986611  0.73820467  1
  H+  H107  1  0.34996338  0.11535027  0.49690919  1
  H+  H108  1  0.39118846  0.61716596  0.28931959  1
  H+  H109  1  0.22918830  0.36436709  0.50982683  1
  H+  H110  1  0.59689679  0.16015841  -0.03502486  1
  H+  H111  1  0.39976508  0.88575623  0.97517194  1
  H+  H112  1  0.39968613  0.35160673  0.20837275  1
  H+  H113  1  0.47533141  0.60714674  0.29121604  1
  H+  H114  1  0.59739066  0.96739283  0.18117910  1
  H+  H115  1  -0.02513304  0.11397607  0.83983340  1
  H+  H116  1  0.02084349  0.14205763  0.67462003  1
  H+  H117  1  0.63108348  0.00833144  0.84373201  1
  H+  H118  1  0.38359643  0.77008300  0.51481250  1
  H+  H119  1  0.75993022  0.86613335  0.33446346  1
  H+  H120  1  0.75497211  0.10976159  0.82278974  1
  H+  H121  1  -0.10873427  0.01516729  0.31618128  1
  H+  H122  1  0.36551249  0.13425427  0.68847183  1
  H+  H123  1  0.85195321  0.63029440  0.31630297  1
  H+  H124  1  0.76191202  0.62921812  0.17170717  1
  H+  H125  1  0.37604889  0.10492573  0.02077365  1
  H+  H126  1  0.39478067  0.09696350  0.85725074  1
  H+  H127  1  0.58817428  0.66473633  0.06085358  1
  H+  H128  1  0.13690416  0.85815707  0.31443826  1
  H+  H129  1  0.39306220  0.36842838  0.99307370  1
  H+  H130  1  0.37825652  0.90384949  0.48186801  1
  H+  H131  1  0.86655514  0.39045795  0.50253076  1
  H+  H132  1  0.78170850  0.88916301  0.82677392  1
  H+  H133  1  0.38056381  0.73714585  0.28456706  1
  H+  H134  1  0.13701522  0.86830776  0.51777570  1
  H+  H135  1  0.02542086  0.63388731  0.34189323  1
  H+  H136  1  0.12779688  0.60700688  0.17138182  1
  H+  H137  1  0.87716983  0.85273132  -0.00431129  1
  H+  H138  1  0.87304369  0.29698555  0.98065161  1
  H+  H139  1  0.41406873  0.01894802  0.93673646  1
  H+  H140  1  0.51691041  0.38021761  0.35735787  1
  H+  H141  1  0.04959522  0.17623104  0.13820520  1
  H+  H142  1  0.19585305  0.09112285  0.96603288  1
  H+  H143  1  0.62574808  0.61136263  0.33628268  1
  H+  H144  1  0.36568817  0.48160494  -0.00610209  1
  H+  H145  1  0.28046359  0.64419432  0.82547591  1
  H+  H146  1  0.79165962  0.41038206  1.01940610  1
  H+  H147  1  0.73942398  0.62003597  0.51992114  1
  H+  H148  1  0.63911771  0.76452238  0.83947245  1
  H+  H149  1  0.76122657  0.37736329  0.83101438  1
  H+  H150  1  0.91271658  0.33274286  0.60936444  1
  H+  H151  1  0.86298633  0.96553624  0.48477965  1
  H+  H152  1  0.87569724  0.59873743  0.18025109  1
  H+  H153  1  0.52213201  0.65236643  0.37554982  1
  H+  H154  1  0.61771172  0.96141018  0.48095259  1
  H+  H155  1  0.72465437  0.60982714  0.83890493  1
  H+  H156  1  0.86659959  0.76600149  0.66069231  1
  H+  H157  1  0.63011839  0.76076333  0.17776886  1
  H+  H158  1  0.39336866  0.61965889  0.99523071  1
  H+  H159  1  0.36314429  0.62763520  0.67571619  1
  H+  H160  1  0.49456067  0.80185889  0.63417202  1
  H+  H161  1  0.53443937  0.63000938  0.51006191  1
  H+  H162  1  0.11941806  0.36094918  0.32622451  1
  H+  H163  1  0.39312068  0.26252257  0.84550792  1
  H+  H164  1  0.88067353  0.27561638  0.51450169  1
  H+  H165  1  0.10468208  0.87998124  0.67216170  1
  H+  H166  1  0.60738956  0.62750990  0.15654450  1
  H+  H167  1  0.37360612  0.22620687  0.69954697  1
  H+  H168  1  -0.01741239  0.61958254  -0.00988600  1
  H+  H169  1  0.39367609  0.60541011  0.52354338  1
  H+  H170  1  0.38029370  0.52613845  0.14771743  1
  H+  H171  1  0.60966172  0.11630263  0.33721476  1
  H+  H172  1  0.11419978  0.38453004  0.50043165  1
  H+  H173  1  0.64868487  0.53384848  0.53110142  1
  H+  H174  1  0.14213963  0.36887858  0.84014371  1
  H+  H175  1  1.04372686  0.41489281  0.83045762  1
  H+  H176  1  0.52132383  0.63245542  0.14786964  1
  H+  H177  1  0.61045713  0.88084728  -0.00291364  1
  H+  H178  1  0.22405789  0.11051165  0.31945140  1
  H+  H179  1  0.61805341  0.39607495  0.50929600  1
  H+  H180  1  0.27637821  0.64440136  0.00640945  1
  H+  H181  1  0.71924334  0.34883931  0.17755863  1
  H+  H182  1  0.38023920  0.25449023  0.34204692  1
  H+  H183  1  0.97336597  0.02062980  0.54063977  1
  H+  H184  1  0.11087414  -0.02044585  0.50047509  1
  H+  H185  1  0.85930619  0.72246391  0.49773051  1
  H+  H186  1  0.86197571  0.13051005  0.66317775  1
  H+  H187  1  0.52332365  0.63751912  0.00319468  1
  H+  H188  1  0.35325233  0.88247447  0.66706710  1
  H+  H189  1  0.86028382  0.87041646  0.33112043  1
  H+  H190  1  0.14192529  0.61037325  0.32147699  1
  H+  H191  1  0.99181756  0.10104491  0.50288175  1
  H+  H192  1  0.88091796  0.62812966  0.66489294  1
  H+  H193  1  0.60520363  0.12108312  0.82114688  1
  H+  H194  1  0.14106122  0.87008116  0.15762903  1
  H+  H195  1  0.52604486  0.18718646  -0.03420960  1
  H+  H196  1  0.14358349  0.62483013  0.84326037  1
  H+  H197  1  0.10879587  0.13863801  -0.01619784  1
  H+  H198  1  0.88154568  0.49840839  0.01624907  1
  H+  H199  1  0.53283783  -0.00546252  0.24565214  1
  H+  H200  1  0.29163368  0.12527989  0.83985406  1
  H+  H201  1  0.36687185  0.98548633  0.47413804  1
  H+  H202  1  0.37729696  0.01669339  0.16497833  1
  H+  H203  1  0.12478439  0.10751703  0.65963757  1
  H+  H204  1  1.02725708  0.29607518  0.15762144  1
  H+  H205  1  0.47189244  0.35725144  0.52206215  1
  H+  H206  1  0.74324112  0.37830125  0.51866339  1
  H+  H207  1  0.53178835  0.40155593  0.01007577  1
  H+  H208  1  0.12006348  0.26021080  0.32802705  1
  H+  H209  1  0.66458424  0.51428238  0.68935754  1
  H+  H210  1  0.58895335  0.12734813  0.20319546  1
  H+  H211  1  0.02044885  0.38701527  0.67835371  1
  H+  H212  1  0.91328133  0.34618747  0.25058792  1
  H+  H213  1  0.01072017  0.87166942  -0.00292197  1
  H+  H214  1  0.87978862  0.10125399  0.83583700  1
  H+  H215  1  0.36850777  0.10071385  0.16870990  1
  H+  H216  1  0.27431584  0.88686539  0.13863262  1
  H+  H217  1  0.60766266  0.01880748  0.98989643  1
  H+  H218  1  0.12586538  0.24117698  -0.00482781  1
  H+  H219  1  0.98069881  0.61877370  0.51144552  1
  H+  H220  1  0.37285882  0.39765477  0.13261936  1
  H+  H221  1  0.40764959  0.28758457  0.00138077  1
  H+  H222  1  0.61467640  0.40424269  0.34965551  1
  H+  H223  1  0.27604849  0.86859232  0.32796727  1
  H+  H224  1  0.09543957  0.41560725  0.06287792  1
  H+  H225  1  0.71962513  0.61777523  0.62261126  1
  H+  H226  1  0.76655980  0.39072833  0.34683052  1
  H+  H227  1  0.81320390  0.33792251  0.36108827  1
  H+  H228  1  0.79484410  0.10361476  0.18655629  1
  H+  H229  1  0.36576527  0.38362372  0.50619664  1
  H+  H230  1  0.75323523  0.17154828  0.34214440  1
  H+  H231  1  0.68633842  0.36164306  0.61433313  1
  H+  H232  1  0.48019200  0.86005914  0.15350726  1
  H+  H233  1  0.13542602  0.27662874  0.66211363  1
  H+  H234  1  0.21975062  0.12421371  0.50292569  1
  H+  H235  1  0.31648195  0.15700048  0.40229436  1
  H+  H236  1  0.65515240  0.30855590  0.98297356  1
  H+  H237  1  0.14100220  0.40064726  0.15701235  1
  H+  H238  1  0.12570784  0.00474275  0.82186704  1
  H+  H239  1  0.12719010  0.76899098  0.86568261  1
  H+  H240  1  0.48265988  0.35245977  0.18025239  1
  H+  H241  1  0.47650520  0.11790322  0.31980138  1
  H+  H242  1  0.49074443  0.87373274  0.30897789  1
  H+  H243  1  0.32918540  0.41885138  0.07886596  1
  H+  H244  1  0.61816972  0.88322862  0.33680035  1
  H+  H245  1  0.26414778  0.88173242  0.67119392  1
  H+  H246  1  0.87115299  -0.02375933  0.82898772  1
  H+  H247  1  0.88426817  0.85641601  0.84075997  1
  H+  H248  1  0.27598052  0.38991995  0.99099147  1
  H+  H249  1  0.68505036  0.11079899  1.00127816  1
  H+  H250  1  0.02183370  0.37974255  0.32103643  1
  H+  H251  1  0.39433799  0.51676858  0.51656883  1
  H+  H252  1  0.24407304  0.36753527  0.17184718  1
  H+  H253  1  0.39380931  0.77119135  0.83170557  1
  H+  H254  1  0.62451765  0.25483550  0.82424864  1
  H+  H255  1  0.15913888  0.08437064  0.22167892  1
  H+  H256  1  0.97482147  0.36008071  0.51504890  1
  H+  H257  1  0.61313331  0.37998238  0.16390576  1
  H+  H258  1  0.85222538  0.63382643  0.82147568  1
  H+  H259  1  0.35510925  0.16061466  0.78123881  1
  H+  H260  1  0.48968904  0.63234904  0.84489111  1
  H+  H261  1  0.61977515  0.52003620  0.33731339  1
  H+  H262  1  0.64632401  0.66540142  0.68300510  1
  H+  H263  1  0.03174207  0.39229110  0.00642720  1
  H+  H264  1  0.86628206  0.89237162  0.66989699  1
  H+  H265  1  0.33851411  0.15172238  -0.01560109  1
  H+  H266  1  0.36418327  0.88847492  0.13582562  1
  H+  H267  1  0.83177815  0.66774307  0.22072245  1
  H+  H268  1  0.72734005  0.86151733  -0.00671614  1
  H+  H269  1  0.59038247  0.04549744  0.52053472  1
  H+  H270  1  0.10842550  0.14027373  0.82520338  1
  H+  H271  1  0.35265286  0.97093404  0.05257776  1
  H+  H272  1  0.62515440  0.51297249  0.17854510  1
  H+  H273  1  0.11586107  0.63924679  0.49839706  1
  H+  H274  1  0.37173452  0.46998398  0.34171248  1
  H+  H275  1  0.08542255  0.67773223  0.77973024  1
  H+  H276  1  0.62581772  0.41056291  1.01299040  1
  H+  H277  1  0.41861005  0.83141597  0.89110986  1
  H+  H278  1  0.62095771  0.86522907  0.65959387  1
  H+  H279  1  0.77662036  0.12071712  0.16314387  1
  H+  H280  1  0.01310619  0.87463505  0.83244618  1
  H+  H281  1  0.37491351  0.38395124  0.34944134  1
  H+  H282  1  0.85893384  0.39652099  0.83585698  1
  H+  H283  1  0.63220661  0.52675867  0.99186183  1
  H+  H284  1  0.43824932  0.11805191  0.49770577  1
  H+  H285  1  0.83293953  0.13407027  0.08172087  1
  H+  H286  1  0.62841979  0.24393496  0.68051550  1
  H+  H287  1  0.76613877  0.88262165  0.48669961  1
  H+  H288  1  0.58816749  0.16911093  0.07199417  1
  H+  H289  1  0.65033189  0.09887384  0.57558465  1
  H+  H290  1  0.22250495  0.61321811  0.66795063  1
  H+  H291  1  0.15667526  0.08879697  0.56316813  1
  H+  H292  1  0.10937925  0.46799713  0.15413222  1
  H+  H293  1  0.74125839  0.06908379  0.29714036  1
  H+  H294  1  0.10258462  0.69265745  0.04777321  1
  H+  H295  1  0.65009355  0.96198016  0.12550614  1
  H+  H296  1  0.84932203  0.66858060  0.07477707  1
  H+  H297  1  0.61127181  0.73222305  0.67494962  1
  H+  H298  1  0.11232997  0.46940262  0.32694426  1
  H+  H299  1  0.92109937  0.05630314  0.25174539  1
  H+  H300  1  0.80919664  0.21289813  0.40082981  1
  H+  H301  1  0.17081176  0.33414165  0.27169663  1
  H+  H302  1  0.93896086  0.37903858  0.90930175  1
  H+  H303  1  0.90339857  0.81952842  0.93558693  1
  H+  H304  1  0.13537753  0.36560456  0.66088773  1
  H+  H305  1  0.58559309  0.16951050  0.73043357  1
  H+  H306  1  0.82927949  0.41328376  0.44309333  1
  H+  H307  1  0.42675758  0.84033059  0.21509588  1
  H+  H308  1  0.63144572  0.28406968  0.88921017  1
  H+  H309  1  0.63247492  0.82620746  0.59663644  1
  H+  H310  1  0.58138295  0.90759179  0.42030757  1
  H+  H311  1  0.58502626  0.42461453  0.45163695  1
  H+  H312  1  0.95867294  0.20746065  0.13145792  1
  H+  H313  1  0.08198578  0.15932017  0.05440121  1
  H+  H314  1  0.07071548  0.90293756  0.73169430  1
  H+  H315  1  0.08305493  0.91769595  0.08741264  1
  H+  H316  1  0.59253035  0.91697365  0.77489828  1
  H+  H317  1  0.07961255  0.17328715  0.73420903  1
  H+  H318  1  0.40656951  0.08531609  0.26700585  1
  H+  H319  1  0.65889790  0.07666394  0.89790710  1
  H+  H320  1  0.33727298  0.16530024  0.09544872  1
  H+  H321  1  0.91109142  0.56426464  0.27416882  1
  H+  H322  1  0.39568253  0.86821054  0.30772107  1
  H+  H323  1  0.96301945  0.84982983  0.66071128  1
  H+  H324  1  0.28576312  0.64581294  0.39114414  1
  H+  H325  1  0.70590073  0.39434223  0.94545203  1
  H+  H326  1  0.60272249  0.68309143  0.76869294  1
  H+  H327  1  0.16030826  0.58318876  0.57910825  1
  H+  H328  1  0.33928642  0.67939591  0.08597372  1
  H+  H329  1  0.01367880  0.63122077  0.18236846  1
  H+  H330  1  0.32619087  0.64291812  0.38710556  1
  H+  H331  1  0.63364031  0.98047663  0.33681935  1
  H+  H332  1  0.14386286  0.07465276  0.90649925  1
  H+  H333  1  0.66730300  0.83006200  0.90463912  1
  H+  H334  1  0.87163655  0.90670546  0.15984394  1
  H+  H335  1  0.53320561  0.90600271  0.68469275  1
  H+  H336  1  0.16710734  0.33321048  0.56788015  1
  H+  H337  1  0.11146178  0.23150110  0.83115497  1
  H+  H338  1  0.87686211  0.76390122  0.83882658  1
  H+  H339  1  0.37468100  0.74040639  0.15252933  1
  H+  H340  1  0.59332532  0.66844002  0.42300683  1
  H+  H341  1  0.43503938  0.82708400  0.59750247  1
  H+  H342  1  0.48449760  0.60954761  0.67143079  1
  H+  H343  1  0.33803469  0.92015280  0.76331157  1
  H+  H344  1  0.82228331  0.14650157  0.72318594  1
  H+  H345  1  0.63593097  0.04812322  0.26312475  1
  H+  H346  1  0.82705086  0.90220437  0.39737367  1
  H+  H347  1  0.32225950  0.40374907  0.77352580  1
  H+  H348  1  0.17870387  0.59355499  0.89906534  1
  H+  H349  1  0.64589064  0.57386703  0.23686237  1
  H+  H350  1  0.67839605  0.37082337  0.26305126  1
  H+  H351  1  0.16274522  0.83352945  0.60397108  1
  H+  H352  1  0.08130308  0.41432565  0.44311809  1
  H+  H353  1  0.65906808  0.58156135  0.92229899  1
  H+  H354  1  0.90597420  0.82801753  0.56805582  1
  H+  H355  1  0.84464266  0.41987803  0.10792490  1
  H+  H356  1  0.66470294  0.81628648  0.27063188  1
  H+  H357  1  0.29094322  0.22258679  0.45559635  1
  H+  H358  1  0.08655934  0.42159700  0.73460443  1
  H+  H359  1  0.92201969  0.60303400  0.61025115  1
  H+  H360  1  0.91332204  0.84442620  0.25594586  1
  H+  H361  1  0.21743804  0.61023199  0.16112632  1
  H+  H362  1  0.07918253  0.16846507  0.39328608  1
  H+  H363  1  0.42726267  0.31107200  0.28416156  1
  H+  H364  1  0.02079879  0.64921960  0.68588786  1
  H+  H365  1  0.16160250  0.57805559  0.25887683  1
  H+  H366  1  0.90770249  0.07004383  0.93224134  1
  H+  H367  1  0.82737207  0.91596316  0.06516273  1
  H+  H368  1  0.36827227  0.71771669  0.67054653  1
  H+  H369  1  0.72655835  0.46423690  0.28980360  1
  H+  H370  1  0.92413008  0.07960381  0.60124661  1
  H+  H371  1  0.22716555  0.35725715  0.84033743  1
  H+  H372  1  0.34390029  0.41727479  0.44415902  1
  H+  H373  1  0.16628640  0.33303423  0.92637921  1
  H+  H374  1  0.08901242  0.66792593  0.43739346  1
  H+  H375  1  0.90979682  0.58772997  0.90072923  1
  H+  H376  1  0.33742555  0.66590825  0.76477673  1
  H+  H377  1  0.83041678  0.41060608  0.74272308  1
  H+  H378  1  0.17187142  0.83254945  0.25678126  1
  H+  H379  1  0.42855958  0.57818840  0.61081809  1
  H+  H380  1  0.56793177  0.89877324  0.05435211  1
  H+  H381  1  0.54552110  0.12863233  0.07180831  1
  H+  H382  1  0.76219919  0.63106367  0.31255581  1
  H+  H383  1  0.38179439  0.07953715  0.59464093  1
  O2-  O384  1  0.05977579  0.13253370  0.11688491  1
  O2-  O385  1  0.08309400  0.17133900  0.47085770  1
  O2-  O386  1  0.07725136  0.17077829  0.81517299  1
  O2-  O387  1  0.09695062  0.41096026  0.13815065  1
  O2-  O388  1  0.08056263  0.41340107  0.48780384  1
  O2-  O389  1  0.10095288  0.43388657  0.81271471  1
  O2-  O390  1  0.07848486  0.66601303  0.18436878  1
  O2-  O391  1  0.08466629  0.66756789  0.48229094  1
  O2-  O392  1  0.08436724  0.67301238  0.82551137  1
  O2-  O393  1  0.08199549  0.91780960  0.13271535  1
  O2-  O394  1  0.08608119  0.91763497  0.49128801  1
  O2-  O395  1  0.07426052  0.90490825  0.81783880  1
  O2-  O396  1  0.32250658  0.16090335  0.13917230  1
  O2-  O397  1  0.30958619  0.18466121  0.47298417  1
  O2-  O398  1  0.35308566  0.15747023  0.83031114  1
  O2-  O399  1  0.33373578  0.41959228  0.12540399  1
  O2-  O400  1  0.33817636  0.41648743  0.48956271  1
  O2-  O401  1  0.31646441  0.39468258  0.81860330  1
  O2-  O402  1  0.33973642  0.67646391  0.13500787  1
  O2-  O403  1  0.33323009  0.65762688  0.50846162  1
  O2-  O404  1  0.34084258  0.67132454  0.81025674  1
  O2-  O405  1  0.33478271  0.91976044  0.12301656  1
  O2-  O406  1  0.38125564  0.94621074  0.45238816  1
  O2-  O407  1  0.34304354  0.92008748  0.80836569  1
  O2-  O408  1  0.57357272  0.16941410  0.18761086  1
  O2-  O409  1  0.55281463  0.16724626  0.46959461  1
  O2-  O410  1  0.57317101  0.14983967  0.80773207  1
  O2-  O411  1  0.58035247  0.40975578  0.15165470  1
  O2-  O412  1  0.58543769  0.42441332  0.49695931  1
  O2-  O413  1  0.58270527  0.41783607  0.81592631  1
  O2-  O414  1  0.58330170  0.66148438  0.13700375  1
  O2-  O415  1  0.59503561  0.66316738  0.49486719  1
  O2-  O416  1  0.60207361  0.68315070  0.81527112  1
  O2-  O417  1  0.59889271  0.92505754  0.14928129  1
  O2-  O418  1  0.57940842  0.90300380  0.46700781  1
  O2-  O419  1  0.58944746  0.90548814  0.82014010  1
  O2-  O420  1  1.00604145  0.23393484  0.16121612  1
  O2-  O421  1  0.80687036  0.17349833  0.48264674  1
  O2-  O422  1  0.81398261  0.13675289  0.80300712  1
  O2-  O423  1  0.83468518  0.40812934  0.15337911  1
  O2-  O424  1  0.83455764  0.41954257  0.48855660  1
  O2-  O425  1  0.82158103  0.41667362  0.81765169  1
  O2-  O426  1  0.82590866  0.66133592  0.17548164  1
  O2-  O427  1  0.82619737  0.66081055  0.48576101  1
  O2-  O428  1  0.81721331  0.66041158  0.80949745  1
  O2-  O429  1  0.84230281  0.93812345  0.14471499  1
  O2-  O430  1  0.82388178  0.90811609  0.46619163  1
  O2-  O431  1  0.84168139  0.91557356  0.81330531  1
  O2-  O432  1  0.15645598  0.08295455  0.17587976  1
  O2-  O433  1  0.15645213  0.09155418  0.51745638  1
  O2-  O434  1  0.16086763  0.07059428  0.82600964  1
  O2-  O435  1  0.18956350  0.34618197  0.19526659  1
  O2-  O436  1  0.16720586  0.33458597  0.52217323  1
  O2-  O437  1  0.16407392  0.33176912  0.85664664  1
  O2-  O438  1  0.15893287  0.57437596  0.17706231  1
  O2-  O439  1  0.16690905  0.58366022  0.53348994  1
  O2-  O440  1  0.17743385  0.59596766  0.85390507  1
  O2-  O441  1  0.17472931  0.84246565  0.17105350  1
  O2-  O442  1  0.16604012  0.83689521  0.53405554  1
  O2-  O443  1  0.15027955  0.82958378  0.88079620  1
  O2-  O444  1  0.39995225  0.07312972  0.18549907  1
  O2-  O445  1  0.37805164  0.08319227  0.51084978  1
  O2-  O446  1  0.42287132  0.06224892  0.86706780  1
  O2-  O447  1  0.42289210  0.31484312  0.19724749  1
  O2-  O448  1  0.41143499  0.32885486  0.53600390  1
  O2-  O449  1  0.41921436  0.32566020  0.85464641  1
  O2-  O450  1  0.40974242  0.58536408  0.16518513  1
  O2-  O451  1  0.42776424  0.57719244  0.53326544  1
  O2-  O452  1  0.43347122  0.60779451  0.86506899  1
  O2-  O453  1  0.42047013  0.83053502  0.16877231  1
  O2-  O454  1  0.41703652  0.83273828  0.52397343  1
  O2-  O455  1  0.42822393  0.83269881  0.84638490  1
  O2-  O456  1  0.58890790  0.02750791  0.22606115  1
  O2-  O457  1  0.64134614  0.10066040  0.52913986  1
  O2-  O458  1  0.66169405  0.07134977  0.85308834  1
  O2-  O459  1  0.66234516  0.33145217  0.19502140  1
  O2-  O460  1  0.68379352  0.35180967  0.53879465  1
  O2-  O461  1  0.65075359  0.30992861  0.84861701  1
  O2-  O462  1  0.65162425  0.57433180  0.19163534  1
  O2-  O463  1  0.68208034  0.59507352  0.54344962  1
  O2-  O464  1  0.66332632  0.58091567  0.85627442  1
  O2-  O465  1  0.65602592  0.81481839  0.20163276  1
  O2-  O466  1  0.66681932  0.83184256  0.51996149  1
  O2-  O467  1  0.66612021  0.82981192  0.85744336  1
  O2-  O468  1  0.89630772  0.02548630  0.16857063  1
  O2-  O469  1  0.94395805  0.05025617  0.52546967  1
  O2-  O470  1  0.91400536  0.07736894  0.85406063  1
  O2-  O471  1  0.88982373  0.37156752  0.16871981  1
  O2-  O472  1  0.91483817  0.33469881  0.53106982  1
  O2-  O473  1  0.93944340  0.37660205  0.86369527  1
  O2-  O474  1  0.90974981  0.57177479  0.19390078  1
  O2-  O475  1  0.92144815  0.59024575  0.52883576  1
  O2-  O476  1  0.91039785  0.58856692  0.85539312  1
  O2-  O477  1  0.92015785  0.84739087  0.17757937  1
  O2-  O478  1  0.91084952  0.82861099  0.52248542  1
  O2-  O479  1  0.90991747  0.82238184  0.85751579  1
  O2-  O480  1  0.16594485  0.08448932  0.29918609  1
  O2-  O481  1  0.14804630  0.07472423  0.63907286  1
  O2-  O482  1  0.13807714  0.07291623  0.95139622  1
  O2-  O483  1  0.15178102  0.32572814  0.31513084  1
  O2-  O484  1  0.16661747  0.33664771  0.64551241  1
  O2-  O485  1  0.16900410  0.33163233  0.97338261  1
  O2-  O486  1  0.16954811  0.57902876  0.30358816  1
  O2-  O487  1  0.16136776  0.58744668  0.65497076  1
  O2-  O488  1  0.17881651  0.58773590  0.97964523  1
  O2-  O489  1  0.16441271  0.82331697  0.30115117  1
  O2-  O490  1  0.16451614  0.83675864  0.65088710  1
  O2-  O491  1  0.15247728  0.82362943  0.94740230  1
  O2-  O492  1  0.41606435  0.10064053  0.31045190  1
  O2-  O493  1  0.39381904  0.08116441  0.63866831  1
  O2-  O494  1  0.41985490  -0.00423277  0.97760529  1
  O2-  O495  1  0.41931952  0.31679378  0.32777792  1
  O2-  O496  1  0.41427100  0.32450280  0.66735182  1
  O2-  O497  1  0.43170750  0.34468572  0.98295693  1
  O2-  O498  1  0.41311903  0.57443659  0.28717930  1
  O2-  O499  1  0.42483364  0.58114069  0.65618280  1
  O2-  O500  1  0.42240143  0.58884914  0.98031387  1
  O2-  O501  1  0.43639389  0.85083612  0.28530362  1
  O2-  O502  1  0.44814089  0.81587268  0.64015114  1
  O2-  O503  1  0.41107244  0.83725833  0.96972679  1
  O2-  O504  1  0.69067284  0.06923971  0.31296107  1
  O2-  O505  1  0.66530304  0.09295948  0.64407195  1
  O2-  O506  1  0.63503973  0.07919927  0.97518788  1
  O2-  O507  1  0.69421715  0.40442199  0.30269453  1
  O2-  O508  1  0.68651779  0.35987039  0.65995205  1
  O2-  O509  1  0.69201352  0.37278323  0.98713228  1
  O2-  O510  1  0.64908178  0.57785390  0.31656241  1
  O2-  O511  1  0.71708721  0.62082963  0.66802351  1
  O2-  O512  1  0.65673075  0.58490360  0.97034319  1
  O2-  O513  1  0.67342145  0.82448671  0.31720617  1
  O2-  O514  1  0.60273396  0.81135973  0.63685587  1
  O2-  O515  1  0.66698457  0.83179219  0.97473574  1
  O2-  O516  1  0.92740909  0.07007909  0.29546640  1
  O2-  O517  1  0.91796736  0.08512221  0.64548221  1
  O2-  O518  1  0.90898611  0.05962969  0.97655434  1
  O2-  O519  1  0.93292068  0.32211624  0.28270722  1
  O2-  O520  1  0.91147180  0.33020909  0.65490040  1
  O2-  O521  1  0.92048260  0.35587538  0.98400244  1
  O2-  O522  1  0.91119553  0.57048640  0.31919659  1
  O2-  O523  1  0.92242245  0.60877893  0.65509898  1
  O2-  O524  1  0.91993420  0.58612617  0.98139818  1
  O2-  O525  1  0.90630666  0.83455894  0.30106397  1
  O2-  O526  1  0.90350845  0.82644684  0.64432712  1
  O2-  O527  1  0.90685588  0.82162935  0.98113760  1
  O2-  O528  1  0.09260623  0.17610327  0.00772610  1
  O2-  O529  1  0.08156466  0.17077575  0.34750630  1
  O2-  O530  1  0.08172682  0.17372432  0.68907321  1
  O2-  O531  1  0.09313779  0.41810215  0.01704450  1
  O2-  O532  1  0.07963464  0.40889025  0.34246819  1
  O2-  O533  1  0.08257033  0.41920277  0.68924415  1
  O2-  O534  1  0.09395872  0.67447082  0.00537097  1
  O2-  O535  1  0.08772581  0.66377533  0.35139812  1
  O2-  O536  1  0.08097715  0.67544526  0.70277065  1
  O2-  O537  1  0.07473664  0.90453788  0.00500178  1
  O2-  O538  1  0.08795399  0.91035603  0.33158618  1
  O2-  O539  1  0.06839503  0.90467066  0.68694776  1
  O2-  O540  1  0.37622860  0.16135313  0.01885541  1
  O2-  O541  1  0.31941915  0.15653012  0.35593827  1
  O2-  O542  1  0.34918593  0.16705040  0.71733798  1
  O2-  O543  1  0.33596135  0.41982296  0.00763063  1
  O2-  O544  1  0.34963159  0.41759631  0.36616426  1
  O2-  O545  1  0.32839218  0.41419488  0.69728932  1
  O2-  O546  1  0.33742365  0.68017853  0.02208365  1
  O2-  O547  1  0.34963874  0.67493462  0.27393030  1
  O2-  O548  1  0.33233533  0.65886044  0.68772937  1
  O2-  O549  1  0.35611977  1.00402892  0.01487757  1
  O2-  O550  1  0.33754670  0.89227678  0.33721941  1
  O2-  O551  1  0.32668081  0.91313584  0.68465818  1
  O2-  O552  1  0.58701771  0.20895209  -0.04176549  1
  O2-  O553  1  0.58081515  0.14894645  0.34589049  1
  O2-  O554  1  0.60290915  0.18175191  0.68707995  1
  O2-  O555  1  0.59171698  0.43744326  0.02665456  1
  O2-  O556  1  0.57731939  0.42223714  0.37069056  1
  O2-  O557  1  0.62833051  0.45109503  0.69566383  1
  O2-  O558  1  0.58628151  0.66642036  0.01496354  1
  O2-  O559  1  0.58325054  0.67104308  0.37725526  1
  O2-  O560  1  0.60180692  0.67918076  0.69657355  1
  O2-  O561  1  0.57541874  0.90756642  0.01025184  1
  O2-  O562  1  0.59039095  0.91638684  0.34940047  1
  O2-  O563  1  0.59186260  0.93918639  0.70192148  1
  O2-  O564  1  0.89026674  0.16749983  0.06400542  1
  O2-  O565  1  0.79808867  0.22795959  0.36012678  1
  O2-  O566  1  0.82993105  0.15964682  0.67901613  1
  O2-  O567  1  0.85220907  0.43729901  0.03399545  1
  O2-  O568  1  0.81804700  0.39493493  0.36718160  1
  O2-  O569  1  0.82998854  0.40769395  0.69701897  1
  O2-  O570  1  0.84402541  0.66291071  0.03068694  1
  O2-  O571  1  0.82401951  0.66197595  0.30026033  1
  O2-  O572  1  0.80850135  0.66719049  0.68902077  1
  O2-  O573  1  0.82314862  0.90591784  0.02049116  1
  O2-  O574  1  0.82583467  0.89903870  0.35004474  1
  O2-  O575  1  0.84334884  0.92898418  0.68600413  1
