# generated using pymatgen
data_H2O
_symmetry_space_group_name_H-M   'P 1'
_cell_length_a   17.99219110
_cell_length_b   17.99213617
_cell_length_c   22.00509216
_cell_angle_alpha   90.01865420
_cell_angle_beta   89.97179755
_cell_angle_gamma   120.02609472
_symmetry_Int_Tables_number   1
_chemical_formula_structural   H2O
_chemical_formula_sum   'H384 O192'
_cell_volume   6167.45936353
_cell_formula_units_Z   192
loop_
 _symmetry_equiv_pos_site_id
 _symmetry_equiv_pos_as_xyz
  1  'x, y, z'
loop_
 _atom_type_symbol
 _atom_type_oxidation_number
  H+  1.0
  O2-  -2.0
loop_
 _atom_site_type_symbol
 _atom_site_label
 _atom_site_symmetry_multiplicity
 _atom_site_fract_x
 _atom_site_fract_y
 _atom_site_fract_z
 _atom_site_occupancy
  H+  H0  1  0.64190146  0.64652373  0.85731998  1
  H+  H1  1  0.38946952  0.11238211  0.64952845  1
  H+  H2  1  0.00741186  0.12214557  -0.00876298  1
  H+  H3  1  0.34808941  0.47231879  -0.00178408  1
  H+  H4  1  0.66340528  0.53302929  0.18221714  1
  H+  H5  1  0.28250547  0.63827211  0.49441432  1
  H+  H6  1  0.32596616  0.15892251  0.54906604  1
  H+  H7  1  0.60945460  0.97896412  0.01358442  1
  H+  H8  1  0.22510678  0.36504508  0.33256906  1
  H+  H9  1  0.11358098  0.73455884  0.33895975  1
  H+  H10  1  0.46776552  0.08248313  0.33798358  1
  H+  H11  1  0.36014809  0.63565656  0.81840237  1
  H+  H12  1  0.87176093  0.59476332  0.83880565  1
  H+  H13  1  0.49583965  0.83120039  0.36639178  1
  H+  H14  1  0.59612872  0.44503733  0.49381144  1
  H+  H15  1  0.14425692  0.01816527  0.65508451  1
  H+  H16  1  0.27080159  0.14004320  0.65971160  1
  H+  H17  1  0.58057419  0.65092348  -0.03595929  1
  H+  H18  1  0.55121971  0.40376941  0.18759612  1
  H+  H19  1  0.40162206  0.62641526  0.65482922  1
  H+  H20  1  -0.02585893  0.61725816  0.65379278  1
  H+  H21  1  0.83512257  0.42095899  0.38950878  1
  H+  H22  1  0.51336296  0.11849533  0.82385694  1
  H+  H23  1  0.66157528  0.08101213  0.93937492  1
  H+  H24  1  0.77676272  0.63836716  0.01510960  1
  H+  H25  1  0.42285316  0.83727011  0.93933959  1
  H+  H26  1  0.62726846  0.09320461  0.83988172  1
  H+  H27  1  0.88647313  0.78253600  0.32881413  1
  H+  H28  1  0.31797282  0.67214905  0.09754177  1
  H+  H29  1  0.42405246  0.14204169  0.20600536  1
  H+  H30  1  0.52917476  0.87937655  0.68180057  1
  H+  H31  1  0.88432853  0.77623122  0.99605504  1
  H+  H32  1  0.76995715  0.89162529  0.00862687  1
  H+  H33  1  0.86952529  0.39068048  0.01615511  1
  H+  H34  1  0.86003495  0.13268768  0.33939795  1
  H+  H35  1  0.85316038  0.38491826  0.50350506  1
  H+  H36  1  0.98258608  0.15792798  0.62200140  1
  H+  H37  1  0.35572003  0.11829082  0.82897227  1
  H+  H38  1  0.47816686  0.12150565  1.00165818  1
  H+  H39  1  0.35987578  0.73565638  1.00499511  1
  H+  H40  1  0.35311121  0.37650049  0.81854786  1
  H+  H41  1  0.64251530  0.27316603  0.17818247  1
  H+  H42  1  0.60173337  0.93970738  0.51316444  1
  H+  H43  1  0.85987786  0.22502156  1.00720940  1
  H+  H44  1  0.70431582  0.20306825  0.45664612  1
  H+  H45  1  0.14287908  0.55789998  0.96622514  1
  H+  H46  1  0.88777261  0.36708040  0.18268281  1
  H+  H47  1  0.56745357  0.40349375  0.75270627  1
  H+  H48  1  0.62777976  0.35259466  0.32661916  1
  H+  H49  1  0.82745829  0.87996797  0.82929372  1
  H+  H50  1  0.22820010  0.64070043  0.17153076  1
  H+  H51  1  0.72062474  0.34632876  0.82044686  1
  H+  H52  1  0.98033846  0.62505786  0.32289794  1
  H+  H53  1  0.43324227  0.55689011  0.66185338  1
  H+  H54  1  0.36894020  0.26039625  0.82108640  1
  H+  H55  1  0.32782598  0.43093987  0.39863508  1
  H+  H56  1  0.51363268  0.62662562  0.15421873  1
  H+  H57  1  0.07627247  0.16506821  0.90054501  1
  H+  H58  1  0.87471643  0.64775166  0.66322742  1
  H+  H59  1  0.33534219  0.60086386  0.18052238  1
  H+  H60  1  0.36598487  0.72664980  0.66647876  1
  H+  H61  1  0.40618558  0.63152758  0.50164940  1
  H+  H62  1  0.73405461  0.11884721  0.17368431  1
  H+  H63  1  0.40183873  0.48625900  0.13880879  1
  H+  H64  1  0.09947661  0.96542421  0.48428507  1
  H+  H65  1  0.12455552  0.01333159  0.99568714  1
  H+  H66  1  0.36632805  -0.01696178  1.01336581  1
  H+  H67  1  0.11513117  0.22870367  0.34227736  1
  H+  H68  1  0.13967799  0.78917714  0.98836277  1
  H+  H69  1  0.76263269  0.39047517  0.49834976  1
  H+  H70  1  0.85282044  0.25521116  0.50788809  1
  H+  H71  1  0.63492885  0.10283150  0.66299458  1
  H+  H72  1  0.86070302  0.14150436  0.83039390  1
  H+  H73  1  0.39739405  0.63668388  0.33202920  1
  H+  H74  1  0.13536025  0.10062529  0.66574588  1
  H+  H75  1  0.87344370  0.02171851  0.84484760  1
  H+  H76  1  0.84501710  0.46222496  0.82594151  1
  H+  H77  1  0.63314984  0.61607520  0.32151672  1
  H+  H78  1  0.63119156  0.87266773  -0.00474842  1
  H+  H79  1  0.96836577  0.61275843  0.50968686  1
  H+  H80  1  0.41013204  0.85924082  0.83924946  1
  H+  H81  1  0.85077303  0.12999502  0.49030376  1
  H+  H82  1  0.36454304  0.89317338  0.01231108  1
  H+  H83  1  0.89203234  0.12408692  0.65646849  1
  H+  H84  1  0.63082912  0.75016520  0.65977953  1
  H+  H85  1  0.63490742  0.52653494  0.31786595  1
  H+  H86  1  0.71827933  0.86242480  0.17519338  1
  H+  H87  1  0.77271811  0.13929102  0.82711900  1
  H+  H88  1  0.86114420  0.89063217  0.16349791  1
  H+  H89  1  0.90011670  0.32634563  0.61783253  1
  H+  H90  1  0.63482786  0.39267732  0.18358034  1
  H+  H91  1  0.89377335  0.26293234  0.67028997  1
  H+  H92  1  0.86535465  0.22537793  0.34052925  1
  H+  H93  1  0.38634225  0.11890152  0.99668653  1
  H+  H94  1  0.97341773  0.86818572  0.17686303  1
  H+  H95  1  0.38014717  0.49711123  0.49157808  1
  H+  H96  1  0.53149829  0.13515980  0.17106155  1
  H+  H97  1  0.39310384  0.31923622  0.91905470  1
  H+  H98  1  0.77953821  0.39088950  0.17052470  1
  H+  H99  1  0.86300884  0.48841342  0.50134522  1
  H+  H100  1  0.28699092  0.66845999  0.34482216  1
  H+  H101  1  0.12876718  0.78159478  0.16818167  1
  H+  H102  1  0.11643610  0.85901337  0.33395300  1
  H+  H103  1  0.13278229  0.35750089  0.33011400  1
  H+  H104  1  0.88848263  0.53267541  0.17633892  1
  H+  H105  1  0.43554654  0.43290628  0.68648635  1
  H+  H106  1  0.52523710  0.38161928  0.31991006  1
  H+  H107  1  0.20547032  0.11015691  0.50617151  1
  H+  H108  1  0.12803155  0.86167392  0.49934453  1
  H+  H109  1  0.01744141  0.88574111  0.00338357  1
  H+  H110  1  0.33404499  0.66491129  0.72335699  1
  H+  H111  1  0.36698848  0.35186932  0.97864243  1
  H+  H112  1  0.11914526  0.02379147  0.17341108  1
  H+  H113  1  0.54873543  0.67748660  0.48675136  1
  H+  H114  1  0.79546786  0.90968263  0.66469707  1
  H+  H115  1  0.11655583  0.96844113  0.82074536  1
  H+  H116  1  0.14297569  0.61946251  0.33277528  1
  H+  H117  1  0.65281066  0.63550577  0.66512498  1
  H+  H118  1  0.05664835  0.40843813  0.48873705  1
  H+  H119  1  0.87695910  0.61213487  0.50224747  1
  H+  H120  1  0.61711306  0.22986787  0.01993026  1
  H+  H121  1  0.60962957  0.84527280  0.57375740  1
  H+  H122  1  0.23290062  0.63078919  0.82051960  1
  H+  H123  1  0.21977190  0.10653290  0.32415038  1
  H+  H124  1  0.87239520  0.64702002  0.16589493  1
  H+  H125  1  0.34781453  0.22757294  0.49884744  1
  H+  H126  1  0.61867613  0.88582480  0.66856314  1
  H+  H127  1  0.60965244  0.88125263  0.16403756  1
  H+  H128  1  0.15159701  0.52106229  0.49585623  1
  H+  H129  1  0.87069205  0.73208683  0.49411433  1
  H+  H130  1  0.10471756  0.14789272  0.16667614  1
  H+  H131  1  0.63388945  0.52370891  1.01728902  1
  H+  H132  1  0.90546063  0.07584876  0.93988349  1
  H+  H133  1  0.88386119  0.61038921  -0.00544237  1
  H+  H134  1  0.11033202  0.89063443  0.00493538  1
  H+  H135  1  0.64247959  0.11654446  0.17525761  1
  H+  H136  1  0.18693411  0.35249010  0.23965846  1
  H+  H137  1  0.38066975  0.77006179  0.51664380  1
  H+  H138  1  0.78132149  0.65179919  0.66731660  1
  H+  H139  1  0.35258653  0.22135447  0.14095513  1
  H+  H140  1  0.10519661  0.35974774  0.02655001  1
  H+  H141  1  0.21687361  0.10578500  -0.00885312  1
  H+  H142  1  0.39742555  -0.02987720  0.81994037  1
  H+  H143  1  0.36521841  -0.03191272  0.49044396  1
  H+  H144  1  0.02005369  0.38479589  0.66955424  1
  H+  H145  1  0.82550396  0.90958006  0.42726832  1
  H+  H146  1  0.88329106  0.11523041  0.17699865  1
  H+  H147  1  0.35947196  -0.01849714  0.16834977  1
  H+  H148  1  0.73765179  0.37221610  1.01941510  1
  H+  H149  1  0.10158600  0.96216292  0.34378170  1
  H+  H150  1  0.93917285  0.33695224  0.52488959  1
  H+  H151  1  0.60102479  0.73811347  -0.00622468  1
  H+  H152  1  0.65818060  0.85204149  0.93106203  1
  H+  H153  1  0.62145716  0.84257210  0.33759034  1
  H+  H154  1  0.60437696  0.21184120  0.33936099  1
  H+  H155  1  0.11521855  0.47445366  0.34276471  1
  H+  H156  1  0.58848823  0.68553940  0.76637706  1
  H+  H157  1  0.49373450  0.85050284  0.84762036  1
  H+  H158  1  0.88363667  0.99484278  0.66576152  1
  H+  H159  1  0.11463759  0.24012112  0.16925066  1
  H+  H160  1  1.00611482  0.62092368  0.81040773  1
  H+  H161  1  0.85317992  0.48027307  0.67650527  1
  H+  H162  1  0.34875505  0.64078217  0.00094839  1
  H+  H163  1  0.90045673  0.87342279  0.65428368  1
  H+  H164  1  0.47204304  0.61859639  0.83476855  1
  H+  H165  1  0.97418367  0.35547805  1.00441593  1
  H+  H166  1  0.62307677  0.49092896  0.66524036  1
  H+  H167  1  0.64078503  0.11736004  0.32287444  1
  H+  H168  1  0.32810369  0.00563860  0.87073141  1
  H+  H169  1  0.36513639  -0.02649772  0.66833534  1
  H+  H170  1  0.70917686  0.88868171  0.82733704  1
  H+  H171  1  0.10298490  0.64598672  0.14720668  1
  H+  H172  1  0.22672348  0.36979088  0.86039836  1
  H+  H173  1  0.65196068  0.27342557  0.49941536  1
  H+  H174  1  0.89286586  0.62774980  0.32280148  1
  H+  H175  1  0.60338153  0.20418890  0.81649242  1
  H+  H176  1  0.98094140  0.86868691  0.33342776  1
  H+  H177  1  0.09624543  0.12322810  0.48870266  1
  H+  H178  1  0.53513314  0.40710643  0.65059324  1
  H+  H179  1  0.85941460  0.97412587  0.34359120  1
  H+  H180  1  0.14698443  0.83072126  0.27184458  1
  H+  H181  1  0.61198843  0.39306876  1.03721926  1
  H+  H182  1  -0.02502640  0.12213002  0.17837799  1
  H+  H183  1  0.14100588  0.77137273  0.65360729  1
  H+  H184  1  1.03475610  0.41140943  0.81782480  1
  H+  H185  1  0.46467055  0.34455501  0.10871225  1
  H+  H186  1  0.11242584  0.13372544  0.84923713  1
  H+  H187  1  0.25938036  0.39202583  0.66836788  1
  H+  H188  1  0.33814488  0.16335684  0.38588997  1
  H+  H189  1  0.47005283  0.86002565  0.16947283  1
  H+  H190  1  0.01638392  0.11473041  0.69206030  1
  H+  H191  1  0.11542685  0.23935075  0.64140286  1
  H+  H192  1  0.46087784  0.34616366  0.82028457  1
  H+  H193  1  0.71749940  0.85722439  0.33009386  1
  H+  H194  1  0.97200587  0.11115137  0.32828562  1
  H+  H195  1  0.96589468  0.10707758  0.85266628  1
  H+  H196  1  0.38749367  0.10380711  0.49705257  1
  H+  H197  1  0.18649646  0.90723391  0.83981709  1
  H+  H198  1  0.34040137  0.85095899  0.33539345  1
  H+  H199  1  0.63749132  1.01501762  0.67007361  1
  H+  H200  1  0.70042460  0.86073243  0.57925000  1
  H+  H201  1  0.45477659  0.61638097  -0.01261442  1
  H+  H202  1  0.38510834  0.52618487  0.83454149  1
  H+  H203  1  0.08239236  0.65760329  0.55688468  1
  H+  H204  1  0.10859682  0.63071084  0.66094992  1
  H+  H205  1  0.34199718  0.34640492  0.62749647  1
  H+  H206  1  0.10704895  0.89224878  0.16081261  1
  H+  H207  1  0.28624981  0.41373750  0.50003790  1
  H+  H208  1  0.35219951  0.48777443  0.33956698  1
  H+  H209  1  0.12264170  0.49977291  0.81109457  1
  H+  H210  1  0.22790648  0.61094613  0.65256962  1
  H+  H211  1  0.11284921  0.48367034  0.66395477  1
  H+  H212  1  0.38282192  0.37365575  0.49016982  1
  H+  H213  1  0.27494791  0.88142220  0.49163707  1
  H+  H214  1  0.39589726  0.86324535  0.66556014  1
  H+  H215  1  0.78253350  0.75298952  0.87289591  1
  H+  H216  1  0.85310639  0.36375604  0.34318274  1
  H+  H217  1  0.12378335  0.88510158  0.66484765  1
  H+  H218  1  0.11098574  0.22077344  0.99620414  1
  H+  H219  1  0.54475158  0.66443756  0.66686367  1
  H+  H220  1  0.61196557  0.97168018  0.16439319  1
  H+  H221  1  0.89594830  0.38712828  0.84527740  1
  H+  H222  1  0.87000960  0.48092304  0.01358286  1
  H+  H223  1  0.71118057  0.08342361  0.51235415  1
  H+  H224  1  1.00247749  0.12180246  0.48291915  1
  H+  H225  1  0.97446326  0.61611454  0.98922834  1
  H+  H226  1  0.42289241  0.83349455  0.60604836  1
  H+  H227  1  0.72230867  0.11322325  -0.00198494  1
  H+  H228  1  0.77145426  0.64154802  0.33817522  1
  H+  H229  1  0.86399058  0.23164881  0.16352767  1
  H+  H230  1  0.30637373  0.89408452  0.82726147  1
  H+  H231  1  0.88773431  0.86000581  0.50255218  1
  H+  H232  1  0.92520485  0.84014723  0.59303970  1
  H+  H233  1  0.34676941  0.68513560  0.43858460  1
  H+  H234  1  0.75613453  0.63223820  0.17606576  1
  H+  H235  1  0.61029125  0.21839284  0.66957561  1
  H+  H236  1  0.34490490  0.22068337  -0.01022978  1
  H+  H237  1  0.22008535  0.34940455  0.00720526  1
  H+  H238  1  0.25811210  0.35745779  0.68863701  1
  H+  H239  1  0.87478574  0.01365413  0.49914313  1
  H+  H240  1  0.76745638  0.62807619  0.83484977  1
  H+  H241  1  0.59929601  0.74431439  0.82241729  1
  H+  H242  1  0.22980666  0.87540585  0.00048689  1
  H+  H243  1  0.10136864  0.63646519  0.80749094  1
  H+  H244  1  0.85998792  0.13622066  0.01046884  1
  H+  H245  1  0.14845262  0.61176148  0.50152010  1
  H+  H246  1  0.97974073  0.36042263  0.33422888  1
  H+  H247  1  0.33104907  0.12341161  0.14134873  1
  H+  H248  1  0.11446220  0.65816308  0.99434611  1
  H+  H249  1  0.70536866  0.81881450  0.48064435  1
  H+  H250  1  0.98023919  0.86311032  0.49845954  1
  H+  H251  1  0.62875228  0.34981102  0.49611629  1
  H+  H252  1  0.15670801  0.40152093  0.51004514  1
  H+  H253  1  0.21862236  0.86882025  0.17594453  1
  H+  H254  1  0.11625226  0.45104141  0.02517634  1
  H+  H255  1  0.88208573  0.86422439  -0.00225788  1
  H+  H256  1  0.23202170  0.85979216  0.65650175  1
  H+  H257  1  0.52333764  0.63697687  0.33511758  1
  H+  H258  1  0.64206631  0.61534830  1.02189310  1
  H+  H259  1  0.64410641  0.01439685  0.84631457  1
  H+  H260  1  0.37183045  0.72877030  0.82079517  1
  H+  H261  1  0.77667894  0.65149381  0.49692433  1
  H+  H262  1  0.59155336  0.36157335  0.80646082  1
  H+  H263  1  0.23336904  0.64075536  0.98092455  1
  H+  H264  1  0.77438248  0.12982494  0.67700436  1
  H+  H265  1  0.50918697  0.85937361  0.51838491  1
  H+  H266  1  0.15620878  0.38726694  0.18428534  1
  H+  H267  1  0.63396809  0.13164030  0.49593569  1
  H+  H268  1  0.64218435  0.57092301  0.49829790  1
  H+  H269  1  0.35637667  0.73641070  0.15644794  1
  H+  H270  1  0.88373256  1.02001011  0.00215773  1
  H+  H271  1  0.01425786  0.64485151  0.15193007  1
  H+  H272  1  0.10840593  0.48763317  0.17143062  1
  H+  H273  1  0.86542287  0.88733248  0.34302652  1
  H+  H274  1  0.20573719  0.11319657  0.17127970  1
  H+  H275  1  0.87726756  0.74627093  0.66098147  1
  H+  H276  1  0.38306366  0.86398892  0.17300499  1
  H+  H277  1  0.26071204  0.86814343  0.32686226  1
  H+  H278  1  0.11366514  0.13653654  0.34036017  1
  H+  H279  1  0.71257344  0.34331257  0.33286897  1
  H+  H280  1  0.22213635  0.10795572  0.84154812  1
  H+  H281  1  0.39882701  0.36408467  0.14274341  1
  H+  H282  1  0.10715150  0.73188215  0.51011813  1
  H+  H283  1  0.63326548  0.36025354  0.65417190  1
  H+  H284  1  0.13963914  0.28087851  0.85984005  1
  H+  H285  1  0.57514916  0.15267509  0.72617651  1
  H+  H286  1  1.03600971  0.88816760  0.66679338  1
  H+  H287  1  0.47648048  0.86745766  1.00116961  1
  H+  H288  1  0.67235113  0.35844454  0.96761842  1
  H+  H289  1  0.11733937  0.28696300  0.57983061  1
  H+  H290  1  0.87067528  0.73798457  0.16795021  1
  H+  H291  1  0.91699889  0.84049959  0.23852480  1
  H+  H292  1  0.39815851  0.58323755  0.92812927  1
  H+  H293  1  0.07129622  0.65798736  0.71825887  1
  H+  H294  1  0.50501521  0.36771026  0.48075682  1
  H+  H295  1  0.66301835  0.32672654  0.59813399  1
  H+  H296  1  0.59545417  0.15566713  0.39769740  1
  H+  H297  1  0.58447657  0.16417188  0.10777988  1
  H+  H298  1  0.29124935  0.08708642  0.77546115  1
  H+  H299  1  0.58200515  0.91679209  0.07264375  1
  H+  H300  1  0.82058965  0.15910784  0.43165741  1
  H+  H301  1  0.42166231  0.30871062  0.24003476  1
  H+  H302  1  0.83368490  0.17198164  0.10317187  1
  H+  H303  1  0.83343179  0.16030690  0.73755593  1
  H+  H304  1  0.10472978  0.91318503  0.76187681  1
  H+  H305  1  0.90838281  0.07895084  0.55616410  1
  H+  H306  1  0.68432988  0.59951227  0.23910415  1
  H+  H307  1  0.14417791  0.07690579  0.56278837  1
  H+  H308  1  0.86221724  0.97996094  0.16249240  1
  H+  H309  1  0.07486951  0.91835611  0.10066105  1
  H+  H310  1  0.82641653  0.40939109  0.76352292  1
  H+  H311  1  0.90681893  0.56942348  0.89729486  1
  H+  H312  1  0.42373330  0.07411283  0.25055064  1
  H+  H313  1  0.29642916  0.39923299  0.77325157  1
  H+  H314  1  0.67691578  0.09264043  0.25566867  1
  H+  H315  1  0.90669064  0.58564789  0.59829517  1
  H+  H316  1  0.16152300  0.32839983  0.94857922  1
  H+  H317  1  0.07850173  0.67954208  0.05537409  1
  H+  H318  1  0.40501824  0.07407908  0.91132768  1
  H+  H319  1  0.57229741  0.41322477  0.38431808  1
  H+  H320  1  0.84249630  0.67428706  0.06999744  1
  H+  H321  1  0.65254064  0.66093083  0.50462926  1
  H+  H322  1  0.30580731  0.41129353  0.15817310  1
  H+  H323  1  0.84005224  0.42242183  0.11151587  1
  H+  H324  1  0.60245173  0.43589709  0.09609462  1
  H+  H325  1  0.59908704  0.68846595  0.42527958  1
  H+  H326  1  0.91175023  0.08141250  0.26943655  1
  H+  H327  1  0.73802021  0.12217174  0.32284772  1
  H+  H328  1  0.34270654  0.91474844  0.72840163  1
  H+  H329  1  0.60390250  0.89754810  0.77376228  1
  H+  H330  1  0.34222614  0.18345600  0.71175384  1
  H+  H331  1  0.07296194  0.15740737  0.41953164  1
  H+  H332  1  0.97630687  0.36639801  0.18389814  1
  H+  H333  1  0.20924746  0.88185768  0.90491863  1
  H+  H334  1  0.33075757  0.92550826  0.10741000  1
  H+  H335  1  0.39600541  0.25260222  0.30046895  1
  H+  H336  1  0.82969727  0.67028968  0.39807560  1
  H+  H337  1  0.08468339  0.43173898  0.73379273  1
  H+  H338  1  0.82923041  0.92813971  0.76708973  1
  H+  H339  1  0.61241400  0.13851060  0.01207083  1
  H+  H340  1  0.87120953  0.81992545  0.90217956  1
  H+  H341  1  0.15448222  0.08089426  0.26898368  1
  H+  H342  1  0.16198820  0.07138382  0.90034783  1
  H+  H343  1  0.08646658  0.67170430  0.39660986  1
  H+  H344  1  0.10890740  0.11948578  0.98785055  1
  H+  H345  1  0.67739740  0.60720417  0.60388392  1
  H+  H346  1  0.47644885  0.10887634  0.65317620  1
  H+  H347  1  0.92473446  0.34735613  0.94223525  1
  H+  H348  1  0.17550789  0.61218535  0.87960623  1
  H+  H349  1  0.43280863  0.47603318  0.74778529  1
  H+  H350  1  0.66850294  0.32444998  0.24141824  1
  H+  H351  1  0.17623378  0.58564424  0.27830984  1
  H+  H352  1  0.65829726  0.83109727  0.23335633  1
  H+  H353  1  0.65748516  0.06214384  0.57389032  1
  H+  H354  1  0.08332931  0.41901190  0.11792469  1
  H+  H355  1  0.67157357  0.61451695  0.91745637  1
  H+  H356  1  0.17644178  0.66553525  0.21811210  1
  H+  H357  1  0.97333711  0.45683000  0.88152050  1
  H+  H358  1  0.28877292  0.50728821  0.20912009  1
  H+  H359  1  0.65070167  0.31341907  0.87270853  1
  H+  H360  1  0.42086119  0.07808510  0.55450739  1
  H+  H361  1  0.35874073  0.11288983  0.33620416  1
  H+  H362  1  0.33713630  0.41823602  0.05855604  1
  H+  H363  1  0.17197590  0.57966502  0.59122475  1
  H+  H364  1  0.38123309  0.86062094  0.51465123  1
  H+  H365  1  0.40972027  0.34180614  0.54870607  1
  H+  H366  1  0.92301030  0.59782780  0.23362660  1
  H+  H367  1  0.07137684  0.90525678  0.42018924  1
  H+  H368  1  0.37753403  -0.00874723  0.32561738  1
  H+  H369  1  0.76840893  0.38872859  0.67314016  1
  H+  H370  1  0.09573015  0.41929761  0.40264254  1
  H+  H371  1  0.56252896  0.86028270  0.42186725  1
  H+  H372  1  0.21052517  0.42020638  0.57330495  1
  H+  H373  1  0.85467042  0.70632737  0.82116268  1
  H+  H374  1  0.51885454  0.61279283  0.08529768  1
  H+  H375  1  0.07574592  0.14760814  0.75007966  1
  H+  H376  1  0.39723950  0.58984471  0.27134231  1
  H+  H377  1  0.16548148  0.84080821  0.56044577  1
  H+  H378  1  0.61410802  0.72417715  0.33301648  1
  H+  H379  1  0.91959660  0.33038748  0.27427126  1
  H+  H380  1  0.37263475  0.28079103  0.64406843  1
  H+  H381  1  0.31551797  0.16465693  0.05207351  1
  H+  H382  1  0.44304136  0.60638286  0.55894585  1
  H+  H383  1  0.82747374  0.91741261  0.06993534  1
  O2-  O384  1  0.07736780  0.18165396  0.15374234  1
  O2-  O385  1  0.06486127  0.15159210  0.46868206  1
  O2-  O386  1  0.07950715  0.16512330  0.85575553  1
  O2-  O387  1  0.08490925  0.42625681  0.16290528  1
  O2-  O388  1  0.11493717  0.43469820  0.47351703  1
  O2-  O389  1  0.09027784  0.43888335  0.79590549  1
  O2-  O390  1  0.07317875  0.67637669  0.13274978  1
  O2-  O391  1  0.07541705  0.66580852  0.51375655  1
  O2-  O392  1  0.06190968  0.65372556  0.78915370  1
  O2-  O393  1  0.07489318  0.92104442  0.14593356  1
  O2-  O394  1  0.07164116  0.90507425  0.47103739  1
  O2-  O395  1  0.10962604  0.91328734  0.80674268  1
  O2-  O396  1  0.30762603  0.16042583  0.13130863  1
  O2-  O397  1  0.31746436  0.16376646  0.50570991  1
  O2-  O398  1  0.32352509  0.13765686  0.80120877  1
  O2-  O399  1  0.35705670  0.42473261  0.13327008  1
  O2-  O400  1  0.34325974  0.43535267  0.47953028  1
  O2-  O401  1  0.32955559  0.41669987  0.81098648  1
  O2-  O402  1  0.31650023  0.67341775  0.14265623  1
  O2-  O403  1  0.34481477  0.67393949  0.48336163  1
  O2-  O404  1  0.33627576  0.67106303  0.80162245  1
  O2-  O405  1  0.32612471  0.92237288  0.15273951  1
  O2-  O406  1  0.33624575  0.90541390  0.48203803  1
  O2-  O407  1  0.36250478  0.91013549  0.80641533  1
  O2-  O408  1  0.59047814  0.16675247  0.15328769  1
  O2-  O409  1  0.64551262  0.18304539  0.47005658  1
  O2-  O410  1  0.57071830  0.14122067  0.80611839  1
  O2-  O411  1  0.61152290  0.43304351  0.17478822  1
  O2-  O412  1  0.56790374  0.39305856  0.46933497  1
  O2-  O413  1  0.55741186  0.38904517  0.79637648  1
  O2-  O414  1  0.50372598  0.58253714  0.12432202  1
  O2-  O415  1  0.60821523  0.70466059  0.46950402  1
  O2-  O416  1  0.57852065  0.68360014  0.81094192  1
  O2-  O417  1  0.58025272  0.91319860  0.14729136  1
  O2-  O418  1  0.57112583  0.87619993  0.51157774  1
  O2-  O419  1  0.60585138  0.90321265  0.81981489  1
  O2-  O420  1  0.83264650  0.17083253  0.14864760  1
  O2-  O421  1  0.81778597  0.15841420  0.47725287  1
  O2-  O422  1  0.83153854  0.16900129  0.81013038  1
  O2-  O423  1  0.84067642  0.42387130  0.15689774  1
  O2-  O424  1  0.82855338  0.42219524  0.48866104  1
  O2-  O425  1  0.82036858  0.40208038  0.80954618  1
  O2-  O426  1  0.84011348  0.67684272  0.15138511  1
  O2-  O427  1  0.83535327  0.67013656  0.48088027  1
  O2-  O428  1  0.82202506  0.64417987  0.81388144  1
  O2-  O429  1  0.83153592  0.92016638  0.14603558  1
  O2-  O430  1  0.82982943  0.90846015  0.47552300  1
  O2-  O431  1  0.81424669  0.92372667  0.81067733  1
  O2-  O432  1  0.14827523  0.08362335  0.19038158  1
  O2-  O433  1  0.14332739  0.07897676  0.51739542  1
  O2-  O434  1  0.16164917  0.07827377  0.85518326  1
  O2-  O435  1  0.19730059  0.36788389  0.19531868  1
  O2-  O436  1  0.19051723  0.37975893  0.53944936  1
  O2-  O437  1  0.16858667  0.33911232  0.87798228  1
  O2-  O438  1  0.16962545  0.61733903  0.19343325  1
  O2-  O439  1  0.17978840  0.58355976  0.51619794  1
  O2-  O440  1  0.17170087  0.60193987  0.83506865  1
  O2-  O441  1  0.15664836  0.83904540  0.18785583  1
  O2-  O442  1  0.15910793  0.83205607  0.51560507  1
  O2-  O443  1  0.23490675  0.90933828  0.86504091  1
  O2-  O444  1  0.43024626  0.09125499  0.20514051  1
  O2-  O445  1  0.42178197  0.07793969  0.50947151  1
  O2-  O446  1  0.38669406  0.05889545  0.86753947  1
  O2-  O447  1  0.42789011  0.32808356  0.14508440  1
  O2-  O448  1  0.40770163  0.33609848  0.50370900  1
  O2-  O449  1  0.39868203  0.32028508  0.83470316  1
  O2-  O450  1  0.34506039  0.55853873  0.20338426  1
  O2-  O451  1  0.44257185  0.60577621  0.51364477  1
  O2-  O452  1  0.41137236  0.58595352  0.84976686  1
  O2-  O453  1  0.40844946  0.82732765  0.18109289  1
  O2-  O454  1  0.40941678  0.82929185  0.53431821  1
  O2-  O455  1  0.43274756  0.82494805  0.85994234  1
  O2-  O456  1  0.67399174  0.08757639  0.19159900  1
  O2-  O457  1  0.65195635  0.05720907  0.52838932  1
  O2-  O458  1  0.66386381  0.07369224  0.86028052  1
  O2-  O459  1  0.67383313  0.33234793  0.19580938  1
  O2-  O460  1  0.66981146  0.33324235  0.51368724  1
  O2-  O461  1  0.65561290  0.31056949  0.82887647  1
  O2-  O462  1  0.69105962  0.59687739  0.19209290  1
  O2-  O463  1  0.67506584  0.62283601  0.52223714  1
  O2-  O464  1  0.69029470  0.64661864  0.87878752  1
  O2-  O465  1  0.65747213  0.83264026  0.18816006  1
  O2-  O466  1  0.74296287  0.87551740  0.50025489  1
  O2-  O467  1  0.64772872  0.85634784  0.84305497  1
  O2-  O468  1  0.91374264  0.08566122  0.19261619  1
  O2-  O469  1  0.90611826  0.07611670  0.51082363  1
  O2-  O470  1  0.90466102  0.07927478  0.86524198  1
  O2-  O471  1  0.91481695  0.33269580  0.19627551  1
  O2-  O472  1  0.87746680  0.31466102  0.52642627  1
  O2-  O473  1  0.94719692  0.39642059  0.87000619  1
  O2-  O474  1  0.91935449  0.59506827  0.18691506  1
  O2-  O475  1  0.90444914  0.57808734  0.51795463  1
  O2-  O476  1  0.90258377  0.56342040  0.85226603  1
  O2-  O477  1  0.91312129  0.83610466  0.19271378  1
  O2-  O478  1  0.92033253  0.83312211  0.51891254  1
  O2-  O479  1  0.83893591  0.80402943  0.86306905  1
  O2-  O480  1  0.15821582  0.08291902  0.31437879  1
  O2-  O481  1  0.16865661  0.08008388  0.64172310  1
  O2-  O482  1  0.15418928  0.07422716  0.97793400  1
  O2-  O483  1  0.16410607  0.32760078  0.31617457  1
  O2-  O484  1  0.08036443  0.23779071  0.60711070  1
  O2-  O485  1  0.15735496  0.31629449  0.99457670  1
  O2-  O486  1  0.17700200  0.59051817  0.32286105  1
  O2-  O487  1  0.16715233  0.57977153  0.63713475  1
  O2-  O488  1  0.17561903  0.61949541  0.95927322  1
  O2-  O489  1  0.14817762  0.82755920  0.31675204  1
  O2-  O490  1  0.17206176  0.83262477  0.64014029  1
  O2-  O491  1  0.17340118  0.85201753  0.97901209  1
  O2-  O492  1  0.40968909  0.05724740  0.31993892  1
  O2-  O493  1  0.41575579  0.07779333  0.63779676  1
  O2-  O494  1  0.41810363  0.08825815  0.98576170  1
  O2-  O495  1  0.43678960  0.30923207  0.28267207  1
  O2-  O496  1  0.39342871  0.34087309  0.62868924  1
  O2-  O497  1  0.38904941  0.31447586  0.96381038  1
  O2-  O498  1  0.41753545  0.59903152  0.31452630  1
  O2-  O499  1  0.44313804  0.60897738  0.63931037  1
  O2-  O500  1  0.39416133  0.58203417  0.97357688  1
  O2-  O501  1  0.39107580  0.78509565  0.34527298  1
  O2-  O502  1  0.42728145  0.83343004  0.65221797  1
  O2-  O503  1  0.41645788  0.83858036  0.98432263  1
  O2-  O504  1  0.67715775  0.09340669  0.30451328  1
  O2-  O505  1  0.66714702  0.07317876  0.65097221  1
  O2-  O506  1  0.66097430  0.08410330  0.98475758  1
  O2-  O507  1  0.65257474  0.31548969  0.31560963  1
  O2-  O508  1  0.66053264  0.32574711  0.64305829  1
  O2-  O509  1  0.67393193  0.34264585  1.00967601  1
  O2-  O510  1  0.66723015  0.58851010  0.30584625  1
  O2-  O511  1  0.68123514  0.60328194  0.64878350  1
  O2-  O512  1  0.66510069  0.58382550  1.00003132  1
  O2-  O513  1  0.65848957  0.82423512  0.31381091  1
  O2-  O514  1  0.64909726  0.84210708  0.60502631  1
  O2-  O515  1  0.66009256  0.84294212  0.97520688  1
  O2-  O516  1  0.91086673  0.08080868  0.31536754  1
  O2-  O517  1  0.92909227  0.10391186  0.63530407  1
  O2-  O518  1  0.91581313  0.08089863  0.98543111  1
  O2-  O519  1  0.91849714  0.32672175  0.31973956  1
  O2-  O520  1  0.92854851  0.32325228  0.65475406  1
  O2-  O521  1  0.91612037  0.33274588  0.98648010  1
  O2-  O522  1  0.92229855  0.59881263  0.30467389  1
  O2-  O523  1  0.91128036  0.59292253  0.64328276  1
  O2-  O524  1  0.91206463  0.57825955  0.97920363  1
  O2-  O525  1  0.91806762  0.84360833  0.31563684  1
  O2-  O526  1  0.92573032  0.83861540  0.63928218  1
  O2-  O527  1  0.91179819  0.83560276  0.97892807  1
  O2-  O528  1  0.07577043  0.15483735  -0.01306348  1
  O2-  O529  1  0.08247568  0.16645400  0.35677097  1
  O2-  O530  1  0.07473455  0.13316433  0.70731254  1
  O2-  O531  1  0.07732906  0.39376639  0.04077488  1
  O2-  O532  1  0.08415323  0.41394530  0.35677694  1
  O2-  O533  1  0.08291951  0.42475967  0.68436927  1
  O2-  O534  1  0.07904713  0.68244966  0.00979632  1
  O2-  O535  1  0.08880291  0.67130858  0.35238376  1
  O2-  O536  1  0.07719147  0.66156506  0.67164668  1
  O2-  O537  1  0.07719814  0.91826934  0.02035851  1
  O2-  O538  1  0.06940537  0.90243665  0.35817935  1
  O2-  O539  1  0.09672029  0.91880398  0.68043517  1
  O2-  O540  1  0.31783930  0.15954492  0.00720220  1
  O2-  O541  1  0.33349634  0.15129836  0.34243496  1
  O2-  O542  1  0.33500363  0.17863644  0.66740012  1
  O2-  O543  1  0.32398339  0.41261525  0.01386467  1
  O2-  O544  1  0.32136120  0.42740511  0.35389011  1
  O2-  O545  1  0.45499191  0.48863367  0.70621816  1
  O2-  O546  1  0.32097162  0.67344746  0.01630262  1
  O2-  O547  1  0.34589917  0.69407513  0.36259021  1
  O2-  O548  1  0.33380159  0.66399239  0.67791337  1
  O2-  O549  1  0.33402940  0.92261588  0.02846794  1
  O2-  O550  1  0.32373635  0.89359449  0.32290204  1
  O2-  O551  1  0.33592593  0.91303154  0.68342298  1
  O2-  O552  1  0.58242275  0.16778559  0.03022938  1
  O2-  O553  1  0.58364937  0.15116827  0.35319302  1
  O2-  O554  1  0.57903964  0.15632984  0.68099571  1
  O2-  O555  1  0.58513560  0.42578237  0.05265769  1
  O2-  O556  1  0.58240531  0.41839932  0.34000334  1
  O2-  O557  1  0.58970768  0.42741235  0.67168808  1
  O2-  O558  1  0.56814931  0.67373198  0.00047191  1
  O2-  O559  1  0.58450650  0.66286862  0.34891716  1
  O2-  O560  1  0.60555553  0.69531105  0.68238669  1
  O2-  O561  1  0.58014047  0.91752059  0.02656344  1
  O2-  O562  1  0.55877773  0.86265467  0.37734432  1
  O2-  O563  1  0.59035730  0.90714348  0.69672093  1
  O2-  O564  1  0.82866106  0.16559816  0.02432379  1
  O2-  O565  1  0.82860960  0.16310192  0.35332370  1
  O2-  O566  1  0.83519147  0.15930269  0.69119303  1
  O2-  O567  1  0.84096069  0.42197113  0.03251658  1
  O2-  O568  1  0.80904389  0.37798875  0.35773320  1
  O2-  O569  1  0.82665402  0.42060849  0.69101763  1
  O2-  O570  1  0.83927232  0.67063715  0.02480316  1
  O2-  O571  1  0.83176730  0.67293377  0.35299471  1
  O2-  O572  1  0.84581871  0.68316683  0.67668518  1
  O2-  O573  1  0.82991492  0.91949253  0.02396893  1
  O2-  O574  1  0.83129547  0.91431693  0.35987411  1
  O2-  O575  1  0.85322117  0.93522080  0.68185227  1
