# generated using pymatgen
data_H2O
_symmetry_space_group_name_H-M   'P 1'
_cell_length_a   17.97822301
_cell_length_b   17.98663139
_cell_length_c   21.98160082
_cell_angle_alpha   89.99548846
_cell_angle_beta   89.96823055
_cell_angle_gamma   120.02593502
_symmetry_Int_Tables_number   1
_chemical_formula_structural   H2O
_chemical_formula_sum   'H384 O192'
_cell_volume   6154.21813620
_cell_formula_units_Z   192
loop_
 _symmetry_equiv_pos_site_id
 _symmetry_equiv_pos_as_xyz
  1  'x, y, z'
loop_
 _atom_type_symbol
 _atom_type_oxidation_number
  H+  1.0
  O2-  -2.0
loop_
 _atom_site_type_symbol
 _atom_site_label
 _atom_site_symmetry_multiplicity
 _atom_site_fract_x
 _atom_site_fract_y
 _atom_site_fract_z
 _atom_site_occupancy
  H+  H0  1  0.88035644  0.50228122  0.84277804  1
  H+  H1  1  0.38763004  0.36696637  0.32314169  1
  H+  H2  1  0.98027913  0.48194056  0.68026124  1
  H+  H3  1  0.36182456  -0.02655825  0.15286824  1
  H+  H4  1  0.98524398  0.62383215  0.65820199  1
  H+  H5  1  0.83136980  0.91805242  0.73346487  1
  H+  H6  1  0.18554346  0.64868751  0.67154223  1
  H+  H7  1  0.27920695  0.88446109  0.00085813  1
  H+  H8  1  0.64113329  0.36593919  0.31983653  1
  H+  H9  1  0.68537088  0.25819361  0.85512356  1
  H+  H10  1  0.60905727  0.89868203  0.67063746  1
  H+  H11  1  0.40764903  0.58648914  0.88976541  1
  H+  H12  1  0.77648118  0.13735233  1.01302976  1
  H+  H13  1  0.61688177  0.65095940  0.66842890  1
  H+  H14  1  0.86107013  0.21645879  0.82819336  1
  H+  H15  1  0.61917780  0.11402242  0.51067661  1
  H+  H16  1  0.36711094  0.78896231  0.50630329  1
  H+  H17  1  1.07799640  0.42455129  0.90770907  1
  H+  H18  1  0.89184927  0.86624631  0.32454614  1
  H+  H19  1  0.22501398  0.11669165  -0.00053397  1
  H+  H20  1  0.48397312  0.64755258  0.66477889  1
  H+  H21  1  0.09808705  0.23420620  0.15274733  1
  H+  H22  1  1.02788230  0.63716681  0.81578532  1
  H+  H23  1  0.85573686  0.72645525  -0.00456912  1
  H+  H24  1  0.34371497  0.65933004  0.50096001  1
  H+  H25  1  0.14267368  0.77498035  0.17247511  1
  H+  H26  1  0.36248811  0.75009627  0.67055389  1
  H+  H27  1  0.38029283  0.52471023  0.17327373  1
  H+  H28  1  0.88179719  0.22351130  0.66984809  1
  H+  H29  1  0.55053909  0.68930635  0.08668301  1
  H+  H30  1  0.46986452  0.36376720  0.98824789  1
  H+  H31  1  0.72860610  0.86686964  0.16941788  1
  H+  H32  1  0.86543135  0.85025994  0.99438881  1
  H+  H33  1  0.75204185  0.59444497  0.97813945  1
  H+  H34  1  0.84792551  0.66343119  0.43867987  1
  H+  H35  1  0.84332784  0.32296704  0.86273233  1
  H+  H36  1  0.17037001  0.83659584  0.23153086  1
  H+  H37  1  0.97998944  0.87354006  0.84315833  1
  H+  H38  1  0.63979850  0.02713626  0.83799189  1
  H+  H39  1  0.35419012  -0.02349574  0.66915315  1
  H+  H40  1  0.56197102  0.47604061  0.13242450  1
  H+  H41  1  0.36175819  0.22568821  1.00809831  1
  H+  H42  1  0.27353927  0.37495333  0.66329792  1
  H+  H43  1  0.93264267  0.84610577  0.56666610  1
  H+  H44  1  0.60602847  0.22833674  0.49015944  1
  H+  H45  1  0.86468647  0.89137368  0.16446755  1
  H+  H46  1  0.67425556  0.49939657  0.17870500  1
  H+  H47  1  0.47197368  0.09578305  0.66075306  1
  H+  H48  1  0.92117958  0.30706770  0.26723704  1
  H+  H49  1  0.65022050  1.02389158  -0.00166119  1
  H+  H50  1  0.32296385  0.91962578  0.76315174  1
  H+  H51  1  0.12794068  0.97986957  0.00682207  1
  H+  H52  1  0.36786145  0.73926805  0.81830015  1
  H+  H53  1  0.30218983  0.19393033  0.85399286  1
  H+  H54  1  0.90044599  0.11138530  0.65858330  1
  H+  H55  1  0.62090723  0.88766326  0.15663901  1
  H+  H56  1  0.64906674  0.11063727  0.00369050  1
  H+  H57  1  0.87422112  0.65794150  0.67078125  1
  H+  H58  1  0.72317167  0.86778581  0.83655026  1
  H+  H59  1  0.60977685  0.88487816  1.00546851  1
  H+  H60  1  0.60907224  0.64422168  0.82361509  1
  H+  H61  1  0.66441178  0.11625503  0.15101982  1
  H+  H62  1  0.02160107  0.35675179  0.66410561  1
  H+  H63  1  0.39397272  0.86715229  0.16840267  1
  H+  H64  1  0.37460077  0.61133645  0.17570257  1
  H+  H65  1  0.88532682  1.02968649  0.17300331  1
  H+  H66  1  0.55353508  0.24321632  0.94105379  1
  H+  H67  1  0.50727451  0.39495423  0.65218933  1
  H+  H68  1  0.13464373  0.11061324  0.32347084  1
  H+  H69  1  0.78580880  0.13807165  0.10756543  1
  H+  H70  1  0.27734053  0.64753993  0.81858115  1
  H+  H71  1  0.59032948  0.14492379  0.20987427  1
  H+  H72  1  1.00780192  0.14598659  0.15257811  1
  H+  H73  1  0.91714308  0.07926048  0.89962175  1
  H+  H74  1  0.60144753  0.90202369  0.49042578  1
  H+  H75  1  0.46506989  0.10003721  0.85026857  1
  H+  H76  1  0.10049359  0.91793899  0.06446491  1
  H+  H77  1  1.01133456  0.39178590  0.85456798  1
  H+  H78  1  -0.07309260  0.57927323  0.08036415  1
  H+  H79  1  0.63356481  0.53467175  0.65924533  1
  H+  H80  1  -0.01967141  0.10903330  -0.00648046  1
  H+  H81  1  1.01916132  0.63088395  0.49408247  1
  H+  H82  1  0.61298979  0.08437111  0.34757939  1
  H+  H83  1  0.36127648  0.72993917  0.16382105  1
  H+  H84  1  0.09679436  0.49950068  0.33312446  1
  H+  H85  1  0.72620575  0.87506737  0.50286990  1
  H+  H86  1  0.63306961  0.30838543  0.64794812  1
  H+  H87  1  0.37205986  0.45265278  0.47958472  1
  H+  H88  1  0.77669134  0.38115879  0.49383803  1
  H+  H89  1  0.27197446  0.38893160  0.00569045  1
  H+  H90  1  0.90944320  0.78505099  0.50821523  1
  H+  H91  1  0.68391027  0.59218515  0.60426997  1
  H+  H92  1  0.63947687  0.40432116  0.84830095  1
  H+  H93  1  0.38128613  0.86218460  0.82716437  1
  H+  H94  1  0.75732377  0.14177914  0.65945239  1
  H+  H95  1  0.76476615  0.60078608  0.51314625  1
  H+  H96  1  0.37391035  0.00705837  0.84340379  1
  H+  H97  1  0.14277889  0.62780168  0.83037544  1
  H+  H98  1  0.22292024  0.36496361  0.17377005  1
  H+  H99  1  0.11504709  0.88370360  0.16019966  1
  H+  H100  1  0.37570954  1.01788664  -0.00567873  1
  H+  H101  1  0.37602170  0.35268635  0.48781835  1
  H+  H102  1  0.35756253  0.38497545  0.15940196  1
  H+  H103  1  0.15793770  0.02450945  0.67370769  1
  H+  H104  1  0.27125518  0.38163712  0.33653405  1
  H+  H105  1  0.67675497  0.08448954  0.89737659  1
  H+  H106  1  0.46916435  0.35310513  0.49259523  1
  H+  H107  1  0.26963410  0.64139078  0.16795743  1
  H+  H108  1  0.89291986  0.78225520  0.83762584  1
  H+  H109  1  0.37500345  0.51636686  0.32794419  1
  H+  H110  1  0.89600473  0.36612629  1.00158340  1
  H+  H111  1  0.79206270  0.63163244  0.15975077  1
  H+  H112  1  0.08526272  0.66910764  0.75320305  1
  H+  H113  1  0.13322297  0.77742596  0.83366860  1
  H+  H114  1  0.51895363  0.89501246  0.67139521  1
  H+  H115  1  0.60828822  0.89278179  0.82307320  1
  H+  H116  1  0.59392548  0.59137220  0.53795503  1
  H+  H117  1  0.14568959  0.76765304  0.63531956  1
  H+  H118  1  0.86009881  0.88724702  0.82685777  1
  H+  H119  1  0.89348321  0.78935980  0.65972045  1
  H+  H120  1  0.03307601  0.12755813  0.49423802  1
  H+  H121  1  0.89120782  0.87637962  0.65846183  1
  H+  H122  1  0.62404917  0.12723643  0.68719765  1
  H+  H123  1  0.22721265  0.11658243  0.32794808  1
  H+  H124  1  0.85842877  0.63771057  0.82203997  1
  H+  H125  1  0.03645322  0.13116900  0.67390066  1
  H+  H126  1  0.78041892  0.38102917  0.00460118  1
  H+  H127  1  0.61349899  0.36742714  0.82712073  1
  H+  H128  1  0.88562903  0.10837905  0.84031057  1
  H+  H129  1  0.88290770  0.13603201  0.49318077  1
  H+  H130  1  0.72592852  0.35964798  0.30053902  1
  H+  H131  1  0.36368690  0.13704792  0.15671595  1
  H+  H132  1  0.88042768  0.65224181  0.13436880  1
  H+  H133  1  0.11453362  0.89667139  0.83262193  1
  H+  H134  1  0.63412348  0.77945097  -0.01281996  1
  H+  H135  1  0.60669356  0.47914871  0.32843531  1
  H+  H136  1  0.63607197  0.63370831  0.53688269  1
  H+  H137  1  0.49847164  0.62941029  0.33881638  1
  H+  H138  1  0.73295755  0.51973794  0.93147488  1
  H+  H139  1  0.16677930  0.83380787  0.89561235  1
  H+  H140  1  0.87563035  0.25481692  0.32854452  1
  H+  H141  1  0.59524574  0.98628554  0.49983894  1
  H+  H142  1  0.49207739  0.87226674  1.00701249  1
  H+  H143  1  0.03189867  0.89844402  0.67796408  1
  H+  H144  1  0.90299341  0.34206312  0.66193259  1
  H+  H145  1  0.63246703  0.78046907  0.83677599  1
  H+  H146  1  0.52084789  0.38807014  0.33040417  1
  H+  H147  1  0.37659772  0.52490556  0.98872330  1
  H+  H148  1  0.98015377  0.86707262  0.32328064  1
  H+  H149  1  0.63983530  0.36329876  0.49019227  1
  H+  H150  1  0.15437226  0.87479004  0.99176909  1
  H+  H151  1  0.88012920  0.10521448  0.33068725  1
  H+  H152  1  0.14832063  0.35399321  0.50061273  1
  H+  H153  1  0.15997150  0.11342049  0.67313031  1
  H+  H154  1  0.61955417  0.38904195  0.64798119  1
  H+  H155  1  0.78105254  0.64999571  0.67392671  1
  H+  H156  1  0.39147606  0.01188214  0.31331827  1
  H+  H157  1  0.86030364  -0.02833776  1.00828502  1
  H+  H158  1  0.88157397  0.55298522  0.66878886  1
  H+  H159  1  0.03181396  0.64275930  0.00540009  1
  H+  H160  1  0.62885893  0.79763383  0.50068142  1
  H+  H161  1  0.10871090  0.22251703  0.33739579  1
  H+  H162  1  0.89704370  0.02158997  0.66056030  1
  H+  H163  1  0.60079866  0.19911655  1.01762674  1
  H+  H164  1  0.51377595  0.14034003  0.49102063  1
  H+  H165  1  0.03426682  0.39174812  0.00059271  1
  H+  H166  1  0.27866108  0.65107009  0.00639801  1
  H+  H167  1  0.12424879  0.21989129  0.66945435  1
  H+  H168  1  0.02654290  0.14999181  0.82578030  1
  H+  H169  1  0.37105085  0.10821883  -0.00864222  1
  H+  H170  1  0.14767522  0.02038897  0.50360657  1
  H+  H171  1  0.09860915  0.59049102  0.33125227  1
  H+  H172  1  0.86242012  0.47459270  1.00797934  1
  H+  H173  1  0.88574470  0.50909006  0.29230726  1
  H+  H174  1  0.35926095  0.13414734  0.49529102  1
  H+  H175  1  0.36113013  0.48157293  0.81756721  1
  H+  H176  1  0.77738528  0.88146313  0.33980728  1
  H+  H177  1  0.83088134  0.91549701  0.10447506  1
  H+  H178  1  0.11550932  0.46713325  0.50447651  1
  H+  H179  1  0.26467691  0.88630100  0.82349935  1
  H+  H180  1  0.59106073  0.63699509  0.01457742  1
  H+  H181  1  0.14512508  0.56975475  0.23949144  1
  H+  H182  1  0.35826173  0.22990818  0.33904168  1
  H+  H183  1  0.74981902  0.43776379  0.68237564  1
  H+  H184  1  0.03238583  0.64019504  0.14600549  1
  H+  H185  1  0.45772905  0.87666249  0.50523708  1
  H+  H186  1  0.97110023  0.10883674  0.32826650  1
  H+  H187  1  0.85955555  0.41799578  0.79513807  1
  H+  H188  1  0.13633131  0.61316186  0.17844609  1
  H+  H189  1  0.33457348  0.89449822  0.49261544  1
  H+  H190  1  0.62684030  0.46924240  0.48649995  1
  H+  H191  1  0.37569258  0.86975192  0.66107119  1
  H+  H192  1  0.89797248  0.01896941  0.50689072  1
  H+  H193  1  -0.01498933  0.35589996  0.17167644  1
  H+  H194  1  0.37871036  0.22747346  0.66201628  1
  H+  H195  1  0.10358092  0.62610468  0.48736326  1
  H+  H196  1  0.27195440  0.39299241  0.81964780  1
  H+  H197  1  0.89048253  0.51876759  0.51466760  1
  H+  H198  1  0.89506943  0.27666346  0.00310683  1
  H+  H199  1  0.46217967  0.35314216  0.16573021  1
  H+  H200  1  0.14731481  0.02018800  0.17246394  1
  H+  H201  1  1.02752062  0.88789425  0.15864308  1
  H+  H202  1  0.77421631  0.89470036  0.67229152  1
  H+  H203  1  0.58813771  0.67958212  0.72905043  1
  H+  H204  1  0.09633288  0.92082383  0.39880949  1
  H+  H205  1  0.24052812  0.11866866  0.49916682  1
  H+  H206  1  0.23811063  0.35226544  0.49368485  1
  H+  H207  1  0.39174577  0.77655154  1.00663496  1
  H+  H208  1  0.39251746  0.87144748  1.00334860  1
  H+  H209  1  0.37719898  0.74159284  0.34477103  1
  H+  H210  1  0.88113863  0.22357919  0.49588739  1
  H+  H211  1  0.17253184  0.33025048  0.93209146  1
  H+  H212  1  0.58790740  0.63124689  0.35064668  1
  H+  H213  1  0.83653435  0.40035488  0.23390450  1
  H+  H214  1  0.37737229  0.02762233  0.50210157  1
  H+  H215  1  0.73175043  0.20283673  0.62605900  1
  H+  H216  1  0.50253030  0.65329756  0.15150299  1
  H+  H217  1  0.50573623  0.63664494  -0.00862046  1
  H+  H218  1  0.88965926  0.61667243  0.99364214  1
  H+  H219  1  0.61425570  0.21890615  0.33634020  1
  H+  H220  1  0.47279681  0.86647840  0.82784516  1
  H+  H221  1  0.63293901  0.77138524  0.32060375  1
  H+  H222  1  0.18024376  0.60316766  -0.07140249  1
  H+  H223  1  0.58700476  0.42039756  0.42258898  1
  H+  H224  1  0.75429733  0.39530662  0.15977800  1
  H+  H225  1  0.13950443  0.11189614  0.49726595  1
  H+  H226  1  0.14767523  0.78185544  0.98965302  1
  H+  H227  1  0.96979615  0.47804941  0.71364497  1
  H+  H228  1  0.88265226  0.52569260  0.13942266  1
  H+  H229  1  0.59140767  0.36043933  -0.00433763  1
  H+  H230  1  0.13633661  0.26950518  0.99181215  1
  H+  H231  1  0.97674856  0.53844811  0.87869538  1
  H+  H232  1  0.13114680  0.35637735  0.33182486  1
  H+  H233  1  0.59560554  0.19348415  0.69973569  1
  H+  H234  1  0.86609344  0.88576465  0.49399295  1
  H+  H235  1  0.29343988  0.13837309  0.67606015  1
  H+  H236  1  0.63125567  0.78337010  0.16240875  1
  H+  H237  1  0.63588656  0.64755057  0.20248487  1
  H+  H238  1  0.62201415  0.45997676  -0.00973755  1
  H+  H239  1  0.37492580  0.26331225  0.16980556  1
  H+  H240  1  0.43226373  0.33584242  0.83802768  1
  H+  H241  1  0.82814591  0.66645569  0.05626208  1
  H+  H242  1  0.86285465  0.97369375  0.34206746  1
  H+  H243  1  0.01222487  0.36516899  0.35147418  1
  H+  H244  1  0.13023055  0.78204139  0.32524839  1
  H+  H245  1  0.37546894  0.66066761  0.67240684  1
  H+  H246  1  0.36266382  0.39348147  1.00614932  1
  H+  H247  1  0.13806875  0.37162092  0.17232701  1
  H+  H248  1  0.39428346  0.11810433  0.65845581  1
  H+  H249  1  0.45190883  0.63418703  0.50647658  1
  H+  H250  1  0.61091470  0.35645911  0.16664833  1
  H+  H251  1  0.11998204  0.98393605  0.34079935  1
  H+  H252  1  0.26855933  0.88373970  0.66215137  1
  H+  H253  1  0.65757483  0.02510595  0.14651473  1
  H+  H254  1  0.13946260  0.87487366  0.32216356  1
  H+  H255  1  0.76327088  0.11678420  0.35588199  1
  H+  H256  1  0.83517862  0.91423842  0.43463495  1
  H+  H257  1  0.12321905  -0.01053465  0.83491612  1
  H+  H258  1  0.89868250  0.35435980  0.51940179  1
  H+  H259  1  0.35995674  0.22546750  0.49159284  1
  H+  H260  1  0.75697358  0.35956809  0.85409210  1
  H+  H261  1  0.11696419  0.48527021  0.15985952  1
  H+  H262  1  0.38623456  0.87074156  0.32237453  1
  H+  H263  1  0.47070483  0.10698263  0.16222208  1
  H+  H264  1  0.89046525  0.78222931  0.17013170  1
  H+  H265  1  0.21217607  0.61934181  0.51604776  1
  H+  H266  1  0.55402688  0.22119340  0.81058326  1
  H+  H267  1  1.04493937  0.88929017  0.50170649  1
  H+  H268  1  0.36490010  0.64756211  0.34802853  1
  H+  H269  1  0.32000431  0.68431647  0.43771250  1
  H+  H270  1  0.53064045  0.88850175  0.15759676  1
  H+  H271  1  0.90442453  0.26501971  0.16239089  1
  H+  H272  1  0.60313999  0.60170056  0.19524486  1
  H+  H273  1  0.64071661  0.78882164  0.65647760  1
  H+  H274  1  0.11115416  0.13801106  0.00821782  1
  H+  H275  1  0.92047767  0.58521727  0.57240175  1
  H+  H276  1  0.84172634  0.58787989  0.34204968  1
  H+  H277  1  0.86198573  0.97684800  0.82708122  1
  H+  H278  1  0.37876367  0.61568029  0.99013429  1
  H+  H279  1  0.36141611  0.54805607  0.52000805  1
  H+  H280  1  0.48080157  0.45648051  0.78343051  1
  H+  H281  1  0.71873247  0.61364168  0.82566784  1
  H+  H282  1  0.01060780  0.64921466  0.34250465  1
  H+  H283  1  0.33121410  0.40367212  0.72299606  1
  H+  H284  1  0.26681732  0.88582977  0.33261094  1
  H+  H285  1  0.61405218  0.22863610  0.17210183  1
  H+  H286  1  0.25252331  0.90971749  0.48513517  1
  H+  H287  1  0.72625070  0.60824192  0.33505604  1
  H+  H288  1  0.16040354  0.33269737  0.26878082  1
  H+  H289  1  0.84968789  0.41017459  0.44363392  1
  H+  H290  1  0.67021303  0.85067712  0.59806927  1
  H+  H291  1  0.66037883  0.09309164  0.56881225  1
  H+  H292  1  0.33186689  0.40520995  0.39651333  1
  H+  H293  1  0.84243696  0.15899152  0.72995854  1
  H+  H294  1  0.08676619  0.38536305  0.72033458  1
  H+  H295  1  0.89174948  0.10809430  0.99794287  1
  H+  H296  1  0.16928641  0.08932780  0.93933228  1
  H+  H297  1  0.08869573  0.17806732  0.76729695  1
  H+  H298  1  0.39781927  0.32787121  0.93564614  1
  H+  H299  1  0.58042126  0.92478626  0.76313328  1
  H+  H300  1  0.41431246  0.33269574  0.26418804  1
  H+  H301  1  0.57567517  0.41872338  0.08400396  1
  H+  H302  1  0.32773732  0.16864748  0.39715609  1
  H+  H303  1  0.17667449  0.07926909  0.23209551  1
  H+  H304  1  0.92101527  0.83868018  0.23186889  1
  H+  H305  1  0.79933035  0.46631667  0.74710683  1
  H+  H306  1  0.76940757  0.53673018  0.39059558  1
  H+  H307  1  0.41380412  0.08241534  0.56429142  1
  H+  H308  1  0.33420677  0.68491686  0.73449557  1
  H+  H309  1  0.13743331  0.53769096  0.84486329  1
  H+  H310  1  0.14626785  0.59301726  0.57238654  1
  H+  H311  1  0.33214593  0.42015727  0.10043184  1
  H+  H312  1  0.39876482  0.06844977  0.92021697  1
  H+  H313  1  0.41562108  0.07265231  0.22244981  1
  H+  H314  1  0.77252583  0.12832920  0.82555659  1
  H+  H315  1  0.59786795  0.15411620  0.08027571  1
  H+  H316  1  0.12384085  0.39006476  -0.00407652  1
  H+  H317  1  0.48148741  0.88795754  0.32346019  1
  H+  H318  1  0.08303492  0.16069213  0.39561135  1
  H+  H319  1  0.16366914  0.84123503  0.58589243  1
  H+  H320  1  0.90231263  0.82933994  0.93364929  1
  H+  H321  1  0.91557945  0.08712350  0.23160934  1
  H+  H322  1  0.13909287  0.34666129  0.64802473  1
  H+  H323  1  0.83630989  0.67340738  0.76252561  1
  H+  H324  1  0.24403259  0.74298773  0.27632383  1
  H+  H325  1  0.15052327  0.53675823  0.98462336  1
  H+  H326  1  0.35434954  0.34950514  0.84273863  1
  H+  H327  1  0.33132137  0.67187393  0.06979878  1
  H+  H328  1  0.38450591  0.62050352  0.82932271  1
  H+  H329  1  0.65417498  0.29527962  0.93264333  1
  H+  H330  1  0.21205212  0.70637192  0.29538850  1
  H+  H331  1  0.58398493  0.91362394  0.06967488  1
  H+  H332  1  0.27428120  0.88293214  0.15688540  1
  H+  H333  1  0.66643766  0.57532109  0.88571025  1
  H+  H334  1  0.12171990  0.64440906  0.00124763  1
  H+  H335  1  0.90474474  0.31879311  0.91024834  1
  H+  H336  1  0.57529049  0.15207192  0.78701755  1
  H+  H337  1  0.88824608  0.64512259  0.49693865  1
  H+  H338  1  0.07077295  0.67444035  0.40183695  1
  H+  H339  1  0.92716332  0.31763083  0.57815071  1
  H+  H340  1  0.64739861  0.33514914  0.22750288  1
  H+  H341  1  0.38180963  0.36122640  0.64735081  1
  H+  H342  1  0.40395840  0.57894433  0.26917277  1
  H+  H343  1  0.27131540  0.13142704  0.16055282  1
  H+  H344  1  0.54975409  0.68144118  0.42824197  1
  H+  H345  1  0.69497223  0.66515964  0.07952525  1
  H+  H346  1  0.69299988  0.65468500  0.28982481  1
  H+  H347  1  0.41213129  0.33388566  0.58439909  1
  H+  H348  1  0.58587980  0.95928404  0.40548032  1
  H+  H349  1  0.69822346  0.55475033  0.23842858  1
  H+  H350  1  0.66864804  0.61727004  0.07531614  1
  H+  H351  1  0.33414704  0.91458597  0.06410717  1
  H+  H352  1  0.76768417  -0.11309177  1.00606143  1
  H+  H353  1  0.08346415  0.92286451  0.74008916  1
  H+  H354  1  0.83602712  0.15879106  0.40745100  1
  H+  H355  1  0.09602617  0.43306753  0.09670295  1
  H+  H356  1  0.57730275  0.16639084  0.39855586  1
  H+  H357  1  0.66660312  0.84211148  0.92977930  1
  H+  H358  1  0.13804801  0.27935662  0.83504924  1
  H+  H359  1  0.41706605  0.61588186  0.60877235  1
  H+  H360  1  0.82532483  0.40086175  0.11476766  1
  H+  H361  1  0.66606694  0.34607337  0.55507224  1
  H+  H362  1  0.91609721  0.59799529  0.25869137  1
  H+  H363  1  0.92380627  0.57701380  0.94039777  1
  H+  H364  1  0.14055951  0.36947770  0.84652952  1
  H+  H365  1  0.10402841  0.67718208  0.09734897  1
  H+  H366  1  0.12338082  0.21840772  0.48971515  1
  H+  H367  1  1.02998761  0.37590620  0.50649865  1
  H+  H368  1  0.51898181  0.64280314  0.82163299  1
  H+  H369  1  0.57694127  0.66009778  0.49115043  1
  H+  H370  1  0.93211649  0.07857649  0.56678591  1
  H+  H371  1  0.32342933  0.91949524  0.39309205  1
  H+  H372  1  0.40242331  0.84046383  0.59922950  1
  H+  H373  1  0.07515495  0.40060991  0.41036179  1
  H+  H374  1  0.86240075  0.36995186  0.29471689  1
  H+  H375  1  0.17442528  0.31797065  0.58999191  1
  H+  H376  1  0.48192039  0.09980843  0.31486234  1
  H+  H377  1  0.55626838  0.42793725  0.71651058  1
  H+  H378  1  0.42589473  0.84315310  0.22951190  1
  H+  H379  1  0.67204008  0.82886031  0.26083401  1
  H+  H380  1  0.33379292  0.16550921  0.06794704  1
  H+  H381  1  0.57358724  0.49130353  0.81004901  1
  H+  H382  1  0.73975028  0.52077476  0.55480696  1
  H+  H383  1  0.07448249  0.17280060  0.06311257  1
  O2-  O384  1  0.06495176  0.17886120  0.13139865  1
  O2-  O385  1  0.09285821  0.15630578  0.47594382  1
  O2-  O386  1  0.08590700  0.18922439  0.81160058  1
  O2-  O387  1  0.08966958  0.42620444  0.14111089  1
  O2-  O388  1  0.08971109  0.40774814  0.48841336  1
  O2-  O389  1  0.07395610  0.42592359  0.86310568  1
  O2-  O390  1  0.09604216  0.67234173  0.14251483  1
  O2-  O391  1  0.07503460  0.65754235  0.47247317  1
  O2-  O392  1  0.08712228  0.67204812  0.79961536  1
  O2-  O393  1  0.08784710  0.91580932  0.14322242  1
  O2-  O394  1  0.10547043  0.92300092  0.48454169  1
  O2-  O395  1  0.08468841  0.92892863  0.82153853  1
  O2-  O396  1  0.33325007  0.16771234  0.14290995  1
  O2-  O397  1  0.32678414  0.16216767  0.47889847  1
  O2-  O398  1  0.27782369  0.13053283  0.85644148  1
  O2-  O399  1  0.33131259  0.41973434  0.14585717  1
  O2-  O400  1  0.33265699  0.39475677  0.46565119  1
  O2-  O401  1  0.33337132  0.41992745  0.80541425  1
  O2-  O402  1  0.32773030  0.66943449  0.14828135  1
  O2-  O403  1  0.31169111  0.68572869  0.48328373  1
  O2-  O404  1  0.33701116  0.67615445  0.80192760  1
  O2-  O405  1  0.33386965  0.91192326  0.13892767  1
  O2-  O406  1  0.31375089  0.93000905  0.47214109  1
  O2-  O407  1  0.32589977  0.91810550  0.80878072  1
  O2-  O408  1  0.59281334  0.16541438  0.16832222  1
  O2-  O409  1  0.57401676  0.16849656  0.47454565  1
  O2-  O410  1  0.56666947  0.17739229  0.82506208  1
  O2-  O411  1  0.57174496  0.42737656  0.12933584  1
  O2-  O412  1  0.58695248  0.41294409  0.46764880  1
  O2-  O413  1  0.52463464  0.44045351  0.79008511  1
  O2-  O414  1  0.55621355  0.69657906  0.13108972  1
  O2-  O415  1  0.54760425  0.68896179  0.47408280  1
  O2-  O416  1  0.58021742  0.67520033  0.80754056  1
  O2-  O417  1  0.58909894  0.91658477  0.13871966  1
  O2-  O418  1  0.56714691  0.92849791  0.47746448  1
  O2-  O419  1  0.57905162  0.92433583  0.80925690  1
  O2-  O420  1  0.84528360  0.18026540  0.09124570  1
  O2-  O421  1  0.85233060  0.16515342  0.47755501  1
  O2-  O422  1  0.83442044  0.15794966  0.81062775  1
  O2-  O423  1  0.81769352  0.42166950  0.15440535  1
  O2-  O424  1  0.84069288  0.41166198  0.48718596  1
  O2-  O425  1  0.82545473  0.43989009  0.81447604  1
  O2-  O426  1  0.84079304  0.67583877  0.13519776  1
  O2-  O427  1  0.85731367  0.67581167  0.48261985  1
  O2-  O428  1  0.82921794  0.66812847  0.80844617  1
  O2-  O429  1  0.83053434  0.91799085  0.14975831  1
  O2-  O430  1  0.83359242  0.91419601  0.48060262  1
  O2-  O431  1  0.82850590  0.91612733  0.81146369  1
  O2-  O432  1  0.18257065  0.08034391  0.18709212  1
  O2-  O433  1  0.17489577  0.08434811  0.51341561  1
  O2-  O434  1  0.19047247  0.09595003  0.86359098  1
  O2-  O435  1  0.16342435  0.33824379  0.19007590  1
  O2-  O436  1  0.17697401  0.32035960  0.51101966  1
  O2-  O437  1  0.17457067  0.34098915  0.85279497  1
  O2-  O438  1  0.16347994  0.58090702  0.19507469  1
  O2-  O439  1  0.15301183  0.57730893  0.53047943  1
  O2-  O440  1  0.17429113  0.60081628  0.84996139  1
  O2-  O441  1  0.17323218  0.83623287  0.18568189  1
  O2-  O442  1  0.15140535  0.88233363  0.51039507  1
  O2-  O443  1  0.16361792  0.83684009  0.85022392  1
  O2-  O444  1  0.41052144  0.07646690  0.17600530  1
  O2-  O445  1  0.41281310  0.08755269  0.51883148  1
  O2-  O446  1  0.40473190  0.06536717  0.86493506  1
  O2-  O447  1  0.40488212  0.32552840  0.18457155  1
  O2-  O448  1  0.40959435  0.32283868  0.50788382  1
  O2-  O449  1  0.37708059  0.31268786  0.85952882  1
  O2-  O450  1  0.40801272  0.58412790  0.19045160  1
  O2-  O451  1  0.39698788  0.60833325  0.53101195  1
  O2-  O452  1  0.41258796  0.58787985  0.84455996  1
  O2-  O453  1  0.42486748  0.83770253  0.18391762  1
  O2-  O454  1  0.39852012  0.84918209  0.52269080  1
  O2-  O455  1  0.41083363  0.83036732  0.83950884  1
  O2-  O456  1  0.69875994  0.08813570  0.14732894  1
  O2-  O457  1  0.64108543  0.07691222  0.52648577  1
  O2-  O458  1  0.67627859  0.08753523  0.85261802  1
  O2-  O459  1  0.64715862  0.33368162  0.18134620  1
  O2-  O460  1  0.67110317  0.33686519  0.51086528  1
  O2-  O461  1  0.72646465  0.30598777  0.88095221  1
  O2-  O462  1  0.72303019  0.54026863  0.20358379  1
  O2-  O463  1  0.71422301  0.54999728  0.53332193  1
  O2-  O464  1  0.65890892  0.58542951  0.84235468  1
  O2-  O465  1  0.66690129  0.84054742  0.18298857  1
  O2-  O466  1  0.66672775  0.85496530  0.51843024  1
  O2-  O467  1  0.66299742  0.84041378  0.85284327  1
  O2-  O468  1  0.91410691  0.09023279  0.18665550  1
  O2-  O469  1  0.93457553  0.07956762  0.52105037  1
  O2-  O470  1  0.91738504  0.07879724  0.85421810  1
  O2-  O471  1  0.92730130  0.31579595  0.18856613  1
  O2-  O472  1  0.92956983  0.32412194  0.53044791  1
  O2-  O473  1  0.89604891  0.31909647  0.86517333  1
  O2-  O474  1  0.92400609  0.58542788  0.12449377  1
  O2-  O475  1  0.91775392  0.58016218  0.52640396  1
  O2-  O476  1  0.93952968  0.56209880  0.86965187  1
  O2-  O477  1  0.92141774  0.84195078  0.18568768  1
  O2-  O478  1  0.93850658  0.84621440  0.52099018  1
  O2-  O479  1  0.91745679  0.84066960  0.85475415  1
  O2-  O480  1  0.16624116  0.08031614  0.31190112  1
  O2-  O481  1  0.19343706  0.08590877  0.66069712  1
  O2-  O482  1  0.16445373  0.08664874  0.98501380  1
  O2-  O483  1  0.16251628  0.32853354  0.31412370  1
  O2-  O484  1  0.17314679  0.31830256  0.63542059  1
  O2-  O485  1  0.16986509  0.33169773  0.97754151  1
  O2-  O486  1  0.10250987  0.54694031  0.30666884  1
  O2-  O487  1  0.12747759  0.61756492  0.65457353  1
  O2-  O488  1  0.17955629  0.59920776  0.97416470  1
  O2-  O489  1  0.16580265  0.84046801  0.30672817  1
  O2-  O490  1  0.19048206  0.82193904  0.61636266  1
  O2-  O491  1  0.18209812  0.84119619  0.97345456  1
  O2-  O492  1  0.42943352  0.06554425  0.29043139  1
  O2-  O493  1  0.41609935  0.07785236  0.64166143  1
  O2-  O494  1  0.39951267  0.07582934  0.97428319  1
  O2-  O495  1  0.42113812  0.33864733  0.30927225  1
  O2-  O496  1  0.41816828  0.33701887  0.62982235  1
  O2-  O497  1  0.40691129  0.33344806  0.98083520  1
  O2-  O498  1  0.40436527  0.57842432  0.31471029  1
  O2-  O499  1  0.42214011  0.62373857  0.65354248  1
  O2-  O500  1  0.40531977  0.58440198  0.97071332  1
  O2-  O501  1  0.42370585  0.84779010  0.30727967  1
  O2-  O502  1  0.40515238  0.83799581  0.64495417  1
  O2-  O503  1  0.42541749  0.83959543  0.99312767  1
  O2-  O504  1  0.64436736  0.05173359  0.34159085  1
  O2-  O505  1  0.70522090  0.14413691  0.64136965  1
  O2-  O506  1  0.68315586  0.08507901  0.98565113  1
  O2-  O507  1  0.66169968  0.32946820  0.30048640  1
  O2-  O508  1  0.65823991  0.36614142  0.63155048  1
  O2-  O509  1  0.60639741  0.28107502  0.96308483  1
  O2-  O510  1  0.67484852  0.60102572  0.31178034  1
  O2-  O511  1  0.67322368  0.59651658  0.64787012  1
  O2-  O512  1  0.70362820  0.54508481  0.95312878  1
  O2-  O513  1  0.68118111  0.82517126  0.30516628  1
  O2-  O514  1  0.67126065  0.85015746  0.64352251  1
  O2-  O515  1  0.66530960  0.84120425  0.97562083  1
  O2-  O516  1  0.91036371  0.07579064  0.31392293  1
  O2-  O517  1  0.93124840  0.08115534  0.64380778  1
  O2-  O518  1  0.91786515  0.07607864  0.98014153  1
  O2-  O519  1  0.91116372  0.31407909  0.31119441  1
  O2-  O520  1  0.92699984  0.30877040  0.64488890  1
  O2-  O521  1  0.92574628  0.33604368  0.98543038  1
  O2-  O522  1  0.90639948  0.57220539  0.29896649  1
  O2-  O523  1  0.92420659  0.60405082  0.64423443  1
  O2-  O524  1  0.91826152  0.58119552  0.98656120  1
  O2-  O525  1  0.92136142  0.83721152  0.30608765  1
  O2-  O526  1  0.92369586  0.84855761  0.64265437  1
  O2-  O527  1  0.88992445  0.81544798  0.97754793  1
  O2-  O528  1  0.07977480  0.16985368  0.01643287  1
  O2-  O529  1  0.07840437  0.16081311  0.35048678  1
  O2-  O530  1  0.09555349  0.16332175  0.69122364  1
  O2-  O531  1  0.09817956  0.42817821  0.00297418  1
  O2-  O532  1  0.07319674  0.39979692  0.36480506  1
  O2-  O533  1  0.08584432  0.38980851  0.67633868  1
  O2-  O534  1  0.09280461  0.67485613  0.01871316  1
  O2-  O535  1  0.07073359  0.68109529  0.35585611  1
  O2-  O536  1  0.08898480  0.66936715  0.67673299  1
  O2-  O537  1  0.10989899  0.92018464  0.01970758  1
  O2-  O538  1  0.09033036  0.92168388  0.35424235  1
  O2-  O539  1  0.08990034  0.92106732  0.69542492  1
  O2-  O540  1  0.33380219  0.16481706  0.02182138  1
  O2-  O541  1  0.32374134  0.16938775  0.35231075  1
  O2-  O542  1  0.35834868  0.17154336  0.68236785  1
  O2-  O543  1  0.33289825  0.42489751  0.02025682  1
  O2-  O544  1  0.33277800  0.41314241  0.34953528  1
  O2-  O545  1  0.33438393  0.40448491  0.67815873  1
  O2-  O546  1  0.33806033  0.67812172  0.02429563  1
  O2-  O547  1  0.34610613  0.68570585  0.36615906  1
  O2-  O548  1  0.33512816  0.68695269  0.68700612  1
  O2-  O549  1  0.34001946  0.91663692  0.01815693  1
  O2-  O550  1  0.32750855  0.91405317  0.34821868  1
  O2-  O551  1  0.32404062  0.91659273  0.68591018  1
  O2-  O552  1  0.59102846  0.14513911  0.03631228  1
  O2-  O553  1  0.58189542  0.16029444  0.35337359  1
  O2-  O554  1  0.57808597  0.13403282  0.70885826  1
  O2-  O555  1  0.57834953  0.40526606  0.01038115  1
  O2-  O556  1  0.58375241  0.42040329  0.34369569  1
  O2-  O557  1  0.56811469  0.42964388  0.67204560  1
  O2-  O558  1  0.56606585  0.67340408  0.00778558  1
  O2-  O559  1  0.55846288  0.66389900  0.35783557  1
  O2-  O560  1  0.58814096  0.68256328  0.68355991  1
  O2-  O561  1  0.57919461  0.91427854  0.02275741  1
  O2-  O562  1  0.58452869  0.96297076  0.35916202  1
  O2-  O563  1  0.57760034  0.92561469  0.68856136  1
  O2-  O564  1  0.84080765  0.17208939  0.02478675  1
  O2-  O565  1  0.82568761  0.15419865  0.36133010  1
  O2-  O566  1  0.84461529  0.15855102  0.68469243  1
  O2-  O567  1  0.83655759  0.41414826  0.02380964  1
  O2-  O568  1  0.83494295  0.40360040  0.27888260  1
  O2-  O569  1  0.79329592  0.48673434  0.70595164  1
  O2-  O570  1  0.83248309  0.66300529  0.01110484  1
  O2-  O571  1  0.79996380  0.59259092  0.37059111  1
  O2-  O572  1  0.84145334  0.68436901  0.68861410  1
  O2-  O573  1  0.82623377  0.91160148  0.02420833  1
  O2-  O574  1  0.83610601  0.91363833  0.35854339  1
  O2-  O575  1  0.83439712  0.92019854  0.68790354  1
