# generated using pymatgen
data_H2O
_symmetry_space_group_name_H-M   'P 1'
_cell_length_a   17.99431922
_cell_length_b   17.98990823
_cell_length_c   22.01367954
_cell_angle_alpha   90.03609523
_cell_angle_beta   90.00455754
_cell_angle_gamma   119.99491534
_symmetry_Int_Tables_number   1
_chemical_formula_structural   H2O
_chemical_formula_sum   'H384 O192'
_cell_volume   6171.77035850
_cell_formula_units_Z   192
loop_
 _symmetry_equiv_pos_site_id
 _symmetry_equiv_pos_as_xyz
  1  'x, y, z'
loop_
 _atom_type_symbol
 _atom_type_oxidation_number
  H+  1.0
  O2-  -2.0
loop_
 _atom_site_type_symbol
 _atom_site_label
 _atom_site_symmetry_multiplicity
 _atom_site_fract_x
 _atom_site_fract_y
 _atom_site_fract_z
 _atom_site_occupancy
  H+  H0  1  0.28077900  0.88810658  0.01499105  1
  H+  H1  1  0.69208141  0.78575785  0.30366692  1
  H+  H2  1  0.47161150  0.85282332  0.33451412  1
  H+  H3  1  0.83158446  0.48345661  0.00852162  1
  H+  H4  1  0.35556962  0.12038903  0.49750436  1
  H+  H5  1  0.64401912  0.28227851  0.84399501  1
  H+  H6  1  0.61205724  0.87716993  0.16638768  1
  H+  H7  1  0.57041631  0.49723009  0.50988090  1
  H+  H8  1  0.02800282  0.56100027  0.01835416  1
  H+  H9  1  -0.03458732  0.10437371  -0.03561872  1
  H+  H10  1  0.52461680  0.15330814  0.34246184  1
  H+  H11  1  0.22449950  0.10394409  0.51082678  1
  H+  H12  1  0.77546636  0.15434432  0.50414769  1
  H+  H13  1  0.15760748  0.52738994  0.99014315  1
  H+  H14  1  0.51896541  0.88588923  0.17189576  1
  H+  H15  1  0.97871882  0.61297913  0.50630997  1
  H+  H16  1  0.14380010  0.86057566  0.17943256  1
  H+  H17  1  0.14272928  0.30802714  0.32274759  1
  H+  H18  1  0.36248133  0.72735226  0.82400944  1
  H+  H19  1  0.62521399  0.27726391  -0.01063231  1
  H+  H20  1  0.37750498  0.11951004  0.16006114  1
  H+  H21  1  0.35532650  0.62490128  0.34845441  1
  H+  H22  1  0.60535861  0.98429946  0.80992779  1
  H+  H23  1  0.89335104  0.87533737  0.00118013  1
  H+  H24  1  0.85418454  0.71146561  0.81964591  1
  H+  H25  1  0.64395354  0.36722005  0.66371090  1
  H+  H26  1  0.34045154  0.42193052  0.10439502  1
  H+  H27  1  0.92658203  0.24014304  0.98376305  1
  H+  H28  1  0.72762900  0.16498427  1.00486335  1
  H+  H29  1  0.62520193  0.01188887  0.65347023  1
  H+  H30  1  0.62165229  0.84740376  0.61912558  1
  H+  H31  1  0.64034753  0.38034999  0.17276447  1
  H+  H32  1  0.36428075  0.36153948  0.34364154  1
  H+  H33  1  0.65214501  0.52375030  0.99218323  1
  H+  H34  1  0.37644354  0.11338724  0.99099927  1
  H+  H35  1  0.75730572  0.58740515  0.49064342  1
  H+  H36  1  0.63660700  0.80273583  0.52398327  1
  H+  H37  1  0.25047097  0.86451035  0.65130561  1
  H+  H38  1  0.46133706  0.09145804  0.50397669  1
  H+  H39  1  0.64541119  0.83791889  0.32702371  1
  H+  H40  1  0.38015490  0.28637159  0.82923820  1
  H+  H41  1  0.64123947  0.13112138  0.84195454  1
  H+  H42  1  0.61049941  0.24543848  0.34370243  1
  H+  H43  1  0.98201792  0.36764116  0.17883273  1
  H+  H44  1  0.40593412  0.78946791  -0.00692088  1
  H+  H45  1  0.61773047  0.22449378  0.67601702  1
  H+  H46  1  0.10070980  0.63177790  0.34334514  1
  H+  H47  1  0.13566683  0.09407506  0.32796286  1
  H+  H48  1  0.12468593  0.61463951  0.80512911  1
  H+  H49  1  0.91549491  0.33482243  0.23586422  1
  H+  H50  1  0.86029988  0.14330256  0.50556942  1
  H+  H51  1  0.59920684  0.15786038  0.14219765  1
  H+  H52  1  0.63628027  -0.07269107  0.99592228  1
  H+  H53  1  0.86353069  0.97828302  0.16576952  1
  H+  H54  1  0.39203469  0.36582172  0.98669328  1
  H+  H55  1  0.14155989  0.62150452  0.16712406  1
  H+  H56  1  0.61839058  -0.02533295  0.17360562  1
  H+  H57  1  0.39264791  0.36471671  0.17606691  1
  H+  H58  1  0.63664615  0.88095045  0.83105583  1
  H+  H59  1  0.15844321  0.28813921  0.18164383  1
  H+  H60  1  0.62201417  0.61396996  0.66099697  1
  H+  H61  1  0.02080265  0.88187758  0.01879760  1
  H+  H62  1  0.77997728  -0.03271292  0.84844735  1
  H+  H63  1  0.01862924  0.86371755  0.83293047  1
  H+  H64  1  0.82536513  0.66163389  0.75487753  1
  H+  H65  1  0.23260047  0.86097445  0.17328590  1
  H+  H66  1  0.25480918  0.36785347  0.32934477  1
  H+  H67  1  0.39106103  0.78265786  0.17433910  1
  H+  H68  1  0.53855394  0.65719836  0.82662273  1
  H+  H69  1  0.73233899  0.87598851  0.98779376  1
  H+  H70  1  0.32480107  0.15392621  0.40474675  1
  H+  H71  1  0.49461163  0.63180198  0.16037189  1
  H+  H72  1  0.47459678  0.61233996  -0.02044896  1
  H+  H73  1  0.86464816  -0.02448621  1.00405999  1
  H+  H74  1  0.24872859  0.91409780  0.85152821  1
  H+  H75  1  0.97317514  0.61205339  0.16514325  1
  H+  H76  1  0.16267019  0.03253382  0.95840601  1
  H+  H77  1  0.10693529  0.23432544  0.67189684  1
  H+  H78  1  0.05897802  0.36028498  0.66135673  1
  H+  H79  1  0.28137211  0.30942249  0.04785109  1
  H+  H80  1  0.88493116  0.52641202  0.65662925  1
  H+  H81  1  0.12311725  0.97367566  0.17266724  1
  H+  H82  1  0.38421563  0.76448285  0.33315461  1
  H+  H83  1  0.94679686  0.24780130  0.01470440  1
  H+  H84  1  0.38310435  0.59710244  0.98237627  1
  H+  H85  1  0.02043481  0.67945660  0.80716855  1
  H+  H86  1  0.14224061  0.61687452  0.50307588  1
  H+  H87  1  0.37805097  0.10880282  0.33091903  1
  H+  H88  1  0.88208371  0.02926196  0.51736547  1
  H+  H89  1  0.13747810  0.10808030  0.51617139  1
  H+  H90  1  0.87494988  0.47991169  0.49791979  1
  H+  H91  1  0.37793430  0.90505408  0.16373295  1
  H+  H92  1  0.62568725  0.37207956  0.33147031  1
  H+  H93  1  0.38044900  0.11892467  0.84054266  1
  H+  H94  1  0.35094578  0.66175625  0.44948318  1
  H+  H95  1  0.07302369  0.41323212  0.76006994  1
  H+  H96  1  0.80259734  0.26977406  0.28381780  1
  H+  H97  1  0.15446769  0.61214773  0.97718504  1
  H+  H98  1  0.08423654  0.66000891  0.09549182  1
  H+  H99  1  0.73940091  0.36024284  0.84276676  1
  H+  H100  1  0.86572712  0.46963420  0.82692117  1
  H+  H101  1  0.14708522  0.56490058  0.40073278  1
  H+  H102  1  0.15758441  0.50068818  0.83363479  1
  H+  H103  1  0.59908222  0.76846102  -0.00115882  1
  H+  H104  1  0.11263498  0.72438560  0.49680527  1
  H+  H105  1  0.14028435  0.37284339  -0.01463726  1
  H+  H106  1  0.60918327  0.48292526  0.14269373  1
  H+  H107  1  0.86034724  0.63881498  0.16042683  1
  H+  H108  1  0.73094742  0.88419845  0.53169353  1
  H+  H109  1  0.26163473  0.36965810  0.00896483  1
  H+  H110  1  1.02265862  0.13901622  0.66957098  1
  H+  H111  1  0.11147185  0.47486970  0.49361864  1
  H+  H112  1  0.87686864  0.09261362  0.99162837  1
  H+  H113  1  0.65523054  0.06506774  -0.00158409  1
  H+  H114  1  0.87096276  0.74356238  0.01249670  1
  H+  H115  1  0.79036835  0.64681113  0.00665553  1
  H+  H116  1  0.37118206  0.23846363  -0.00366694  1
  H+  H117  1  0.86961018  0.22606260  0.17198733  1
  H+  H118  1  0.53178248  0.39160240  -0.00232866  1
  H+  H119  1  0.23524391  0.11902663  0.17348177  1
  H+  H120  1  0.67719148  0.59359131  0.94035198  1
  H+  H121  1  0.89748815  0.84094834  0.57426378  1
  H+  H122  1  0.88696447  0.09419469  0.67130935  1
  H+  H123  1  0.38851760  0.97322510  0.67073625  1
  H+  H124  1  -0.02063581  0.37484137  0.35432336  1
  H+  H125  1  0.37042657  0.23318822  0.15542084  1
  H+  H126  1  0.27262789  0.40161487  0.82381861  1
  H+  H127  1  0.22770451  0.85919505  0.32665852  1
  H+  H128  1  0.85738235  0.65156885  0.66218230  1
  H+  H129  1  0.28018055  0.15230743  -0.00811817  1
  H+  H130  1  0.92048629  0.83829116  0.94370682  1
  H+  H131  1  0.10796835  0.96316891  0.04039322  1
  H+  H132  1  0.62242224  0.60162697  0.34505219  1
  H+  H133  1  0.72129874  0.61361462  0.83487662  1
  H+  H134  1  0.35306405  0.36584517  0.49482522  1
  H+  H135  1  0.25967178  0.10645366  0.67699850  1
  H+  H136  1  0.88222455  0.84549055  0.84143074  1
  H+  H137  1  0.61930841  0.65211404  0.12794324  1
  H+  H138  1  -0.01239833  0.86464860  0.32145432  1
  H+  H139  1  0.26025559  0.87923398  0.49168711  1
  H+  H140  1  0.86927530  0.52829374  1.00674662  1
  H+  H141  1  0.39695615  0.61951735  0.83254161  1
  H+  H142  1  0.76986164  0.39287429  0.35016871  1
  H+  H143  1  0.87240053  0.39038071  0.67319835  1
  H+  H144  1  0.70850665  0.08753505  0.34977217  1
  H+  H145  1  0.77304311  0.38725610  0.16175009  1
  H+  H146  1  0.47530793  0.54503538  0.53540642  1
  H+  H147  1  0.47513884  0.34718608  0.33948077  1
  H+  H148  1  0.65559315  0.80398816  0.83192860  1
  H+  H149  1  0.05653177  0.23421961  0.39199840  1
  H+  H150  1  0.37206093  0.61958263  0.50539542  1
  H+  H151  1  0.22306447  0.35855455  0.50613462  1
  H+  H152  1  1.02266074  0.38546625  0.50212869  1
  H+  H153  1  0.11731084  0.13602628  -0.03582612  1
  H+  H154  1  0.87200980  -0.01514775  0.35032767  1
  H+  H155  1  0.22691280  0.62998459  0.66042876  1
  H+  H156  1  0.63282423  0.10301376  0.66656188  1
  H+  H157  1  0.11945612  0.48411074  0.15988490  1
  H+  H158  1  0.36316126  -0.02406621  0.33675098  1
  H+  H159  1  0.89256387  0.27613662  0.51640881  1
  H+  H160  1  0.49529152  0.60782816  0.35544344  1
  H+  H161  1  0.78087503  0.38677365  0.67250918  1
  H+  H162  1  0.02850524  0.38719126  0.82492065  1
  H+  H163  1  0.11397928  0.96152824  0.33950618  1
  H+  H164  1  0.29483075  0.64775757  0.00218027  1
  H+  H165  1  0.90236333  0.87606452  0.32843123  1
  H+  H166  1  0.36419470  0.98035698  0.00852046  1
  H+  H167  1  0.71302158  0.61941459  0.65317250  1
  H+  H168  1  0.49182714  0.61144411  0.67917869  1
  H+  H169  1  0.06453879  0.77597900  0.78648311  1
  H+  H170  1  1.03791810  0.41409302  1.00189564  1
  H+  H171  1  0.39972649  0.87431923  0.99351314  1
  H+  H172  1  0.13356185  0.63630740  0.83552956  1
  H+  H173  1  0.16958144  0.87611194  0.65779335  1
  H+  H174  1  0.87150856  0.85870533  0.17884896  1
  H+  H175  1  0.02953001  0.64343759  -0.00695057  1
  H+  H176  1  0.22929195  0.10410836  0.33317127  1
  H+  H177  1  0.64250420  0.62989365  0.84051431  1
  H+  H178  1  0.13478240  0.28209087  -0.02920353  1
  H+  H179  1  0.13738033  0.85695283  1.00892146  1
  H+  H180  1  0.47261127  0.12387606  0.16018459  1
  H+  H181  1  0.27149251  0.63048166  0.35726952  1
  H+  H182  1  0.35529219  0.21573182  0.34485884  1
  H+  H183  1  0.13473105  0.36265071  0.50342832  1
  H+  H184  1  0.64419109  0.14148394  0.51535152  1
  H+  H185  1  0.90763553  0.95090911  0.66309550  1
  H+  H186  1  0.47078099  0.37868135  0.82925726  1
  H+  H187  1  0.15158999  0.37443773  0.82579179  1
  H+  H188  1  0.84438877  0.41658510  0.76471508  1
  H+  H189  1  0.87461395  0.95151131  0.80864838  1
  H+  H190  1  0.12293697  0.39767610  0.16113417  1
  H+  H191  1  0.62000804  0.38886038  1.00215970  1
  H+  H192  1  0.52048929  0.14535198  0.83007778  1
  H+  H193  1  0.57916163  0.41117702  0.09434225  1
  H+  H194  1  0.86579574  0.89914022  0.51068639  1
  H+  H195  1  0.59851233  0.48785313  0.82491019  1
  H+  H196  1  0.25961520  0.59946573  0.83480982  1
  H+  H197  1  0.14352341  0.77579719  0.98819880  1
  H+  H198  1  0.87280258  0.38940887  0.50287785  1
  H+  H199  1  0.50356561  0.13705195  0.99946188  1
  H+  H200  1  0.89735370  0.37025750  0.99421805  1
  H+  H201  1  0.13072283  0.98449340  0.67914090  1
  H+  H202  1  0.79374793  0.89056893  0.35863465  1
  H+  H203  1  0.93035849  0.67681342  -0.01579411  1
  H+  H204  1  0.11644033  0.09721067  0.81892547  1
  H+  H205  1  0.85950315  0.65075327  0.34475268  1
  H+  H206  1  0.88441535  0.52336558  0.16506911  1
  H+  H207  1  0.39423370  0.88789879  0.67812111  1
  H+  H208  1  0.00623726  0.62689615  0.66017418  1
  H+  H209  1  0.11488258  0.22907920  0.50486570  1
  H+  H210  1  0.52234094  0.66791067  0.51207773  1
  H+  H211  1  0.56890097  0.91457056  0.75552011  1
  H+  H212  1  0.13651702  0.12254820  0.66053063  1
  H+  H213  1  0.57736161  0.69599870  0.34291170  1
  H+  H214  1  0.36952438  0.49493999  0.33716683  1
  H+  H215  1  0.11999909  0.89117955  0.84048288  1
  H+  H216  1  0.35276586  0.61720273  0.67639829  1
  H+  H217  1  0.96835242  0.62572818  0.32246291  1
  H+  H218  1  0.56000339  0.44948865  0.34337874  1
  H+  H219  1  0.87329954  0.76805262  0.18038108  1
  H+  H220  1  0.96578600  0.86886014  0.51813883  1
  H+  H221  1  0.38269806  0.08943654  0.66057120  1
  H+  H222  1  0.10934356  0.87093605  0.33922825  1
  H+  H223  1  0.16953529  0.82540097  0.26669862  1
  H+  H224  1  0.63329722  0.77624027  0.15864903  1
  H+  H225  1  0.66961202  0.10012374  0.56952005  1
  H+  H226  1  0.37429319  0.30701446  0.66244801  1
  H+  H227  1  0.17629519  0.08875942  0.90138514  1
  H+  H228  1  0.65317158  0.29074586  0.50921239  1
  H+  H229  1  0.90662493  0.27187909  0.67310228  1
  H+  H230  1  0.12571723  0.85255174  0.50987892  1
  H+  H231  1  0.84496993  0.73559617  0.66914180  1
  H+  H232  1  0.35834933  0.45675386  0.49894041  1
  H+  H233  1  0.11220373  0.72574267  0.33943039  1
  H+  H234  1  0.11773242  0.72600835  0.15339619  1
  H+  H235  1  0.77083770  0.89357505  0.15990471  1
  H+  H236  1  -0.01720906  0.11131262  0.19363015  1
  H+  H237  1  0.61506132  0.90025340  0.51124162  1
  H+  H238  1  0.87454999  0.13869991  0.17903862  1
  H+  H239  1  0.75670424  0.32791467  0.01067129  1
  H+  H240  1  0.74236491  0.10508133  0.19043433  1
  H+  H241  1  0.36975046  1.00232298  0.50451264  1
  H+  H242  1  0.90112026  0.36450330  0.83491397  1
  H+  H243  1  0.11179091  0.63753641  0.66440710  1
  H+  H244  1  0.69063466  0.92538921  0.40271783  1
  H+  H245  1  0.67104201  0.59369288  0.07489394  1
  H+  H246  1  0.86156657  0.10542246  0.33811805  1
  H+  H247  1  0.77512030  0.14682756  0.82894806  1
  H+  H248  1  0.58040175  0.17021936  0.77097165  1
  H+  H249  1  0.38062845  0.49265507  0.15865668  1
  H+  H250  1  0.84596918  0.12036496  0.82549084  1
  H+  H251  1  0.52616489  0.39494389  0.66915109  1
  H+  H252  1  0.56294291  0.71050516  0.67418697  1
  H+  H253  1  0.37612141  0.49642907  0.82359531  1
  H+  H254  1  0.88202817  0.60210186  0.50455202  1
  H+  H255  1  0.83397385  0.21060910  0.35029005  1
  H+  H256  1  0.48814253  -0.14722555  0.52059061  1
  H+  H257  1  0.12872485  0.14466382  0.17890608  1
  H+  H258  1  0.35894649  0.21230968  0.49826777  1
  H+  H259  1  0.37452678  0.65113953  0.16072029  1
  H+  H260  1  0.52842626  0.13583007  0.67345794  1
  H+  H261  1  0.64737446  0.95969726  0.35506865  1
  H+  H262  1  0.40597850  0.75657743  0.52993782  1
  H+  H263  1  0.85198181  0.59350286  0.83779134  1
  H+  H264  1  0.09424208  0.42655176  0.06270142  1
  H+  H265  1  0.95722801  0.13002282  0.33164668  1
  H+  H266  1  0.72703332  0.62210843  0.13468930  1
  H+  H267  1  0.47970278  0.36362950  0.17167385  1
  H+  H268  1  0.24749141  0.38061789  0.17405092  1
  H+  H269  1  0.82693588  0.13012387  0.08734277  1
  H+  H270  1  0.61287360  0.48268455  0.67001034  1
  H+  H271  1  0.61197312  0.39201988  0.48906222  1
  H+  H272  1  0.91101309  0.07655092  0.24581398  1
  H+  H273  1  0.26876260  0.14409839  0.81968545  1
  H+  H274  1  0.84509556  0.34577923  0.33290740  1
  H+  H275  1  0.57334749  0.89557949  0.44767709  1
  H+  H276  1  0.53514641  0.21476302  0.48525814  1
  H+  H277  1  0.99661535  0.09048635  0.80581211  1
  H+  H278  1  0.47015568  0.86330763  0.83383828  1
  H+  H279  1  0.36402660  0.89321459  0.82821883  1
  H+  H280  1  0.47001052  0.35018309  0.50325197  1
  H+  H281  1  0.63053181  0.28910067  0.17327369  1
  H+  H282  1  0.81713868  0.76919324  0.88526326  1
  H+  H283  1  0.10704030  -0.03158146  0.49732107  1
  H+  H284  1  0.97177321  0.11823823  0.51956993  1
  H+  H285  1  0.67618856  0.33964763  0.93334006  1
  H+  H286  1  0.36314035  0.88661459  0.33935403  1
  H+  H287  1  0.65553306  0.10432007  0.20544753  1
  H+  H288  1  0.33816887  0.66757496  0.76187485  1
  H+  H289  1  0.83860026  0.93123601  0.45167848  1
  H+  H290  1  0.08605641  0.15600802  0.45364228  1
  H+  H291  1  0.50419198  0.72949667  0.02376526  1
  H+  H292  1  0.04711016  0.39514908  0.40871046  1
  H+  H293  1  0.41938599  0.83643046  0.89669587  1
  H+  H294  1  0.76011078  0.04818675  0.05243979  1
  H+  H295  1  0.83388348  0.92118107  0.06699593  1
  H+  H296  1  0.41983400  0.34422869  0.92297531  1
  H+  H297  1  0.34372213  0.46071811  0.71874014  1
  H+  H298  1  0.16854767  0.59518884  0.60101448  1
  H+  H299  1  0.33579196  0.17568686  0.09342717  1
  H+  H300  1  0.19748692  0.35544389  0.25786271  1
  H+  H301  1  0.66715941  0.35210237  0.27339993  1
  H+  H302  1  0.16983774  0.83006659  0.56595324  1
  H+  H303  1  0.90202528  0.27654591  0.84235663  1
  H+  H304  1  0.67646976  0.11000151  0.90127283  1
  H+  H305  1  0.08164640  0.66728462  0.43594396  1
  H+  H306  1  0.17152779  0.59520146  0.22744756  1
  H+  H307  1  0.19577093  0.56225466  0.89986797  1
  H+  H308  1  0.38431113  0.03115025  0.83785462  1
  H+  H309  1  0.74218233  0.37785637  0.51074093  1
  H+  H310  1  0.67572011  0.34093421  0.60450749  1
  H+  H311  1  0.57569370  0.69430437  0.08521863  1
  H+  H312  1  0.23029722  0.61119474  0.50852541  1
  H+  H313  1  0.41299431  0.33130689  0.56362205  1
  H+  H314  1  0.80957399  0.34608707  0.07072022  1
  H+  H315  1  0.60066797  0.15033222  0.00466417  1
  H+  H316  1  0.93024359  0.33545291  0.57624776  1
  H+  H317  1  0.56431503  0.69037841  0.44784242  1
  H+  H318  1  0.45115053  0.60828017  0.22511491  1
  H+  H319  1  0.21212124  0.38793284  0.65743674  1
  H+  H320  1  0.10343494  0.91705153  0.73423516  1
  H+  H321  1  0.07937386  0.15398862  0.02187940  1
  H+  H322  1  0.66366844  0.54126798  0.34245397  1
  H+  H323  1  0.07470415  0.68681539  0.71668635  1
  H+  H324  1  0.85966597  0.03067355  0.88989771  1
  H+  H325  1  0.33065240  0.39375173  0.40506975  1
  H+  H326  1  0.54921701  0.92652183  1.00131662  1
  H+  H327  1  0.91420899  0.83825717  0.25388510  1
  H+  H328  1  0.57440852  0.18626198  0.43089344  1
  H+  H329  1  0.36827504  0.39749929  0.82041328  1
  H+  H330  1  0.38902065  0.39925155  0.65001681  1
  H+  H331  1  0.77396683  0.65441736  0.35022936  1
  H+  H332  1  0.89809984  0.90563362  0.75352988  1
  H+  H333  1  0.16305282  0.08354714  0.60337698  1
  H+  H334  1  0.32164011  0.91185978  0.43340622  1
  H+  H335  1  0.56450534  0.40133342  0.42800116  1
  H+  H336  1  0.07273574  0.90592097  0.43967377  1
  H+  H337  1  0.25927376  0.03333016  0.71088706  1
  H+  H338  1  0.82064243  0.64626207  0.43797643  1
  H+  H339  1  0.42197513  0.58366334  0.89242339  1
  H+  H340  1  0.19587836  0.88415679  0.91391294  1
  H+  H341  1  0.41841400  0.07235641  0.59824906  1
  H+  H342  1  0.82385438  0.16275728  0.41489035  1
  H+  H343  1  0.91170068  0.59936613  0.26267696  1
  H+  H344  1  0.57378142  0.42904346  0.76480615  1
  H+  H345  1  0.28348977  0.64784192  0.15947188  1
  H+  H346  1  0.91431628  0.58332530  0.59522463  1
  H+  H347  1  0.65204245  0.82053227  0.22465262  1
  H+  H348  1  0.34622029  0.92868751  0.10066412  1
  H+  H349  1  0.40342413  0.08062370  0.93140582  1
  H+  H350  1  0.32953656  0.15680867  0.76623483  1
  H+  H351  1  0.40618206  0.54754231  0.58145524  1
  H+  H352  1  0.86122533  0.38512180  0.16387328  1
  H+  H353  1  0.06734386  0.15351594  0.76008664  1
  H+  H354  1  0.08669815  0.17339879  0.12768193  1
  H+  H355  1  0.41776352  0.83562750  0.23700852  1
  H+  H356  1  0.38391467  0.71878365  0.67589310  1
  H+  H357  1  0.83274037  0.40859514  0.40731927  1
  H+  H358  1  0.35446157  0.53528610  0.27927774  1
  H+  H359  1  0.40988198  0.31496681  0.27641708  1
  H+  H360  1  0.18558208  0.35698361  0.88907067  1
  H+  H361  1  0.03344346  0.29225220  0.35282782  1
  H+  H362  1  0.84635180  0.68064624  0.10108568  1
  H+  H363  1  0.34343617  0.92284824  0.76586022  1
  H+  H364  1  0.91432900  0.07585565  0.60782818  1
  H+  H365  1  0.07569119  0.89935092  0.12448391  1
  H+  H366  1  0.15733896  0.34207918  0.59922965  1
  H+  H367  1  0.60129067  0.55875316  0.56771446  1
  H+  H368  1  0.58828531  0.67942027  0.76550947  1
  H+  H369  1  0.83479594  0.16421087  0.73647258  1
  H+  H370  1  0.94497411  0.63902704  0.92379467  1
  H+  H371  1  0.13176850  0.01564411  0.81929428  1
  H+  H372  1  0.18016399  0.08474692  0.23574612  1
  H+  H373  1  0.41196477  0.08939970  0.26953411  1
  H+  H374  1  0.66128607  0.04658582  0.28852749  1
  H+  H375  1  0.67661681  0.85858445  0.92564954  1
  H+  H376  1  0.56010442  0.17969095  0.08518529  1
  H+  H377  1  0.45093627  0.82633851  0.60467103  1
  H+  H378  1  0.38220393  0.02183578  0.16306465  1
  H+  H379  1  0.94470519  0.37843706  0.93147665  1
  H+  H380  1  0.34774007  0.67668738  0.06415614  1
  H+  H381  1  0.81833218  0.52627530  0.89105804  1
  H+  H382  1  0.11762947  0.50042359  0.34762859  1
  H+  H383  1  0.78043038  0.13525442  0.67506343  1
  O2-  O384  1  0.09719617  0.17793839  0.17131345  1
  O2-  O385  1  0.08319227  0.16460809  0.49701765  1
  O2-  O386  1  0.05705499  0.13445018  0.80366219  1
  O2-  O387  1  0.08894126  0.42321349  0.14591074  1
  O2-  O388  1  0.07926863  0.41358118  0.47936930  1
  O2-  O389  1  0.08719742  0.41804235  0.80392517  1
  O2-  O390  1  0.08719353  0.66415950  0.14055369  1
  O2-  O391  1  0.08512992  0.66316047  0.48100952  1
  O2-  O392  1  0.06687994  0.72264023  0.78210349  1
  O2-  O393  1  0.09376779  0.91075068  0.16730617  1
  O2-  O394  1  0.07307243  0.90714093  0.48457765  1
  O2-  O395  1  0.07131937  0.87952843  0.81072880  1
  O2-  O396  1  0.33904596  0.17210814  0.13882344  1
  O2-  O397  1  0.32656931  0.15232990  0.48200717  1
  O2-  O398  1  0.33093016  0.17549821  0.80927740  1
  O2-  O399  1  0.34637200  0.43004565  0.14936705  1
  O2-  O400  1  0.32438122  0.39812460  0.47950892  1
  O2-  O401  1  0.34031465  0.43391638  0.80642101  1
  O2-  O402  1  0.34447668  0.68135341  0.14562710  1
  O2-  O403  1  0.34555774  0.65419790  0.49409299  1
  O2-  O404  1  0.33801641  0.66682600  0.80853338  1
  O2-  O405  1  0.34799676  0.93480795  0.14697856  1
  O2-  O406  1  0.32145142  0.91266464  0.47824578  1
  O2-  O407  1  0.33969981  0.92775181  0.81106278  1
  O2-  O408  1  0.56109573  0.18019402  0.13294220  1
  O2-  O409  1  0.56846179  0.18644132  0.47783922  1
  O2-  O410  1  0.58129957  0.17424340  0.81628342  1
  O2-  O411  1  0.58007452  0.41927426  0.13974997  1
  O2-  O412  1  0.56819468  0.40577995  0.47464473  1
  O2-  O413  1  0.56211881  0.42879896  0.80898233  1
  O2-  O414  1  0.58655496  0.68449842  0.12882244  1
  O2-  O415  1  0.55861028  0.71648380  0.48566083  1
  O2-  O416  1  0.59791270  0.68872771  0.81029171  1
  O2-  O417  1  0.58171004  0.91418787  0.15700071  1
  O2-  O418  1  0.57394394  0.91343507  0.48960288  1
  O2-  O419  1  0.57451192  0.92241171  0.80025383  1
  O2-  O420  1  0.83815549  0.16262409  0.16408242  1
  O2-  O421  1  0.83648095  0.17843283  0.48787648  1
  O2-  O422  1  0.83517271  0.16738016  0.81388599  1
  O2-  O423  1  0.83130533  0.41191345  0.14342197  1
  O2-  O424  1  0.84256555  0.41766698  0.48469290  1
  O2-  O425  1  0.84672157  0.41181243  0.80988053  1
  O2-  O426  1  0.83385174  0.67334232  0.14587525  1
  O2-  O427  1  0.81635898  0.62924288  0.48286718  1
  O2-  O428  1  0.82412099  0.65377163  0.80060908  1
  O2-  O429  1  0.83166947  0.91999010  0.14688386  1
  O2-  O430  1  0.83463169  0.93215407  0.49614924  1
  O2-  O431  1  0.90086772  0.91615025  0.79852642  1
  O2-  O432  1  0.17616334  0.08997609  0.19067314  1
  O2-  O433  1  0.16424310  0.07326857  0.52687041  1
  O2-  O434  1  0.15757535  0.07590855  0.83198609  1
  O2-  O435  1  0.18778447  0.35053298  0.19252142  1
  O2-  O436  1  0.16189860  0.33044118  0.52076218  1
  O2-  O437  1  0.19208144  0.35792507  0.84388652  1
  O2-  O438  1  0.17488731  0.59343841  0.18322109  1
  O2-  O439  1  0.16742202  0.58028538  0.51620266  1
  O2-  O440  1  0.20947167  0.54658632  0.85822257  1
  O2-  O441  1  0.17302711  0.82538698  0.18759211  1
  O2-  O442  1  0.15839382  0.82299817  0.52039234  1
  O2-  O443  1  0.20433298  0.91765705  0.87639082  1
  O2-  O444  1  0.41000460  0.08859674  0.17632270  1
  O2-  O445  1  0.40306870  0.06482105  0.52132069  1
  O2-  O446  1  0.41119296  0.08978798  0.85672674  1
  O2-  O447  1  0.41909486  0.32959192  0.18705314  1
  O2-  O448  1  0.40915308  0.31909604  0.51931810  1
  O2-  O449  1  0.40730820  0.34671348  0.84460187  1
  O2-  O450  1  0.43658267  0.60169796  0.18193902  1
  O2-  O451  1  0.42126300  0.54944644  0.53642394  1
  O2-  O452  1  0.42548484  0.58690522  0.84612857  1
  O2-  O453  1  0.42238226  0.84269756  0.19171768  1
  O2-  O454  1  0.43349676  0.81617762  0.54517495  1
  O2-  O455  1  0.41152423  0.83082350  0.85163092  1
  O2-  O456  1  0.68047748  0.06723018  0.20517346  1
  O2-  O457  1  0.67984400  0.11662650  0.52601810  1
  O2-  O458  1  0.67338129  0.10224927  0.85654216  1
  O2-  O459  1  0.66717658  0.34736879  0.18943156  1
  O2-  O460  1  0.68091606  0.34998908  0.52531662  1
  O2-  O461  1  0.68250325  0.33986081  0.86155418  1
  O2-  O462  1  0.66595469  0.59495120  0.11940480  1
  O2-  O463  1  0.56686820  0.54464592  0.52999251  1
  O2-  O464  1  0.66641751  0.59434624  0.85703594  1
  O2-  O465  1  0.65851419  0.83449342  0.18002033  1
  O2-  O466  1  0.67039764  0.85903779  0.54533283  1
  O2-  O467  1  0.67596994  0.86256788  0.84861710  1
  O2-  O468  1  0.91997973  0.07958432  0.20068718  1
  O2-  O469  1  0.91112117  0.09119791  0.53251065  1
  O2-  O470  1  0.83929133  0.01672613  0.84708420  1
  O2-  O471  1  0.92056102  0.33377445  0.19099281  1
  O2-  O472  1  0.92670508  0.33747228  0.53129695  1
  O2-  O473  1  0.93455886  0.33870296  0.85294132  1
  O2-  O474  1  0.91252977  0.58453334  0.17844575  1
  O2-  O475  1  0.91898962  0.57873913  0.52244229  1
  O2-  O476  1  0.86924534  0.56046441  0.86623509  1
  O2-  O477  1  0.89922220  0.82803355  0.19743209  1
  O2-  O478  1  0.90514413  0.84740326  0.52885680  1
  O2-  O479  1  0.87656085  0.79782665  0.87133829  1
  O2-  O480  1  0.17009051  0.07007826  0.31272521  1
  O2-  O481  1  0.16452366  0.08881619  0.64858131  1
  O2-  O482  1  0.18190073  0.09213870  0.94794742  1
  O2-  O483  1  0.19780033  0.35712377  0.30583290  1
  O2-  O484  1  0.15276864  0.34714526  0.64407545  1
  O2-  O485  1  0.17191161  0.34524208  0.96703669  1
  O2-  O486  1  0.15452451  0.56247234  0.35677653  1
  O2-  O487  1  0.16710884  0.60378854  0.64539302  1
  O2-  O488  1  0.18982168  0.58511372  0.96873075  1
  O2-  O489  1  0.16671015  0.82647538  0.31201769  1
  O2-  O490  1  0.19101091  0.84159545  0.63692426  1
  O2-  O491  1  0.17571322  0.83849759  0.98947960  1
  O2-  O492  1  0.41217897  0.08307289  0.31368614  1
  O2-  O493  1  0.42621651  0.07628965  0.64353388  1
  O2-  O494  1  0.40332793  0.07930270  0.97747174  1
  O2-  O495  1  0.40445453  0.31211202  0.32099703  1
  O2-  O496  1  0.41221625  0.36009104  0.64095810  1
  O2-  O497  1  0.42457643  0.34059037  0.96821577  1
  O2-  O498  1  0.38544973  0.55203854  0.31780218  1
  O2-  O499  1  0.38690153  0.54893329  0.65411328  1
  O2-  O500  1  0.41627345  0.57245800  0.96437701  1
  O2-  O501  1  0.41497700  0.82409740  0.31555227  1
  O2-  O502  1  0.45489380  0.83269170  0.65564769  1
  O2-  O503  1  0.43309623  0.84873621  0.97645172  1
  O2-  O504  1  0.65310496  0.04108843  0.33277357  1
  O2-  O505  1  0.66305339  0.07420318  0.64861576  1
  O2-  O506  1  0.67316734  0.12522637  0.98487420  1
  O2-  O507  1  0.66578743  0.35087992  0.31841682  1
  O2-  O508  1  0.67457641  0.33687232  0.64991562  1
  O2-  O509  1  0.66923774  0.33736335  0.97954386  1
  O2-  O510  1  0.66066435  0.58834672  0.32135849  1
  O2-  O511  1  0.65081061  0.58408099  0.64328930  1
  O2-  O512  1  0.68600392  0.58688283  0.98422220  1
  O2-  O513  1  0.64160211  0.79178935  0.29758992  1
  O2-  O514  1  0.58887264  0.82392774  0.65808792  1
  O2-  O515  1  0.67415831  0.85824916  0.97129352  1
  O2-  O516  1  0.89929488  0.08247252  0.32178208  1
  O2-  O517  1  0.92027213  0.06985415  0.65264481  1
  O2-  O518  1  0.90228582  0.06670015  0.96430214  1
  O2-  O519  1  0.85578041  0.30002922  0.30723155  1
  O2-  O520  1  0.93656416  0.33300732  0.65675429  1
  O2-  O521  1  0.95347446  0.40448054  0.97242356  1
  O2-  O522  1  0.91025807  0.60706220  0.30687549  1
  O2-  O523  1  0.91467184  0.58676612  0.64144779  1
  O2-  O524  1  0.97628398  0.67759522  0.95818854  1
  O2-  O525  1  0.92729374  0.84586009  0.30551025  1
  O2-  O526  1  0.86080009  0.82941930  0.64552222  1
  O2-  O527  1  0.92749796  0.84724848  0.98850474  1
  O2-  O528  1  0.08362738  0.16354886  -0.02184070  1
  O2-  O529  1  0.04730181  0.24402477  0.34970578  1
  O2-  O530  1  0.08343720  0.17402410  0.68507197  1
  O2-  O531  1  0.09795881  0.43017605  0.01761059  1
  O2-  O532  1  0.03680250  0.38437940  0.36319382  1
  O2-  O533  1  0.02255915  0.37780346  0.68471486  1
  O2-  O534  1  0.06621534  0.62321276  0.01592622  1
  O2-  O535  1  0.07560057  0.66661351  0.35664566  1
  O2-  O536  1  0.06997198  0.66092782  0.67486872  1
  O2-  O537  1  0.07836177  0.90072918  0.03882033  1
  O2-  O538  1  0.07811488  0.90118330  0.35324835  1
  O2-  O539  1  0.14155876  0.94119729  0.69880985  1
  O2-  O540  1  0.33538780  0.17945603  0.01449323  1
  O2-  O541  1  0.32291568  0.15319911  0.35907050  1
  O2-  O542  1  0.30041258  0.09388955  0.70012020  1
  O2-  O543  1  0.30789643  0.36895360  0.03430992  1
  O2-  O544  1  0.33321583  0.39475112  0.35896166  1
  O2-  O545  1  0.33656340  0.45639779  0.67417055  1
  O2-  O546  1  0.35410614  0.67826991  0.01915025  1
  O2-  O547  1  0.33442329  0.66304679  0.36400866  1
  O2-  O548  1  0.33759237  0.66163037  0.69034589  1
  O2-  O549  1  0.34214270  0.92240688  0.02783071  1
  O2-  O550  1  0.33044300  0.91512615  0.35096716  1
  O2-  O551  1  0.35930179  0.91453989  0.68911603  1
  O2-  O552  1  0.56239875  0.17370713  0.01781602  1
  O2-  O553  1  0.58175200  0.18644244  0.36149873  1
  O2-  O554  1  0.58723499  0.16465244  0.69186037  1
  O2-  O555  1  0.58899677  0.41911335  0.01770945  1
  O2-  O556  1  0.55219263  0.39427165  0.35753392  1
  O2-  O557  1  0.58527458  0.42183649  0.68507102  1
  O2-  O558  1  0.55042395  0.71628514  0.01941400  1
  O2-  O559  1  0.55483911  0.64442059  0.36895696  1
  O2-  O560  1  0.55330508  0.65458861  0.68934117  1
  O2-  O561  1  0.61031735  0.95991322  0.01355366  1
  O2-  O562  1  0.64455628  0.90453373  0.37276396  1
  O2-  O563  1  0.54876256  0.87873293  0.67054415  1
  O2-  O564  1  0.80956552  0.10055097  0.04584670  1
  O2-  O565  1  0.81503442  0.15339050  0.36927135  1
  O2-  O566  1  0.83993408  0.16527458  0.69099735  1
  O2-  O567  1  0.79885166  0.31580322  0.03131247  1
  O2-  O568  1  0.82820067  0.40467582  0.36203153  1
  O2-  O569  1  0.84226460  0.42095228  0.68634055  1
  O2-  O570  1  0.84959978  0.68246449  0.02415100  1
  O2-  O571  1  0.83008738  0.67511406  0.36966641  1
  O2-  O572  1  0.82237079  0.67322617  0.68154331  1
  O2-  O573  1  0.83359626  0.91611483  0.02181187  1
  O2-  O574  1  0.85497120  0.92603145  0.36633525  1
  O2-  O575  1  0.91958170  0.90682035  0.67982606  1
