# generated using pymatgen
data_H2O
_symmetry_space_group_name_H-M   'P 1'
_cell_length_a   17.99244056
_cell_length_b   17.99030459
_cell_length_c   21.99356929
_cell_angle_alpha   90.01425995
_cell_angle_beta   89.97058717
_cell_angle_gamma   119.99518649
_symmetry_Int_Tables_number   1
_chemical_formula_structural   H2O
_chemical_formula_sum   'H384 O192'
_cell_volume   6165.60852439
_cell_formula_units_Z   192
loop_
 _symmetry_equiv_pos_site_id
 _symmetry_equiv_pos_as_xyz
  1  'x, y, z'
loop_
 _atom_type_symbol
 _atom_type_oxidation_number
  H+  1.0
  O2-  -2.0
loop_
 _atom_site_type_symbol
 _atom_site_label
 _atom_site_symmetry_multiplicity
 _atom_site_fract_x
 _atom_site_fract_y
 _atom_site_fract_z
 _atom_site_occupancy
  H+  H0  1  0.14300390  0.65300026  0.17058707  1
  H+  H1  1  0.38496841  0.10963994  0.81429211  1
  H+  H2  1  0.30087420  0.90330829  0.49571270  1
  H+  H3  1  0.61058351  0.14082507  0.82852383  1
  H+  H4  1  0.98839330  0.64501443  0.16654690  1
  H+  H5  1  0.27923550  0.11968738  0.36055411  1
  H+  H6  1  0.33559747  0.17487260  0.72847943  1
  H+  H7  1  0.35580230  0.72910209  0.34953019  1
  H+  H8  1  0.72427890  0.86418072  0.99362123  1
  H+  H9  1  0.48728371  0.37522724  0.98814517  1
  H+  H10  1  0.09923590  0.12437252  0.67615257  1
  H+  H11  1  0.60593032  0.54529061  0.15881357  1
  H+  H12  1  -0.02652487  0.87317966  -0.01054461  1
  H+  H13  1  0.63036841  0.27577765  0.85258498  1
  H+  H14  1  0.72377629  0.36598702  0.16930873  1
  H+  H15  1  0.72350037  0.87182502  0.83629593  1
  H+  H16  1  0.63541061  0.36332734  0.50680447  1
  H+  H17  1  0.13846041  0.78485863  0.18761672  1
  H+  H18  1  0.72516307  0.12084030  0.84159152  1
  H+  H19  1  0.65851631  0.37947408  0.66052345  1
  H+  H20  1  0.81822971  0.16434115  0.07716352  1
  H+  H21  1  0.85542090  0.87911872  0.15823396  1
  H+  H22  1  0.07700230  0.41787526  0.76828619  1
  H+  H23  1  0.09092595  0.10416498  0.49462764  1
  H+  H24  1  0.58103291  0.96406225  0.43246711  1
  H+  H25  1  0.34512872  0.15602634  0.42040120  1
  H+  H26  1  0.87918614  0.35854516  0.32242371  1
  H+  H27  1  0.47750627  0.10826894  0.34029896  1
  H+  H28  1  0.89771084  0.76502414  0.83205162  1
  H+  H29  1  0.73053383  0.36476997  0.50719725  1
  H+  H30  1  0.88705775  0.78037048  -0.01340031  1
  H+  H31  1  0.84549976  0.20420010  0.48688899  1
  H+  H32  1  0.29551610  0.43909258  0.67107511  1
  H+  H33  1  0.73324240  0.59280216  0.31286876  1
  H+  H34  1  0.85500094  -0.02549639  0.67251383  1
  H+  H35  1  0.39124967  0.49819501  0.49029923  1
  H+  H36  1  0.62028843  0.47962022  0.67320582  1
  H+  H37  1  0.39493638  0.12431634  0.66011054  1
  H+  H38  1  0.96533701  0.09137070  0.33031685  1
  H+  H39  1  0.38987753  0.87610069  0.66717525  1
  H+  H40  1  0.38534700  0.01560386  0.33833240  1
  H+  H41  1  0.48515554  0.62378560  0.50327485  1
  H+  H42  1  0.88192181  0.35251469  0.50280616  1
  H+  H43  1  0.76899286  0.88470236  0.67515371  1
  H+  H44  1  0.76460824  0.38237836  0.84319233  1
  H+  H45  1  0.96523164  0.11164092  0.99661819  1
  H+  H46  1  0.61259340  0.73265194  0.00246171  1
  H+  H47  1  0.61303472  0.12961903  0.34670347  1
  H+  H48  1  -0.01267911  0.86072050  0.17555481  1
  H+  H49  1  0.88660665  0.35261769  0.64892177  1
  H+  H50  1  0.62245743  0.98305927  0.16910189  1
  H+  H51  1  0.27216206  0.63374829  0.34615631  1
  H+  H52  1  -0.02599786  0.34968579  0.65448001  1
  H+  H53  1  0.95640642  0.85053111  0.51123689  1
  H+  H54  1  0.39405867  0.36291365  0.50754622  1
  H+  H55  1  0.09733963  0.89515029  0.01498419  1
  H+  H56  1  0.28760220  0.14957244  0.14356023  1
  H+  H57  1  0.61479238  -0.01628207  1.00931103  1
  H+  H58  1  0.75272565  0.87171098  0.49563197  1
  H+  H59  1  0.16275515  0.83446167  0.28407714  1
  H+  H60  1  0.40977597  0.59621143  0.89751638  1
  H+  H61  1  0.95947888  0.60502254  0.48416878  1
  H+  H62  1  0.36960817  0.22371453  0.50111237  1
  H+  H63  1  0.84969935  0.12805803  0.66775737  1
  H+  H64  1  0.34357593  0.72994689  0.82126293  1
  H+  H65  1  0.36859665  0.64187427  0.16285495  1
  H+  H66  1  0.11309697  0.96184275  0.82318640  1
  H+  H67  1  0.18223688  0.72927404  0.12414750  1
  H+  H68  1  0.63770260  0.03168890  0.84441324  1
  H+  H69  1  0.27713284  0.89807929  0.69070110  1
  H+  H70  1  0.48081005  0.37002104  0.83031920  1
  H+  H71  1  0.22460757  0.11759126  0.66385072  1
  H+  H72  1  0.64442020  0.12439994  0.99885397  1
  H+  H73  1  0.86891246  0.36046693  0.84191953  1
  H+  H74  1  0.13254377  0.49395876  0.50270228  1
  H+  H75  1  0.88048913  0.09601135  0.32046936  1
  H+  H76  1  0.96145992  0.62188184  0.33187623  1
  H+  H77  1  0.63734856  0.52960143  -0.00344905  1
  H+  H78  1  0.97045263  0.60766815  0.85245357  1
  H+  H79  1  0.63364235  0.36497309  0.85278390  1
  H+  H80  1  0.09132840  0.87406925  0.17610752  1
  H+  H81  1  0.85621367  0.22064627  0.66605058  1
  H+  H82  1  0.52372839  0.37653968  0.49572966  1
  H+  H83  1  0.87824541  0.46594829  0.65909806  1
  H+  H84  1  0.64005524  0.27978755  0.65854361  1
  H+  H85  1  0.37799568  0.62250857  0.83698076  1
  H+  H86  1  0.39262086  0.61972323  0.50386769  1
  H+  H87  1  0.99171644  0.60938933  0.65824649  1
  H+  H88  1  0.37737163  0.11273964  0.35221181  1
  H+  H89  1  0.47558737  0.87361464  1.00165826  1
  H+  H90  1  0.25334906  0.39930347  0.53217771  1
  H+  H91  1  0.37249781  0.23900930  0.15374520  1
  H+  H92  1  0.41258568  1.03727089  0.50729267  1
  H+  H93  1  0.10635020  0.88529363  0.34881905  1
  H+  H94  1  0.85857023  0.63398712  0.33585305  1
  H+  H95  1  0.53570181  0.75155027  0.29475452  1
  H+  H96  1  0.64194132  0.78534297  0.15697436  1
  H+  H97  1  0.63545918  0.86718628  0.66569853  1
  H+  H98  1  0.11159082  0.13006191  0.34617586  1
  H+  H99  1  0.40460442  0.64635198  0.32815686  1
  H+  H100  1  0.12058995  0.72787317  0.68105706  1
  H+  H101  1  0.27254376  0.63074773  0.49718723  1
  H+  H102  1  0.65773893  0.67632819  0.34286232  1
  H+  H103  1  0.41479274  0.09315756  0.23820531  1
  H+  H104  1  0.86084431  0.88197138  0.00047575  1
  H+  H105  1  0.14730612  0.36359341  0.18242723  1
  H+  H106  1  0.34781227  -0.00372984  0.16316450  1
  H+  H107  1  0.20663496  0.32656680  0.68860811  1
  H+  H108  1  0.10377858  -0.01396675  1.00867273  1
  H+  H109  1  0.60292233  0.67863974  0.43684889  1
  H+  H110  1  0.02788787  0.86974145  0.82190544  1
  H+  H111  1  0.94938745  0.08231468  0.50521842  1
  H+  H112  1  0.22695209  0.86458602  0.34067050  1
  H+  H113  1  0.82293035  0.64705399  0.59829972  1
  H+  H114  1  0.86086402  0.21970674  0.33370011  1
  H+  H115  1  0.53111618  0.14662715  0.67540386  1
  H+  H116  1  0.13752397  1.02016560  0.51390279  1
  H+  H117  1  0.11295146  0.71909047  0.82542977  1
  H+  H118  1  0.16983900  0.59401172  0.92738763  1
  H+  H119  1  0.14784410  0.85342811  0.82373649  1
  H+  H120  1  -0.03239933  0.35741445  0.32081117  1
  H+  H121  1  0.16319366  0.28511297  0.16687052  1
  H+  H122  1  0.76769982  0.64078655  0.15485865  1
  H+  H123  1  0.86344041  0.65396468  0.15876733  1
  H+  H124  1  0.48065994  0.62465905  0.33397843  1
  H+  H125  1  0.85683103  0.22232621  1.00414092  1
  H+  H126  1  0.05706032  0.25325274  0.54998057  1
  H+  H127  1  0.86870002  0.76909326  0.18189486  1
  H+  H128  1  0.12715175  0.15238609  0.12644309  1
  H+  H129  1  0.52977288  0.89797726  0.83128479  1
  H+  H130  1  0.38522640  0.37685552  0.65820680  1
  H+  H131  1  0.37290107  0.24152027  -0.00700690  1
  H+  H132  1  0.85234313  0.71420892  0.54316683  1
  H+  H133  1  0.70388867  0.35678898  -0.03596138  1
  H+  H134  1  0.63994165  0.24023283  1.02052903  1
  H+  H135  1  0.38889235  0.77104615  0.51072421  1
  H+  H136  1  0.85088823  0.98319584  0.82632393  1
  H+  H137  1  0.20832747  0.86343898  0.99976028  1
  H+  H138  1  0.10253146  0.67433092  0.44290667  1
  H+  H139  1  0.10825101  0.47904536  0.82961908  1
  H+  H140  1  0.61119134  0.45350245  0.33763415  1
  H+  H141  1  0.40503797  0.24447157  0.32142725  1
  H+  H142  1  0.47713539  0.36358809  0.17310912  1
  H+  H143  1  0.66398644  0.83905486  0.89662454  1
  H+  H144  1  -0.09552083  0.01536393  0.17231916  1
  H+  H145  1  0.21362016  0.61054313  0.83308998  1
  H+  H146  1  0.36000362  0.73767780  0.67078328  1
  H+  H147  1  0.61443862  0.48259466  0.83025817  1
  H+  H148  1  0.12074553  0.15056958  -0.01322123  1
  H+  H149  1  0.53915420  0.88756516  0.17210947  1
  H+  H150  1  0.71637279  0.60010284  0.53376299  1
  H+  H151  1  0.74810905  0.38671801  1.03150325  1
  H+  H152  1  0.32414416  0.47306398  0.33987594  1
  H+  H153  1  0.07029337  0.32961202  0.46841291  1
  H+  H154  1  0.23146283  0.84965216  0.80775943  1
  H+  H155  1  0.61324544  0.63129546  0.49576382  1
  H+  H156  1  0.36422095  0.97883942  0.78535521  1
  H+  H157  1  0.16580419  0.39723996  0.53383949  1
  H+  H158  1  0.61315939  0.73421177  0.82698242  1
  H+  H159  1  0.36382464  0.88919731  0.34424099  1
  H+  H160  1  0.12050844  0.77476275  1.00500922  1
  H+  H161  1  0.38641624  0.78447065  1.00125273  1
  H+  H162  1  0.22854636  0.62273317  0.98911496  1
  H+  H163  1  0.87456500  0.10697137  1.00270940  1
  H+  H164  1  0.36264127  0.64564963  0.00819612  1
  H+  H165  1  0.96795835  0.34049464  0.97729233  1
  H+  H166  1  0.28015670  0.14868986  0.82532521  1
  H+  H167  1  0.23444419  0.13126597  0.98901503  1
  H+  H168  1  0.85557593  0.59037711  0.67310522  1
  H+  H169  1  0.11406643  0.37426020  0.83285003  1
  H+  H170  1  0.74489293  0.87633130  0.15807884  1
  H+  H171  1  0.39352347  0.12857634  0.17673756  1
  H+  H172  1  0.21166292  0.88200466  0.18481764  1
  H+  H173  1  0.90262899  0.83118754  0.24352460  1
  H+  H174  1  0.39641717  0.03726722  0.66710083  1
  H+  H175  1  0.64103596  0.35171796  0.32906514  1
  H+  H176  1  0.85901380  0.63964353  0.00771813  1
  H+  H177  1  0.52520131  0.90064949  0.67850351  1
  H+  H178  1  0.39984153  0.37840574  0.98874766  1
  H+  H179  1  0.39986555  0.77004556  0.18650259  1
  H+  H180  1  0.62440403  0.81431701  0.26358210  1
  H+  H181  1  0.11444625  0.49184493  0.98819583  1
  H+  H182  1  0.10301622  0.88790335  0.49754800  1
  H+  H183  1  0.37334429  0.48530306  0.16179550  1
  H+  H184  1  0.63039661  1.02449768  0.67249155  1
  H+  H185  1  0.11164110  0.47422038  0.67717094  1
  H+  H186  1  0.22767948  0.61310656  0.65842072  1
  H+  H187  1  0.00936017  0.14524159  0.82831733  1
  H+  H188  1  0.59621027  0.16744079  0.07066862  1
  H+  H189  1  0.36651988  0.01931594  0.96695399  1
  H+  H190  1  0.40300337  0.55003572  0.65864126  1
  H+  H191  1  0.11086182  0.38475643  0.68425932  1
  H+  H192  1  0.89222782  0.34568879  0.16660462  1
  H+  H193  1  0.07016343  0.17535291  -0.05935772  1
  H+  H194  1  0.87851353  0.12217229  0.84149086  1
  H+  H195  1  0.63445430  0.51507024  0.50642983  1
  H+  H196  1  0.85744133  1.00081706  0.50768827  1
  H+  H197  1  0.64615179  0.03084442  0.33172059  1
  H+  H198  1  0.52337403  0.13345497  0.16603963  1
  H+  H199  1  0.02783475  0.38305409  0.17337894  1
  H+  H200  1  0.14289263  0.52861256  0.18656593  1
  H+  H201  1  0.38758377  0.53438440  -0.00675225  1
  H+  H202  1  0.88576805  0.77496264  0.33058768  1
  H+  H203  1  0.63563444  0.61841326  0.84066095  1
  H+  H204  1  0.96530384  0.60807264  1.00645415  1
  H+  H205  1  0.52998827  0.35716055  0.33478826  1
  H+  H206  1  0.10857468  0.63457659  0.00389517  1
  H+  H207  1  0.71348292  0.50681283  0.69448266  1
  H+  H208  1  0.37215365  0.49255536  0.82069986  1
  H+  H209  1  0.19759181  0.35816830  0.33455612  1
  H+  H210  1  0.14056641  0.87141722  0.67139891  1
  H+  H211  1  0.63541416  0.77755976  0.66531119  1
  H+  H212  1  0.09347844  0.20963460  0.67437144  1
  H+  H213  1  0.10011147  0.21245043  0.34258247  1
  H+  H214  1  0.13031369  0.51015991  0.33258031  1
  H+  H215  1  0.12138430  0.63890202  0.67512943  1
  H+  H216  1  0.61535799  0.21840179  0.16529782  1
  H+  H217  1  0.14372420  0.29173405  0.98182236  1
  H+  H218  1  0.57908186  0.57489376  0.65868811  1
  H+  H219  1  0.86107978  0.47349745  0.33840773  1
  H+  H220  1  0.07150768  0.95438300  0.15448827  1
  H+  H221  1  0.37464250  0.40461413  0.81659911  1
  H+  H222  1  0.33396069  0.90496771  0.14674003  1
  H+  H223  1  0.48309012  0.62843387  0.16744856  1
  H+  H224  1  0.09548971  0.37031722  0.33078310  1
  H+  H225  1  0.36567319  0.23424203  0.67006181  1
  H+  H226  1  0.61150322  0.64193516  0.00538007  1
  H+  H227  1  0.09763120  0.09868407  0.84291212  1
  H+  H228  1  0.45033564  0.78057777  0.87327034  1
  H+  H229  1  0.13962192  1.01717587  0.34452349  1
  H+  H230  1  0.85713613  0.62576619  0.82816706  1
  H+  H231  1  0.84596670  0.11572386  0.48747438  1
  H+  H232  1  0.52582277  0.65342234  0.67453937  1
  H+  H233  1  0.63424023  0.12290052  0.67091941  1
  H+  H234  1  0.52308034  0.64698193  0.82734251  1
  H+  H235  1  0.75717027  0.13134479  0.00619056  1
  H+  H236  1  0.95991197  0.36074937  0.83776250  1
  H+  H237  1  0.47504866  0.62363295  0.99195225  1
  H+  H238  1  0.28079699  0.64325048  0.17022996  1
  H+  H239  1  0.84199322  0.86988152  0.49680216  1
  H+  H240  1  0.46745098  0.86586131  0.35663074  1
  H+  H241  1  0.12199171  0.60599424  0.83855588  1
  H+  H242  1  0.63689630  0.86841833  -0.00476467  1
  H+  H243  1  0.88685442  0.86860905  0.66355913  1
  H+  H244  1  0.35694120  0.89511591  0.00526080  1
  H+  H245  1  0.64871921  0.88248825  0.16452087  1
  H+  H246  1  0.85868696  0.44013436  0.15545406  1
  H+  H247  1  0.62981207  0.45690889  0.16967396  1
  H+  H248  1  0.37568722  0.11129120  -0.03745655  1
  H+  H249  1  0.61803135  0.66355378  0.15463626  1
  H+  H250  1  0.42153947  0.41537990  0.34993053  1
  H+  H251  1  0.28490833  0.39616185  0.16470110  1
  H+  H252  1  0.11841804  0.27515693  0.83484411  1
  H+  H253  1  0.77316614  0.63324294  0.82365567  1
  H+  H254  1  0.62938910  0.76956288  0.51269600  1
  H+  H255  1  0.77419599  0.38237130  0.33911090  1
  H+  H256  1  0.76204523  0.13259523  0.15790921  1
  H+  H257  1  0.85807898  0.97024365  0.00681868  1
  H+  H258  1  0.12457231  0.07423850  0.19849858  1
  H+  H259  1  0.22924357  0.10727723  0.51330828  1
  H+  H260  1  0.60562041  0.88643824  0.33538956  1
  H+  H261  1  0.69267119  0.77238366  0.35958715  1
  H+  H262  1  0.08889893  0.73490018  0.36291805  1
  H+  H263  1  0.89688119  0.56166121  0.15931730  1
  H+  H264  1  0.33088502  0.66667730  0.43776705  1
  H+  H265  1  0.78504047  0.38173426  0.65775489  1
  H+  H266  1  0.63336540  0.10815478  0.17906805  1
  H+  H267  1  0.06789777  0.39984422  0.39106820  1
  H+  H268  1  0.73014166  0.12129304  0.32797538  1
  H+  H269  1  0.07051642  0.65213659  0.77224339  1
  H+  H270  1  0.12918169  0.59643307  0.34391439  1
  H+  H271  1  0.06671932  0.23212516  0.52392591  1
  H+  H272  1  0.38136962  0.38154176  0.33441417  1
  H+  H273  1  0.72488143  0.62009433  0.99411020  1
  H+  H274  1  0.17375910  0.83300656  0.45079596  1
  H+  H275  1  0.85751538  0.21684571  0.15654500  1
  H+  H276  1  0.83708215  -0.05206931  0.34076881  1
  H+  H277  1  0.62293173  0.09386542  0.45896615  1
  H+  H278  1  0.47718858  0.39196222  0.65385194  1
  H+  H279  1  0.00696220  0.36116884  0.48985232  1
  H+  H280  1  0.38586606  0.89617677  0.49582451  1
  H+  H281  1  0.96000564  0.10404307  0.65637424  1
  H+  H282  1  0.53551026  0.14797374  0.44454414  1
  H+  H283  1  0.85482791  0.46959100  0.84151320  1
  H+  H284  1  0.62776546  0.39674335  0.01330243  1
  H+  H285  1  0.28231030  0.39956222  0.00331909  1
  H+  H286  1  0.36773711  0.23886431  0.82299424  1
  H+  H287  1  0.41369116  0.86339939  0.19488154  1
  H+  H288  1  0.87630139  0.52584335  1.02529928  1
  H+  H289  1  0.15988030  0.34348580  0.89364574  1
  H+  H290  1  0.41803250  0.33448199  0.56964037  1
  H+  H291  1  0.85445816  0.22961249  0.82222084  1
  H+  H292  1  0.08203075  0.65574044  0.06774030  1
  H+  H293  1  0.04769251  0.43101517  0.03644739  1
  H+  H294  1  0.60636479  0.36288646  0.16334383  1
  H+  H295  1  0.88252570  0.60670818  0.52220173  1
  H+  H296  1  0.34923252  0.44320219  0.73209856  1
  H+  H297  1  0.39004332  0.36844115  0.17384556  1
  H+  H298  1  0.87733208  0.85926689  0.33438029  1
  H+  H299  1  0.11984268  0.57297835  0.50439453  1
  H+  H300  1  0.18345847  0.84627501  0.61806710  1
  H+  H301  1  0.12077138  0.21314169  0.07862805  1
  H+  H302  1  0.82446998  0.92213247  0.76802583  1
  H+  H303  1  0.36589276  0.65184854  0.66830726  1
  H+  H304  1  0.66432068  0.58870935  0.90035860  1
  H+  H305  1  0.92030395  0.59462441  0.26495231  1
  H+  H306  1  0.07047354  0.91757621  0.44125779  1
  H+  H307  1  0.67482196  0.32684936  0.23343538  1
  H+  H308  1  0.58786988  0.92544511  0.06919023  1
  H+  H309  1  0.06866521  0.16539941  0.76840780  1
  H+  H310  1  0.64294450  0.26476758  0.32813808  1
  H+  H311  1  0.30094655  0.43892801  0.40620086  1
  H+  H312  1  0.66933964  0.08501824  0.23899073  1
  H+  H313  1  0.83025704  0.15699375  0.39220597  1
  H+  H314  1  0.92630274  0.82764489  0.88982574  1
  H+  H315  1  0.81465417  0.89552967  0.40305639  1
  H+  H316  1  0.90553017  0.08973886  0.90205262  1
  H+  H317  1  0.93747199  0.06329936  0.23575591  1
  H+  H318  1  0.08560583  0.91334102  0.73227999  1
  H+  H319  1  0.82630677  0.40954495  0.43463741  1
  H+  H320  1  0.91122028  0.32296133  0.23334715  1
  H+  H321  1  0.18950992  0.08420597  0.29159694  1
  H+  H322  1  0.60765640  0.43102830  0.77031126  1
  H+  H323  1  0.93730312  0.57794041  0.59587621  1
  H+  H324  1  0.34911722  0.17955190  0.05014581  1
  H+  H325  1  0.34456333  0.92402087  0.40541510  1
  H+  H326  1  0.42318136  0.34493032  0.89006472  1
  H+  H327  1  0.11693778  -0.02272113  0.67429207  1
  H+  H328  1  0.51904087  0.13447916  0.81894304  1
  H+  H329  1  0.71676683  0.51562687  0.27232900  1
  H+  H330  1  0.44172457  0.09777068  0.56512297  1
  H+  H331  1  0.41981010  0.84672141  0.60668916  1
  H+  H332  1  0.16292242  0.57056656  0.60254196  1
  H+  H333  1  0.66998025  0.09076650  0.93681544  1
  H+  H334  1  0.33906633  0.42508741  0.06420648  1
  H+  H335  1  0.59837883  0.54048660  0.59761999  1
  H+  H336  1  0.32093010  0.67436519  0.76010513  1
  H+  H337  1  0.18172382  0.34611252  0.62269029  1
  H+  H338  1  0.58992925  0.17700029  0.73600133  1
  H+  H339  1  0.09617762  0.41886319  0.12002928  1
  H+  H340  1  0.01809523  0.88869206  0.34394444  1
  H+  H341  1  0.82561649  0.16574922  0.76429494  1
  H+  H342  1  0.40006240  0.06715676  0.87184814  1
  H+  H343  1  0.97575894  0.86855361  0.65978246  1
  H+  H344  1  0.43202637  0.83671151  0.28804563  1
  H+  H345  1  0.02982207  0.05249067  0.17848734  1
  H+  H346  1  0.43003199  0.30208182  0.26092111  1
  H+  H347  1  0.89869065  0.30770601  0.92448610  1
  H+  H348  1  0.91374455  0.32036179  0.56026318  1
  H+  H349  1  0.04657567  0.01063679  0.87663263  1
  H+  H350  1  0.66914590  0.33758603  0.57370271  1
  H+  H351  1  0.58566290  0.68411752  0.09144390  1
  H+  H352  1  0.90669474  0.83445279  0.57415082  1
  H+  H353  1  0.65992936  0.83368699  0.56867931  1
  H+  H354  1  0.41576231  0.45243443  0.43934408  1
  H+  H355  1  0.72853306  0.11885215  0.66725954  1
  H+  H356  1  0.65778260  0.57828018  0.22131096  1
  H+  H357  1  0.37815437  0.13791598  0.50338784  1
  H+  H358  1  0.48187849  0.85250579  0.51178525  1
  H+  H359  1  0.15629113  0.79330093  0.51539478  1
  H+  H360  1  0.58391299  0.41763586  0.06689051  1
  H+  H361  1  0.90894979  0.57795772  0.91139789  1
  H+  H362  1  0.83281046  0.90905777  0.09263298  1
  H+  H363  1  0.85672582  0.46888693  0.49404009  1
  H+  H364  1  0.16212432  0.08650238  0.93612161  1
  H+  H365  1  0.58151012  0.40193115  0.43448911  1
  H+  H366  1  0.15725956  0.31805701  0.26965667  1
  H+  H367  1  0.83185308  0.68016345  0.06135315  1
  H+  H368  1  0.89821000  0.07228365  0.59680860  1
  H+  H369  1  0.82076643  0.65758835  0.39367452  1
  H+  H370  1  0.33127469  0.67274128  0.06816100  1
  H+  H371  1  0.17137667  0.58699100  0.24589769  1
  H+  H372  1  0.58508357  0.92895317  0.73865914  1
  H+  H373  1  0.42145707  0.83661248  0.90754655  1
  H+  H374  1  0.82061880  0.62857952  0.72374203  1
  H+  H375  1  0.61774105  0.89669956  0.82854943  1
  H+  H376  1  0.16437161  0.08363150  0.60571095  1
  H+  H377  1  0.05652613  0.12666045  0.43388764  1
  H+  H378  1  0.58404733  0.67071086  0.73397208  1
  H+  H379  1  0.42701723  0.60468219  0.59750437  1
  H+  H380  1  0.32447523  0.93793417  0.05476470  1
  H+  H381  1  0.14268901  0.38003831  0.98498317  1
  H+  H382  1  0.43244301  0.60407959  0.23019956  1
  H+  H383  1  0.69617053  0.07417924  0.47346330  1
  O2-  O384  1  0.15375259  0.21325200  0.11378264  1
  O2-  O385  1  0.04084340  0.10298974  0.47549163  1
  O2-  O386  1  0.07121795  0.17372965  0.81385149  1
  O2-  O387  1  0.09100553  0.41950568  0.16415687  1
  O2-  O388  1  0.06842788  0.38268283  0.47361195  1
  O2-  O389  1  0.07772741  0.41665739  0.81462741  1
  O2-  O390  1  0.13070336  0.69538164  0.14868105  1
  O2-  O391  1  0.05164627  0.63362937  0.41959525  1
  O2-  O392  1  0.07349604  0.65513128  0.81738927  1
  O2-  O393  1  0.05004671  0.89004620  0.15607264  1
  O2-  O394  1  0.07076427  0.91680171  0.48658328  1
  O2-  O395  1  0.08979968  0.90461237  0.80501203  1
  O2-  O396  1  0.34938850  0.17888818  0.13663317  1
  O2-  O397  1  0.34197541  0.16257177  0.48711380  1
  O2-  O398  1  0.33658829  0.17812291  0.80625715  1
  O2-  O399  1  0.34384093  0.42501975  0.14657398  1
  O2-  O400  1  0.37082575  0.44040758  0.46922037  1
  O2-  O401  1  0.34701509  0.43613836  0.79966798  1
  O2-  O402  1  0.33942687  0.67545552  0.15223864  1
  O2-  O403  1  0.33267075  0.66705590  0.48353782  1
  O2-  O404  1  0.31513864  0.67036018  0.80557782  1
  O2-  O405  1  0.30564909  0.93899611  0.14446420  1
  O2-  O406  1  0.36026442  0.93089579  0.48016204  1
  O2-  O407  1  0.33849269  0.91859729  0.76814660  1
  O2-  O408  1  0.58353327  0.15722467  0.15203627  1
  O2-  O409  1  0.59350693  0.17096153  0.42674848  1
  O2-  O410  1  0.58201998  0.17092729  0.81019409  1
  O2-  O411  1  0.58477555  0.40327804  0.15232142  1
  O2-  O412  1  0.58422718  0.40552416  0.48011937  1
  O2-  O413  1  0.58755852  0.42284593  0.81332523  1
  O2-  O414  1  0.58758937  0.69225538  0.13785780  1
  O2-  O415  1  0.58522235  0.66345101  0.47993780  1
  O2-  O416  1  0.58330926  0.67293564  0.81277798  1
  O2-  O417  1  0.59584358  0.92273904  0.15155539  1
  O2-  O418  1  0.55269702  0.91085434  0.40465854  1
  O2-  O419  1  0.58888386  0.92976970  0.81417704  1
  O2-  O420  1  0.81924621  0.16100450  0.13628231  1
  O2-  O421  1  0.81808093  0.14652891  0.46818529  1
  O2-  O422  1  0.82573304  0.16725946  0.80957493  1
  O2-  O423  1  0.82278835  0.45889263  0.13479864  1
  O2-  O424  1  0.82428840  0.40753819  0.48019386  1
  O2-  O425  1  0.82437919  0.40914385  0.82708954  1
  O2-  O426  1  0.82870584  0.67996651  0.14475575  1
  O2-  O427  1  0.82430808  0.65103164  0.55333205  1
  O2-  O428  1  0.83149085  0.65600671  0.80604509  1
  O2-  O429  1  0.82901232  0.91094640  0.13917956  1
  O2-  O430  1  0.81350533  0.89987120  0.47829330  1
  O2-  O431  1  0.81762473  0.92296202  0.81305295  1
  O2-  O432  1  0.08477336  0.04995816  0.16462493  1
  O2-  O433  1  0.16970673  0.08065082  0.52893295  1
  O2-  O434  1  0.10489842  0.05399762  0.86500326  1
  O2-  O435  1  0.18105481  0.33607793  0.19432256  1
  O2-  O436  1  0.21450946  0.40658118  0.55933335  1
  O2-  O437  1  0.14742921  0.33768073  0.84831073  1
  O2-  O438  1  0.17484144  0.58945763  0.20045381  1
  O2-  O439  1  0.15884830  0.55354145  0.51809073  1
  O2-  O440  1  0.15538104  0.57647951  0.85218448  1
  O2-  O441  1  0.15434877  0.84274596  0.20401042  1
  O2-  O442  1  0.18225221  0.84808299  0.49394886  1
  O2-  O443  1  0.17816455  0.82091253  0.83170311  1
  O2-  O444  1  0.41561681  0.09127088  0.19337153  1
  O2-  O445  1  0.43949246  0.09844660  0.51992595  1
  O2-  O446  1  0.40842571  0.07220091  0.82565540  1
  O2-  O447  1  0.41613596  0.33263765  0.18632277  1
  O2-  O448  1  0.41987668  0.32969562  0.52410075  1
  O2-  O449  1  0.41952756  0.34087498  0.84477331  1
  O2-  O450  1  0.42468016  0.59401255  0.18551610  1
  O2-  O451  1  0.42439665  0.59108892  0.51922944  1
  O2-  O452  1  0.41259143  0.59729539  0.85216718  1
  O2-  O453  1  0.43818805  0.82789866  0.20630588  1
  O2-  O454  1  0.42291333  0.83221805  0.52497631  1
  O2-  O455  1  0.43072607  0.82133059  0.86531597  1
  O2-  O456  1  0.66789984  0.08125133  0.19327978  1
  O2-  O457  1  0.63294029  0.04765147  0.47337651  1
  O2-  O458  1  0.66636616  0.09198508  0.86013169  1
  O2-  O459  1  0.66811664  0.32443236  0.18801631  1
  O2-  O460  1  0.66947483  0.33680252  0.52507655  1
  O2-  O461  1  0.66036970  0.33361499  0.87136805  1
  O2-  O462  1  0.65536839  0.59401350  0.17790468  1
  O2-  O463  1  0.65278906  0.57071680  0.52702238  1
  O2-  O464  1  0.66479210  0.58685971  0.85506539  1
  O2-  O465  1  0.67901477  0.84692227  0.17393320  1
  O2-  O466  1  0.65802223  0.83110649  0.52353077  1
  O2-  O467  1  0.66095946  0.83921132  0.85149987  1
  O2-  O468  1  0.95480367  0.06307045  0.19241770  1
  O2-  O469  1  0.88988885  0.06234564  0.52154026  1
  O2-  O470  1  0.91244895  0.09545630  0.85720104  1
  O2-  O471  1  0.92113631  0.31961305  0.18765462  1
  O2-  O472  1  0.91238302  0.32124633  0.51427620  1
  O2-  O473  1  0.90009331  0.32574499  0.85162679  1
  O2-  O474  1  0.92996037  0.61633149  0.18296098  1
  O2-  O475  1  0.91440139  0.57483398  0.51487171  1
  O2-  O476  1  0.90950912  0.57774347  0.86632840  1
  O2-  O477  1  0.90242520  0.83035754  0.19717649  1
  O2-  O478  1  0.89775939  0.82065047  0.52841790  1
  O2-  O479  1  0.93604325  0.82511646  0.84571349  1
  O2-  O480  1  0.18051692  0.08058185  0.33542087  1
  O2-  O481  1  0.16313742  0.08458580  0.65137778  1
  O2-  O482  1  0.17098060  0.10094811  0.98003271  1
  O2-  O483  1  0.14325842  0.31504380  0.31407862  1
  O2-  O484  1  0.15936091  0.32323289  0.66461746  1
  O2-  O485  1  0.17484562  0.35293239  0.96821090  1
  O2-  O486  1  0.16263084  0.57406294  0.32397006  1
  O2-  O487  1  0.16523868  0.57697708  0.64722428  1
  O2-  O488  1  0.16838812  0.59265934  0.97321417  1
  O2-  O489  1  0.16463591  0.83353472  0.32936791  1
  O2-  O490  1  0.17665619  0.84255987  0.66209630  1
  O2-  O491  1  0.14532684  0.83727127  1.00184814  1
  O2-  O492  1  0.41516939  0.07977676  0.32663219  1
  O2-  O493  1  0.42776393  0.09505788  0.64827210  1
  O2-  O494  1  0.39388078  0.07350097  0.94333286  1
  O2-  O495  1  0.45295575  0.28481569  0.29580983  1
  O2-  O496  1  0.41748231  0.34731426  0.64594414  1
  O2-  O497  1  0.42778202  0.34742541  0.97125985  1
  O2-  O498  1  0.45149247  0.64295195  0.30540577  1
  O2-  O499  1  0.42534154  0.60941563  0.64272185  1
  O2-  O500  1  0.41399249  0.59486343  0.97816095  1
  O2-  O501  1  0.41421476  0.83600799  0.33092320  1
  O2-  O502  1  0.42003546  0.84594571  0.65183287  1
  O2-  O503  1  0.41543466  0.84472953  0.98581094  1
  O2-  O504  1  0.66712883  0.09076320  0.31601526  1
  O2-  O505  1  0.66284282  0.08797688  0.65695097  1
  O2-  O506  1  0.67129020  0.08873484  0.98266062  1
  O2-  O507  1  0.67304807  0.32419296  0.31147576  1
  O2-  O508  1  0.67166382  0.33741884  0.63851430  1
  O2-  O509  1  0.69154637  0.35328348  1.00781465  1
  O2-  O510  1  0.68787340  0.54612857  0.28680559  1
  O2-  O511  1  0.56965005  0.52148099  0.63793586  1
  O2-  O512  1  0.66298527  0.58979438  0.98132531  1
  O2-  O513  1  0.57547956  0.81238743  0.28412886  1
  O2-  O514  1  0.66522456  0.83780060  0.64936119  1
  O2-  O515  1  0.66358220  0.83553750  0.97873704  1
  O2-  O516  1  0.90771490  0.06107119  0.31053927  1
  O2-  O517  1  0.89931314  0.07744564  0.64268273  1
  O2-  O518  1  0.90416504  0.07798422  0.98468514  1
  O2-  O519  1  0.90716531  0.32699688  0.30502889  1
  O2-  O520  1  0.91613895  0.31811689  0.63595344  1
  O2-  O521  1  0.90658797  0.30215034  0.96946664  1
  O2-  O522  1  0.90717277  0.58415066  0.30901395  1
  O2-  O523  1  0.93301662  0.57264386  0.64061953  1
  O2-  O524  1  0.90291131  0.57780146  0.99697567  1
  O2-  O525  1  0.91455287  0.83563842  0.31686504  1
  O2-  O526  1  0.91618117  0.83990404  0.64443053  1
  O2-  O527  1  0.91355039  0.84026242  0.97098556  1
  O2-  O528  1  0.08390559  0.17972302  -0.01604724  1
  O2-  O529  1  0.07200722  0.15124556  0.35620206  1
  O2-  O530  1  0.06426081  0.15042791  0.69075744  1
  O2-  O531  1  0.08048372  0.42921543  0.00174149  1
  O2-  O532  1  0.07013780  0.40612291  0.34615199  1
  O2-  O533  1  0.07889774  0.41481716  0.69466793  1
  O2-  O534  1  0.07422449  0.65765952  0.02370092  1
  O2-  O535  1  0.03324374  0.69278019  0.38305888  1
  O2-  O536  1  0.08852269  0.66579685  0.69125486  1
  O2-  O537  1  0.06563028  0.92687665  0.02257218  1
  O2-  O538  1  0.07765457  0.91802081  0.36159316  1
  O2-  O539  1  0.08751434  0.91542440  0.68614863  1
  O2-  O540  1  0.33940306  0.17985041  0.00598383  1
  O2-  O541  1  0.34160394  0.14749053  0.37293978  1
  O2-  O542  1  0.33625360  0.17330039  0.68298433  1
  O2-  O543  1  0.34201285  0.42865291  0.01893161  1
  O2-  O544  1  0.27644959  0.44814429  0.36854806  1
  O2-  O545  1  0.34984983  0.44496285  0.68429529  1
  O2-  O546  1  0.33086324  0.67488681  0.02302681  1
  O2-  O547  1  0.33242344  0.66735978  0.36109202  1
  O2-  O548  1  0.32914776  0.67578797  0.68286705  1
  O2-  O549  1  0.32263268  0.92422439  0.01142404  1
  O2-  O550  1  0.33480963  0.92128273  0.36003646  1
  O2-  O551  1  0.34033434  0.92979547  0.70148822  1
  O2-  O552  1  0.60821934  0.17698622  0.02659513  1
  O2-  O553  1  0.57815291  0.15867575  0.35985217  1
  O2-  O554  1  0.59236712  0.17658806  0.68965710  1
  O2-  O555  1  0.59025439  0.42249051  0.02229874  1
  O2-  O556  1  0.58527484  0.39686127  0.35754763  1
  O2-  O557  1  0.65332351  0.45595979  0.69522184  1
  O2-  O558  1  0.58126303  0.67299912  0.02016939  1
  O2-  O559  1  0.64108401  0.71487583  0.36159098  1
  O2-  O560  1  0.58523158  0.67117177  0.68841431  1
  O2-  O561  1  0.58418782  0.92284326  0.02412274  1
  O2-  O562  1  0.62585431  0.93841242  0.36258000  1
  O2-  O563  1  0.58620356  0.93232564  0.69273897  1
  O2-  O564  1  0.82014335  0.16229087  0.02549317  1
  O2-  O565  1  0.83062633  0.15846810  0.34633039  1
  O2-  O566  1  0.82133043  0.16079455  0.68347533  1
  O2-  O567  1  0.83622600  0.44087823  0.07002613  1
  O2-  O568  1  0.83452451  0.41445399  0.35521353  1
  O2-  O569  1  0.84549435  0.40364149  0.66910689  1
  O2-  O570  1  0.83039088  0.67459685  0.01659071  1
  O2-  O571  1  0.82468957  0.66238237  0.34942938  1
  O2-  O572  1  0.80721285  0.60039875  0.68301607  1
  O2-  O573  1  0.82902274  0.90933106  0.02075524  1
  O2-  O574  1  0.81284247  0.88880748  0.35724553  1
  O2-  O575  1  0.82940228  0.91590017  0.69047185  1
