# generated using pymatgen
data_H2O
_symmetry_space_group_name_H-M   'P 1'
_cell_length_a   17.98789095
_cell_length_b   17.99008349
_cell_length_c   22.00527268
_cell_angle_alpha   90.00439462
_cell_angle_beta   89.99804528
_cell_angle_gamma   120.00033315
_symmetry_Int_Tables_number   1
_chemical_formula_structural   H2O
_chemical_formula_sum   'H384 O192'
_cell_volume   6166.93473038
_cell_formula_units_Z   192
loop_
 _symmetry_equiv_pos_site_id
 _symmetry_equiv_pos_as_xyz
  1  'x, y, z'
loop_
 _atom_type_symbol
 _atom_type_oxidation_number
  H+  1.0
  O2-  -2.0
loop_
 _atom_site_type_symbol
 _atom_site_label
 _atom_site_symmetry_multiplicity
 _atom_site_fract_x
 _atom_site_fract_y
 _atom_site_fract_z
 _atom_site_occupancy
  H+  H0  1  0.61656735  0.72852083  0.67087516  1
  H+  H1  1  0.37619497  0.40810048  0.84863753  1
  H+  H2  1  0.38097707  1.01437273  0.17014787  1
  H+  H3  1  0.78032928  0.39725007  0.50716384  1
  H+  H4  1  0.85026553  0.12461184  0.99295657  1
  H+  H5  1  0.07212797  0.40672217  0.66432553  1
  H+  H6  1  0.85602553  0.39464621  0.68167288  1
  H+  H7  1  0.12476981  0.34522689  0.98154521  1
  H+  H8  1  0.51595502  0.90718333  0.81782060  1
  H+  H9  1  0.97002745  0.61376705  0.95279850  1
  H+  H10  1  0.11466806  0.48185102  0.18628136  1
  H+  H11  1  0.70929349  0.87702596  0.83535539  1
  H+  H12  1  0.62128099  0.78861562  0.99269762  1
  H+  H13  1  0.63897758  0.02458847  0.16353399  1
  H+  H14  1  0.52828569  0.13867849  0.50096328  1
  H+  H15  1  0.91166679  0.32894703  0.88808770  1
  H+  H16  1  0.75969854  0.62294359  0.33438327  1
  H+  H17  1  0.64747774  0.28007578  0.33234487  1
  H+  H18  1  0.76845312  0.13847816  0.82042448  1
  H+  H19  1  0.64566868  0.36753315  0.32886505  1
  H+  H20  1  0.36579536  0.89245780  0.34621244  1
  H+  H21  1  0.60230445  0.88446729  0.33725920  1
  H+  H22  1  0.37223823  0.14010604  0.33640233  1
  H+  H23  1  0.23660921  0.12702197  0.84429474  1
  H+  H24  1  0.63913409  0.12430610  0.50997295  1
  H+  H25  1  0.22911331  0.86583507  0.53698915  1
  H+  H26  1  0.47601704  0.61008797  0.16631373  1
  H+  H27  1  0.61022182  0.13027609  0.14251571  1
  H+  H28  1  0.77624095  0.65506921  0.50155211  1
  H+  H29  1  0.24439275  0.92130594  0.00961414  1
  H+  H30  1  0.51711336  0.78285277  0.46701541  1
  H+  H31  1  0.91735307  0.08689819  0.22589484  1
  H+  H32  1  0.19241068  0.15407575  0.53603674  1
  H+  H33  1  0.11598095  0.22471348  0.15771972  1
  H+  H34  1  0.16470969  0.86424793  0.92413592  1
  H+  H35  1  0.77908755  0.39771701  0.34914602  1
  H+  H36  1  0.13702825  0.61287947  0.18604860  1
  H+  H37  1  0.36997600  0.01696621  0.85001692  1
  H+  H38  1  0.10846544  0.21250477  0.00019769  1
  H+  H39  1  -0.00395813  0.87807160  0.49606079  1
  H+  H40  1  0.36454626  0.72438375  0.33898029  1
  H+  H41  1  0.86655321  0.26142798  0.98061139  1
  H+  H42  1  0.63150314  0.01420010  0.35171572  1
  H+  H43  1  0.59640408  0.89127869  0.81988630  1
  H+  H44  1  0.36412421  0.46701618  0.34585055  1
  H+  H45  1  0.39033082  0.62034063  0.50933273  1
  H+  H46  1  0.38642090  0.40437627  0.65946466  1
  H+  H47  1  0.86395663  0.97664508  0.15074727  1
  H+  H48  1  0.21631253  0.20069323  0.70651668  1
  H+  H49  1  0.37487941  0.88785728  0.84294778  1
  H+  H50  1  0.83975125  0.90931828  0.84479534  1
  H+  H51  1  0.64744486  0.53326392  0.16543360  1
  H+  H52  1  0.46795693  0.85998675  0.32809303  1
  H+  H53  1  0.77956334  0.13728046  0.14727405  1
  H+  H54  1  0.92662205  0.58769631  0.58830549  1
  H+  H55  1  0.72442862  0.86030877  0.66890418  1
  H+  H56  1  0.61742650  0.38778502  0.15583202  1
  H+  H57  1  0.10485843  0.91673249  0.80664413  1
  H+  H58  1  0.31082576  0.88514432  -0.00075169  1
  H+  H59  1  0.40754346  0.29292466  0.12868388  1
  H+  H60  1  0.47039707  0.35736222  0.65540493  1
  H+  H61  1  0.15162751  0.61864580  0.97779898  1
  H+  H62  1  0.40528064  0.54412245  0.87877029  1
  H+  H63  1  1.03519721  0.88343947  0.33016070  1
  H+  H64  1  0.38389476  0.36451861  0.36046415  1
  H+  H65  1  0.86676833  0.23505423  0.50067905  1
  H+  H66  1  0.77713640  0.13747317  0.34901021  1
  H+  H67  1  0.64213986  0.38434744  0.98159357  1
  H+  H68  1  0.12458844  0.73508257  0.35009101  1
  H+  H69  1  0.52457711  0.40493558  -0.00028174  1
  H+  H70  1  0.38194888  0.73234952  0.67932597  1
  H+  H71  1  0.91732226  0.09703625  0.89141773  1
  H+  H72  1  0.11036832  0.84210408  0.84068615  1
  H+  H73  1  0.52553953  0.71514641  0.37321345  1
  H+  H74  1  0.29737724  0.41131229  0.66154909  1
  H+  H75  1  0.11878941  -0.02152145  0.33087315  1
  H+  H76  1  0.89702422  0.52652130  0.52202044  1
  H+  H77  1  0.17038231  0.59052103  0.24792401  1
  H+  H78  1  0.15764339  0.63452531  0.51637246  1
  H+  H79  1  0.11680732  0.47655242  0.33461361  1
  H+  H80  1  0.39449368  0.02820544  0.32893553  1
  H+  H81  1  0.94815457  0.10175567  0.65065557  1
  H+  H82  1  0.60961034  0.64019049  0.82059272  1
  H+  H83  1  0.11437194  -0.01364675  0.48517815  1
  H+  H84  1  0.60227661  0.12845905  0.67886465  1
  H+  H85  1  0.89575484  0.78077732  0.50486470  1
  H+  H86  1  0.87191878  0.10950310  0.50495471  1
  H+  H87  1  0.65128247  0.83972288  0.89381422  1
  H+  H88  1  0.28464763  0.12945520  0.49358517  1
  H+  H89  1  0.11465968  0.73497620  0.51428628  1
  H+  H90  1  0.17466479  0.38695337  0.66498432  1
  H+  H91  1  0.26866283  0.87959468  0.16233810  1
  H+  H92  1  0.87185760  0.15059761  0.33998140  1
  H+  H93  1  0.37968923  0.51004613  0.16268919  1
  H+  H94  1  0.11020441  0.22114775  0.33987641  1
  H+  H95  1  0.61707707  0.14034782  0.34716895  1
  H+  H96  1  0.86694752  0.88919499  0.15097914  1
  H+  H97  1  0.14769174  0.86741547  0.32889537  1
  H+  H98  1  0.64205457  0.03178956  0.83072896  1
  H+  H99  1  0.90461578  0.84034968  0.82408023  1
  H+  H100  1  0.84925934  0.33235722  0.29326639  1
  H+  H101  1  0.73416980  0.85958715  0.51233133  1
  H+  H102  1  0.60991519  0.72951622  0.81986041  1
  H+  H103  1  0.22543392  0.35417201  0.33297684  1
  H+  H104  1  0.03673038  0.64383941  0.66887956  1
  H+  H105  1  0.16544819  0.54132228  0.66739021  1
  H+  H106  1  0.52804874  0.39417812  0.49192032  1
  H+  H107  1  0.85334572  0.96630933  0.67404875  1
  H+  H108  1  0.83110635  0.66845421  0.09299002  1
  H+  H109  1  0.60507152  0.63600140  0.15281298  1
  H+  H110  1  0.26438915  0.12192777  0.67121611  1
  H+  H111  1  0.14466799  0.04414420  0.85246998  1
  H+  H112  1  0.61852992  0.48310605  0.49670364  1
  H+  H113  1  0.86459159  0.73441416  0.14892758  1
  H+  H114  1  0.10758944  0.13141703  0.33616901  1
  H+  H115  1  0.51988572  0.13364312  0.83325004  1
  H+  H116  1  0.91844019  0.93462987  0.36768497  1
  H+  H117  1  0.60376344  0.45918827  0.80908769  1
  H+  H118  1  0.70959338  0.35394607  0.16570115  1
  H+  H119  1  0.85044413  0.70290228  0.83527611  1
  H+  H120  1  0.85904852  0.22984149  0.81581723  1
  H+  H121  1  0.22954737  0.11406278  0.32088147  1
  H+  H122  1  0.95852533  0.10288953  0.50309820  1
  H+  H123  1  0.38920863  0.27404514  0.50000567  1
  H+  H124  1  0.11144139  0.38590548  0.82256830  1
  H+  H125  1  0.11587983  0.97152884  0.15022975  1
  H+  H126  1  0.97818951  0.11368521  0.16696084  1
  H+  H127  1  0.28494400  0.65083015  0.49920269  1
  H+  H128  1  0.86936056  0.35279983  0.98207138  1
  H+  H129  1  0.39584951  0.12120194  0.00284427  1
  H+  H130  1  0.89810933  0.53314365  0.32616126  1
  H+  H131  1  0.53023400  0.14310918  0.34064193  1
  H+  H132  1  0.59057263  0.08970157  0.00310892  1
  H+  H133  1  0.28985500  0.63861508  0.01217383  1
  H+  H134  1  0.86787097  0.13149493  0.15158725  1
  H+  H135  1  0.40659279  0.78093021  0.00172027  1
  H+  H136  1  0.98187140  0.82737290  0.84112590  1
  H+  H137  1  1.06379805  0.16066940  0.64012516  1
  H+  H138  1  0.88042272  0.61895878  0.16799434  1
  H+  H139  1  0.88466390  0.85056984  0.67540405  1
  H+  H140  1  0.36594758  0.89404900  0.50230558  1
  H+  H141  1  0.29347250  0.64676478  0.68501819  1
  H+  H142  1  0.48931296  0.38383902  0.13285359  1
  H+  H143  1  0.35904518  0.13192803  0.83009383  1
  H+  H144  1  0.97589120  0.11993622  0.32278448  1
  H+  H145  1  0.35256677  0.38045803  -0.00330595  1
  H+  H146  1  0.54740275  0.91636932  0.00184605  1
  H+  H147  1  0.30486823  0.87728185  0.70876463  1
  H+  H148  1  1.06928263  0.36706333  0.51374883  1
  H+  H149  1  0.76402124  0.38812416  -0.00945984  1
  H+  H150  1  0.13928332  0.35906060  0.32426310  1
  H+  H151  1  0.35230119  0.20377583  0.19694160  1
  H+  H152  1  0.28014293  0.89567862  0.34483958  1
  H+  H153  1  0.14333829  0.52693983  -0.01627138  1
  H+  H154  1  0.13487000  0.10901323  0.16601933  1
  H+  H155  1  0.80277514  0.43066215  0.08000563  1
  H+  H156  1  0.52334554  0.63609158  0.50105177  1
  H+  H157  1  0.84997294  0.63251606  -0.01459345  1
  H+  H158  1  0.47537680  0.35570892  0.83694263  1
  H+  H159  1  0.52558540  0.89625202  0.17091139  1
  H+  H160  1  0.17238786  0.01882508  0.98877072  1
  H+  H161  1  0.72644321  0.62677203  0.16659610  1
  H+  H162  1  0.38787318  0.77275389  0.17569234  1
  H+  H163  1  0.38323172  0.36052827  0.50291803  1
  H+  H164  1  0.14686974  0.36400548  0.18169350  1
  H+  H165  1  0.64168393  0.36906594  0.50366736  1
  H+  H166  1  0.07909558  0.10496345  0.48851719  1
  H+  H167  1  0.84646568  0.61387128  0.84377225  1
  H+  H168  1  0.03606650  0.64713746  0.34854584  1
  H+  H169  1  0.47006354  0.60383536  0.32823378  1
  H+  H170  1  0.63837421  0.78610235  0.32300145  1
  H+  H171  1  0.82457702  0.64401673  0.74018370  1
  H+  H172  1  0.60767920  0.37234460  0.81584332  1
  H+  H173  1  0.72266219  0.35997123  0.83691947  1
  H+  H174  1  0.62480653  0.54288910  -0.00497387  1
  H+  H175  1  0.64420756  0.37947770  0.65630186  1
  H+  H176  1  0.32810724  0.16150600  0.77002008  1
  H+  H177  1  0.22960541  0.61573734  0.33747332  1
  H+  H178  1  0.28479736  0.14106992  0.01276623  1
  H+  H179  1  0.74740566  0.91962910  0.34895463  1
  H+  H180  1  0.87048368  0.40595800  0.36483533  1
  H+  H181  1  0.11376970  0.06106019  0.66350598  1
  H+  H182  1  0.37625758  0.13629625  0.49485062  1
  H+  H183  1  0.14206638  0.61931442  0.34084453  1
  H+  H184  1  0.04482040  0.85403771  0.00160821  1
  H+  H185  1  0.89914549  0.36826533  0.51288193  1
  H+  H186  1  0.00564597  0.37556517  -0.01937489  1
  H+  H187  1  0.12876976  0.72604997  0.82568420  1
  H+  H188  1  0.86129332  0.97512921  0.49940052  1
  H+  H189  1  0.88929861  0.61435711  0.66673905  1
  H+  H190  1  0.38719879  0.85776279  0.65304298  1
  H+  H191  1  0.60907831  0.47736875  0.33836919  1
  H+  H192  1  0.26247995  0.86824212  0.64293588  1
  H+  H193  1  0.85674943  0.71244838  0.68528752  1
  H+  H194  1  0.85743185  0.47101627  -0.01447925  1
  H+  H195  1  0.64745635  0.88769041  0.99152339  1
  H+  H196  1  0.63327497  0.61504102  0.31738628  1
  H+  H197  1  0.63854019  0.61258786  0.51097425  1
  H+  H198  1  0.90550801  0.93849765  0.33564714  1
  H+  H199  1  0.86399757  0.39104876  0.82913225  1
  H+  H200  1  -0.02420832  0.36306401  0.83008873  1
  H+  H201  1  0.94374666  0.34800632  0.68092348  1
  H+  H202  1  0.45865588  0.79727711  0.94324915  1
  H+  H203  1  0.42824524  0.87460629  0.89591321  1
  H+  H204  1  0.38495910  0.78002730  0.50863448  1
  H+  H205  1  0.71986948  0.11121821  0.65667609  1
  H+  H206  1  0.82279610  0.15450079  0.05158035  1
  H+  H207  1  -0.02570470  0.10624305  -0.01134034  1
  H+  H208  1  0.13222692  0.76816414  0.17862401  1
  H+  H209  1  0.50419890  0.10920122  1.00084447  1
  H+  H210  1  0.36864211  0.39734885  0.13812266  1
  H+  H211  1  0.88619437  0.12828303  0.83185189  1
  H+  H212  1  0.15723390  0.62631024  0.66507680  1
  H+  H213  1  0.17746497  0.32894651  0.23655269  1
  H+  H214  1  0.37649230  1.02330432  -0.00054908  1
  H+  H215  1  0.37917486  0.60872059  0.16923516  1
  H+  H216  1  0.01151553  0.62911353  0.16435580  1
  H+  H217  1  0.39389878  0.02735227  0.51279400  1
  H+  H218  1  0.39390543  0.50810687  0.66240876  1
  H+  H219  1  0.37409902  0.00953117  0.65851044  1
  H+  H220  1  0.80748359  0.59316792  0.37938609  1
  H+  H221  1  0.71436086  0.59450696  0.83683437  1
  H+  H222  1  0.38409532  0.27163010  0.84155683  1
  H+  H223  1  0.73417403  0.12807365  0.51015800  1
  H+  H224  1  0.88868933  0.24805471  0.16010052  1
  H+  H225  1  0.61730576  0.72244510  0.50227134  1
  H+  H226  1  0.47158052  0.10191317  0.16500092  1
  H+  H227  1  0.63323087  0.26844841  0.83684702  1
  H+  H228  1  0.63922739  0.84901325  0.50998518  1
  H+  H229  1  0.37657230  0.09981415  0.66560655  1
  H+  H230  1  0.22356907  0.10825161  0.16759986  1
  H+  H231  1  0.61477861  0.89551362  0.16800845  1
  H+  H232  1  0.96855360  0.84186514  0.66437325  1
  H+  H233  1  0.02701465  0.14677319  0.82208966  1
  H+  H234  1  0.76342224  0.87689776  0.00104009  1
  H+  H235  1  0.76387414  0.63783881  0.99868938  1
  H+  H236  1  0.90068958  0.87522610  0.50645579  1
  H+  H237  1  0.87263908  0.26419155  0.32111920  1
  H+  H238  1  0.11569419  0.14715750  0.83590448  1
  H+  H239  1  0.89515365  0.75235354  0.31839211  1
  H+  H240  1  0.27765218  0.39046788  0.16003814  1
  H+  H241  1  0.39871829  0.28287802  0.99550114  1
  H+  H242  1  0.50652660  0.85530481  0.49510763  1
  H+  H243  1  0.60387284  0.21537782  0.14770771  1
  H+  H244  1  0.88514160  0.01909983  0.98275821  1
  H+  H245  1  0.83238920  0.48852489  0.14129800  1
  H+  H246  1  0.86918595  0.76205555  0.98746643  1
  H+  H247  1  0.72761461  0.86398623  0.16642724  1
  H+  H248  1  0.84430411  0.12810288  0.66884198  1
  H+  H249  1  0.86258363  0.26132204  0.66336835  1
  H+  H250  1  0.98203495  0.86464032  0.16001197  1
  H+  H251  1  0.48436002  0.36652367  0.35554242  1
  H+  H252  1  0.06203226  0.14610804  0.43028904  1
  H+  H253  1  0.99108677  0.62190706  0.52133798  1
  H+  H254  1  0.42275756  0.64150967  0.87282845  1
  H+  H255  1  0.12455472  0.72957357  0.65267697  1
  H+  H256  1  0.38136441  0.85819865  0.17128404  1
  H+  H257  1  0.59334052  0.42778577  0.40306121  1
  H+  H258  1  0.21575752  0.34750868  0.98645985  1
  H+  H259  1  0.11063389  0.12468579  0.00780878  1
  H+  H260  1  0.36161488  0.63255698  0.33900458  1
  H+  H261  1  0.89217742  0.52635536  0.66788442  1
  H+  H262  1  0.72311619  0.60544057  0.66613110  1
  H+  H263  1  0.36893800  0.13289933  0.16801246  1
  H+  H264  1  1.02848087  0.39008925  0.32766350  1
  H+  H265  1  0.49147509  0.62599028  0.66233712  1
  H+  H266  1  0.11547039  0.72517114  -0.06809221  1
  H+  H267  1  0.60137659  0.47213990  0.66886899  1
  H+  H268  1  0.05050659  0.19101821  0.65374843  1
  H+  H269  1  0.35986103  0.48067058  0.49997021  1
  H+  H270  1  0.39882189  0.75980680  0.83569059  1
  H+  H271  1  0.22827257  0.86487328  0.86942656  1
  H+  H272  1  0.61504144  0.89126113  0.67132003  1
  H+  H273  1  0.45360433  0.61460999  -0.04345584  1
  H+  H274  1  0.10176269  0.67824342  0.76285217  1
  H+  H275  1  0.64251941  0.28008319  0.50764886  1
  H+  H276  1  0.27413007  0.62892354  0.17056412  1
  H+  H277  1  0.14545646  0.28619000  0.83285718  1
  H+  H278  1  0.38839363  0.26658377  0.35430316  1
  H+  H279  1  0.87843482  0.51530665  0.86620746  1
  H+  H280  1  0.29222722  0.41424439  0.84429100  1
  H+  H281  1  0.51166378  0.12192541  0.68229050  1
  H+  H282  1  0.34324918  0.17543777  0.07193885  1
  H+  H283  1  0.87757969  0.04435635  0.32757293  1
  H+  H284  1  0.90067019  0.62101891  0.31787685  1
  H+  H285  1  0.90724692  0.58033318  0.22495564  1
  H+  H286  1  0.19058870  0.30600177  0.66947103  1
  H+  H287  1  -0.01509705  0.35133879  0.17141941  1
  H+  H288  1  0.14833748  0.20897616  0.74836004  1
  H+  H289  1  0.37887876  0.68917936  0.78602028  1
  H+  H290  1  0.64249852  0.11917049  0.83836952  1
  H+  H291  1  0.05909347  0.39295951  0.03910083  1
  H+  H292  1  0.13682996  0.85901355  0.17629187  1
  H+  H293  1  0.63610994  0.77724707  0.16901313  1
  H+  H294  1  0.66541389  0.06122287  0.29104460  1
  H+  H295  1  0.42260884  0.33512289  0.93271438  1
  H+  H296  1  0.08854084  0.86678321  0.71406759  1
  H+  H297  1  0.67014143  0.58479371  0.57070253  1
  H+  H298  1  0.83558734  0.43256986  0.77691751  1
  H+  H299  1  0.86083358  0.85970056  -0.00733966  1
  H+  H300  1  0.48251529  0.86902675  0.65728831  1
  H+  H301  1  0.91826263  0.33215212  0.57206863  1
  H+  H302  1  0.33648972  0.15695532  0.39878779  1
  H+  H303  1  0.09293212  0.72197469  -0.00073495  1
  H+  H304  1  0.14105110  0.60713510  0.83022166  1
  H+  H305  1  0.67052692  0.83401219  0.60703333  1
  H+  H306  1  0.82969663  0.90715699  0.05982662  1
  H+  H307  1  0.56486742  0.88898781  0.40277608  1
  H+  H308  1  0.89919842  0.84111001  0.31831468  1
  H+  H309  1  0.39869233  0.62372774  0.66810520  1
  H+  H310  1  0.88789903  0.06732880  0.59398172  1
  H+  H311  1  0.41374671  0.56927527  0.26776635  1
  H+  H312  1  0.67745146  0.10929632  0.20681698  1
  H+  H313  1  0.34142181  0.67330757  0.43745754  1
  H+  H314  1  0.66124189  0.58614689  0.25703397  1
  H+  H315  1  0.77542678  0.40800053  0.67730911  1
  H+  H316  1  0.91241607  0.31134796  0.22697332  1
  H+  H317  1  0.19386407  0.60675877  0.57263789  1
  H+  H318  1  0.83579474  0.17870899  0.43888282  1
  H+  H319  1  0.16531071  0.33472481  0.89493831  1
  H+  H320  1  0.41809561  0.32768355  0.24167641  1
  H+  H321  1  0.38457358  0.64998488  0.02340611  1
  H+  H322  1  0.42312622  0.08225867  0.26678858  1
  H+  H323  1  0.58588440  0.16886491  0.43986722  1
  H+  H324  1  0.17708205  0.57793035  0.88591481  1
  H+  H325  1  0.66856983  0.08889845  0.57669985  1
  H+  H326  1  0.18579369  0.09237167  0.94274671  1
  H+  H327  1  0.82639313  0.68861102  0.43912755  1
  H+  H328  1  0.63834617  0.61447364  0.66214325  1
  H+  H329  1  0.58214025  0.92621996  0.72717125  1
  H+  H330  1  0.90636907  0.82816201  0.92905288  1
  H+  H331  1  0.32010713  0.91248554  0.10014173  1
  H+  H332  1  0.42199365  0.83818571  0.56870193  1
  H+  H333  1  0.42121381  0.59240303  0.56943964  1
  H+  H334  1  0.66667129  0.84144520  0.26092731  1
  H+  H335  1  0.92246441  0.82978053  0.21874964  1
  H+  H336  1  0.10396166  0.43961261  0.12337614  1
  H+  H337  1  0.17449850  0.83219788  0.27150551  1
  H+  H338  1  0.29393349  0.91869468  0.79666117  1
  H+  H339  1  0.65219461  0.61819830  0.94503451  1
  H+  H340  1  0.58728195  0.66902101  0.73043054  1
  H+  H341  1  0.66191783  0.34026503  0.92623952  1
  H+  H342  1  0.63612075  0.53534048  0.88114188  1
  H+  H343  1  0.34922369  0.21805799  0.66914941  1
  H+  H344  1  0.09390390  0.90073455  0.09673110  1
  H+  H345  1  0.57039528  0.40323453  0.72361999  1
  H+  H346  1  0.63165071  0.01842750  0.65211859  1
  H+  H347  1  0.84072509  0.43641940  0.45012767  1
  H+  H348  1  0.68391691  0.35588091  0.60004269  1
  H+  H349  1  0.42224612  0.08690337  0.57176071  1
  H+  H350  1  0.16919201  0.08340915  0.26128031  1
  H+  H351  1  0.10199696  0.42356820  0.73561707  1
  H+  H352  1  0.12990263  -0.01848199  0.65954760  1
  H+  H353  1  0.69398152  0.45186833  0.11975971  1
  H+  H354  1  0.12057764  0.85948883  0.64627230  1
  H+  H355  1  0.16830404  0.07122013  0.57377547  1
  H+  H356  1  0.40820313  0.83100477  0.26883471  1
  H+  H357  1  0.41100398  0.32930194  0.59607884  1
  H+  H358  1  0.57598353  0.14529574  0.05935344  1
  H+  H359  1  0.32063513  0.41593743  0.05057409  1
  H+  H360  1  0.26705507  0.39477497  0.49847078  1
  H+  H361  1  0.41221786  0.08799487  0.90223033  1
  H+  H362  1  0.76491868  0.98927802  0.39909431  1
  H+  H363  1  0.82792423  0.91867774  0.73812461  1
  H+  H364  1  0.11004480  0.47450858  0.82065612  1
  H+  H365  1  0.08551382  0.92715943  0.42505548  1
  H+  H366  1  0.66424923  0.32002993  0.23029852  1
  H+  H367  1  0.85654199  1.00101829  0.82641765  1
  H+  H368  1  0.56580708  0.66817746  0.09838835  1
  H+  H369  1  0.36980742  0.30279337  0.24499562  1
  H+  H370  1  0.08765738  0.68160275  0.45049082  1
  H+  H371  1  0.33055602  0.41735659  0.41060396  1
  H+  H372  1  0.58021011  0.64556100  0.00831466  1
  H+  H373  1  0.07794762  0.65873024  0.11041452  1
  H+  H374  1  0.57620095  0.15919325  0.77266467  1
  H+  H375  1  0.33225959  0.65922050  0.10835271  1
  H+  H376  1  0.08336205  0.16529430  0.09730615  1
  H+  H377  1  0.59533924  0.43738726  0.05378191  1
  H+  H378  1  0.33115763  0.92268965  0.44591186  1
  H+  H379  1  0.17389061  0.34499413  0.57082140  1
  H+  H380  1  0.81989369  0.16121409  0.73049347  1
  H+  H381  1  0.83169102  0.91749991  0.44117262  1
  H+  H382  1  0.69915820  0.06834247  0.99179131  1
  H+  H383  1  0.57188871  0.67641872  0.41068821  1
  O2-  O384  1  0.08297776  0.16437403  0.14295806  1
  O2-  O385  1  0.05243410  0.13794680  0.47505612  1
  O2-  O386  1  0.08959973  0.17588302  0.81282902  1
  O2-  O387  1  0.08858449  0.42301100  0.16574743  1
  O2-  O388  1  0.13040700  0.40512375  0.52319999  1
  O2-  O389  1  0.07900260  0.41261148  0.80409548  1
  O2-  O390  1  0.07497427  0.65804598  0.15468878  1
  O2-  O391  1  0.08320732  0.67597973  0.49557523  1
  O2-  O392  1  0.09852049  0.66913004  0.80735434  1
  O2-  O393  1  0.08613207  0.90884937  0.14062736  1
  O2-  O394  1  0.07941977  0.92733250  0.47038562  1
  O2-  O395  1  0.07334691  0.85448312  0.81042789  1
  O2-  O396  1  0.34217762  0.17026014  0.15963965  1
  O2-  O397  1  0.34282013  0.16189190  0.47586541  1
  O2-  O398  1  0.32856872  0.16329148  0.81515630  1
  O2-  O399  1  0.33487955  0.42821095  0.13987960  1
  O2-  O400  1  0.32821693  0.42049924  0.48407444  1
  O2-  O401  1  0.35542831  0.44890126  0.84228405  1
  O2-  O402  1  0.33407482  0.65471543  0.15446463  1
  O2-  O403  1  0.34679713  0.67856407  0.48245757  1
  O2-  O404  1  0.39712126  0.70472751  0.82854059  1
  O2-  O405  1  0.32812716  0.91059070  0.14496318  1
  O2-  O406  1  0.33366039  0.92413476  0.49104737  1
  O2-  O407  1  0.31044685  0.91860574  0.83868740  1
  O2-  O408  1  0.57439637  0.15610339  0.12993350  1
  O2-  O409  1  0.58932287  0.16943030  0.48516339  1
  O2-  O410  1  0.58027019  0.16450875  0.81862459  1
  O2-  O411  1  0.63454127  0.43994255  0.13090542  1
  O2-  O412  1  0.58889723  0.42440596  0.47757253  1
  O2-  O413  1  0.57251297  0.39737613  0.79876631  1
  O2-  O414  1  0.57032021  0.66425158  0.14383422  1
  O2-  O415  1  0.58302323  0.66439570  0.48295310  1
  O2-  O416  1  0.58608837  0.67262727  0.80036775  1
  O2-  O417  1  0.58758386  0.93087098  0.16070262  1
  O2-  O418  1  0.55055693  0.84513886  0.47218271  1
  O2-  O419  1  0.57521533  0.92771681  0.80116225  1
  O2-  O420  1  0.84234123  0.16707795  0.13560164  1
  O2-  O421  1  0.83086110  0.17417480  0.48401578  1
  O2-  O422  1  0.83003921  0.16837256  0.80240849  1
  O2-  O423  1  0.78291767  0.43972405  0.12053630  1
  O2-  O424  1  0.84275687  0.43057652  0.49473072  1
  O2-  O425  1  0.83388909  0.42459289  0.82200623  1
  O2-  O426  1  0.82981813  0.67178518  0.13788118  1
  O2-  O427  1  0.83472614  0.69170323  0.48329509  1
  O2-  O428  1  0.81741639  0.64203427  0.82247639  1
  O2-  O429  1  0.83408952  0.91649026  0.13484044  1
  O2-  O430  1  0.83940072  0.91396918  0.48530540  1
  O2-  O431  1  0.82019937  0.93701407  0.81605445  1
  O2-  O432  1  0.16282633  0.07614906  0.18088987  1
  O2-  O433  1  0.17783955  0.09426067  0.53099056  1
  O2-  O434  1  0.17786700  0.10401301  0.86480629  1
  O2-  O435  1  0.17766261  0.33256684  0.19067930  1
  O2-  O436  1  0.16308439  0.34442110  0.52597565  1
  O2-  O437  1  0.17083167  0.34500065  0.85003763  1
  O2-  O438  1  0.16859468  0.58455767  0.20186694  1
  O2-  O439  1  0.19471695  0.61081789  0.52750433  1
  O2-  O440  1  0.16386436  0.56873137  0.84230858  1
  O2-  O441  1  0.16630467  0.82864783  0.19272496  1
  O2-  O442  1  0.16837065  0.83101704  0.55052802  1
  O2-  O443  1  0.16511826  0.82886545  0.88828284  1
  O2-  O444  1  0.41397166  0.07569446  0.18467525  1
  O2-  O445  1  0.42704755  0.08928139  0.52619427  1
  O2-  O446  1  0.40781962  0.08249047  0.85750797  1
  O2-  O447  1  0.42913983  0.35400657  0.12075855  1
  O2-  O448  1  0.41786204  0.33399669  0.51568180  1
  O2-  O449  1  0.41841925  0.33103646  0.85756983  1
  O2-  O450  1  0.41283224  0.57589486  0.18129610  1
  O2-  O451  1  0.41999116  0.58865013  0.52395710  1
  O2-  O452  1  0.43774718  0.60353585  0.89672659  1
  O2-  O453  1  0.41410300  0.83265098  0.19031221  1
  O2-  O454  1  0.41938244  0.84139596  0.52270228  1
  O2-  O455  1  0.41975906  0.86862062  0.85181075  1
  O2-  O456  1  0.67574816  0.09263960  0.16453261  1
  O2-  O457  1  0.67260726  0.09576855  0.52600079  1
  O2-  O458  1  0.67736923  0.09116393  0.84665550  1
  O2-  O459  1  0.65405467  0.31320110  0.18587442  1
  O2-  O460  1  0.67457074  0.34189149  0.51912526  1
  O2-  O461  1  0.66079758  0.33096087  0.84853413  1
  O2-  O462  1  0.66563808  0.59206797  0.18134164  1
  O2-  O463  1  0.67272470  0.58602478  0.52480359  1
  O2-  O464  1  0.64995437  0.56581058  0.84256644  1
  O2-  O465  1  0.66916751  0.83676591  0.18494412  1
  O2-  O466  1  0.67439484  0.82648147  0.52864670  1
  O2-  O467  1  0.64915515  0.83937146  0.84883252  1
  O2-  O468  1  0.91646944  0.08329126  0.18050273  1
  O2-  O469  1  0.89745732  0.07446452  0.51970823  1
  O2-  O470  1  0.91765126  0.09771027  0.84610050  1
  O2-  O471  1  0.92182634  0.31206935  0.18094886  1
  O2-  O472  1  0.92275410  0.33199026  0.52712193  1
  O2-  O473  1  0.91374927  0.33311787  0.84279701  1
  O2-  O474  1  0.90669701  0.58331480  0.17980019  1
  O2-  O475  1  0.92947837  0.58749139  0.53873023  1
  O2-  O476  1  0.90368371  0.57755824  0.87922246  1
  O2-  O477  1  0.92047604  0.83629881  0.17414527  1
  O2-  O478  1  0.93409008  0.84528929  0.51714224  1
  O2-  O479  1  0.92194481  0.81333507  0.85517973  1
  O2-  O480  1  0.16894091  0.08333459  0.30673925  1
  O2-  O481  1  0.15542246  0.04569855  0.64851053  1
  O2-  O482  1  0.18397194  0.07987014  0.98700633  1
  O2-  O483  1  0.16831537  0.32519843  0.31306270  1
  O2-  O484  1  0.20466590  0.35896118  0.64494976  1
  O2-  O485  1  0.15383845  0.31252326  0.97133139  1
  O2-  O486  1  0.16936375  0.58829366  0.32179863  1
  O2-  O487  1  0.19392620  0.60153606  0.65266149  1
  O2-  O488  1  0.18412963  0.58791727  0.97474274  1
  O2-  O489  1  0.17726660  0.83517124  0.31690079  1
  O2-  O490  1  0.17406626  0.82679657  0.61763523  1
  O2-  O491  1  0.16715093  0.91999193  0.98548133  1
  O2-  O492  1  0.42561712  0.08831250  0.31189032  1
  O2-  O493  1  0.40737743  0.07196729  0.64838360  1
  O2-  O494  1  0.41834444  0.08412978  0.98602498  1
  O2-  O495  1  0.41919087  0.33194657  0.36229293  1
  O2-  O496  1  0.40838410  0.33059155  0.64137691  1
  O2-  O497  1  0.42436160  0.34155381  0.97833645  1
  O2-  O498  1  0.41048012  0.56828776  0.31256092  1
  O2-  O499  1  0.42902240  0.59517119  0.64737925  1
  O2-  O500  1  0.46020124  0.62047633  1.00767977  1
  O2-  O501  1  0.40706987  0.82818799  0.31436583  1
  O2-  O502  1  0.42275191  0.83135515  0.64153961  1
  O2-  O503  1  0.44641021  0.82841163  0.97441129  1
  O2-  O504  1  0.66783969  0.07409333  0.33424982  1
  O2-  O505  1  0.66126534  0.08029849  0.63660604  1
  O2-  O506  1  0.63605337  0.03412859  0.98276448  1
  O2-  O507  1  0.67982152  0.34038582  0.31646014  1
  O2-  O508  1  0.68875404  0.36492249  0.64447568  1
  O2-  O509  1  0.66780541  0.34870310  0.97125755  1
  O2-  O510  1  0.66089350  0.58329416  0.30314698  1
  O2-  O511  1  0.66469970  0.57985530  0.64741093  1
  O2-  O512  1  0.65559914  0.60814645  0.98830799  1
  O2-  O513  1  0.66291790  0.84478643  0.30652907  1
  O2-  O514  1  0.66470627  0.83434872  0.65206906  1
  O2-  O515  1  0.66565427  0.84584359  0.97766202  1
  O2-  O516  1  0.91630116  0.09907185  0.30628919  1
  O2-  O517  1  0.88716425  0.06691720  0.64006102  1
  O2-  O518  1  0.91497618  0.08014163  0.97099434  1
  O2-  O519  1  0.89599259  0.31975718  0.29642376  1
  O2-  O520  1  0.89575062  0.32461425  0.65258097  1
  O2-  O521  1  0.89940627  0.32210256  0.96661269  1
  O2-  O522  1  0.92987494  0.58965524  0.30505705  1
  O2-  O523  1  0.92329969  0.58738304  0.65065087  1
  O2-  O524  1  0.90620728  0.57936205  0.94650819  1
  O2-  O525  1  0.92565706  0.81008181  0.30016795  1
  O2-  O526  1  0.90525003  0.81116052  0.66290045  1
  O2-  O527  1  0.89692990  0.82547576  0.97442045  1
  O2-  O528  1  0.07754573  0.15327335  0.01891734  1
  O2-  O529  1  0.07555547  0.15916756  0.35195830  1
  O2-  O530  1  0.19209968  0.23707933  0.71563700  1
  O2-  O531  1  0.06693672  0.40474799  -0.00424199  1
  O2-  O532  1  0.08865152  0.41301677  0.33830784  1
  O2-  O533  1  0.12220130  0.43409838  0.69066377  1
  O2-  O534  1  0.08742763  0.68367808  -0.03416697  1
  O2-  O535  1  0.09301876  0.67602802  0.36838120  1
  O2-  O536  1  0.09875784  0.67642222  0.67879266  1
  O2-  O537  1  0.09347824  0.85565205  0.02305274  1
  O2-  O538  1  0.09242175  0.91927092  0.34876759  1
  O2-  O539  1  0.08729737  0.88355941  0.67177966  1
  O2-  O540  1  0.34627580  0.17459026  0.02741389  1
  O2-  O541  1  0.33960905  0.16732607  0.35360574  1
  O2-  O542  1  0.32196796  0.16044242  0.68894467  1
  O2-  O543  1  0.31287281  0.40198910  0.00722373  1
  O2-  O544  1  0.33505820  0.40891740  0.36517086  1
  O2-  O545  1  0.36153952  0.44131454  0.67448897  1
  O2-  O546  1  0.34457656  0.67173998  0.03514391  1
  O2-  O547  1  0.33640629  0.66527643  0.35725184  1
  O2-  O548  1  0.35507878  0.67410009  0.69801991  1
  O2-  O549  1  0.30417655  0.92698972  0.02336356  1
  O2-  O550  1  0.34039844  0.92741816  0.36074984  1
  O2-  O551  1  0.32124478  0.89748370  0.66718358  1
  O2-  O552  1  0.56956086  0.13125973  0.01375888  1
  O2-  O553  1  0.58949132  0.17418421  0.35859232  1
  O2-  O554  1  0.57046712  0.15241470  0.69936801  1
  O2-  O555  1  0.58747800  0.44421128  0.01001463  1
  O2-  O556  1  0.58539738  0.41973532  0.35730565  1
  O2-  O557  1  0.56987948  0.40928891  0.67818129  1
  O2-  O558  1  0.55240387  0.67847249  0.02293978  1
  O2-  O559  1  0.55974316  0.68726450  0.36713135  1
  O2-  O560  1  0.58683167  0.66688029  0.68374651  1
  O2-  O561  1  0.60823062  0.95265895  0.01603664  1
  O2-  O562  1  0.57204775  0.91013928  0.35966134  1
  O2-  O563  1  0.58560459  0.92467453  0.68116668  1
  O2-  O564  1  0.81335790  0.14800434  0.00721507  1
  O2-  O565  1  0.83900250  0.17722057  0.35832194  1
  O2-  O566  1  0.81618776  0.16037454  0.68398798  1
  O2-  O567  1  0.82606453  0.41494856  0.00627283  1
  O2-  O568  1  0.83811915  0.43623216  0.36704391  1
  O2-  O569  1  0.83565367  0.43321547  0.69655286  1
  O2-  O570  1  0.82693983  0.66520985  0.00716954  1
  O2-  O571  1  0.81650392  0.64270964  0.35523190  1
  O2-  O572  1  0.82733778  0.64882199  0.69518698  1
  O2-  O573  1  0.82602210  0.90115703  0.01365573  1
  O2-  O574  1  0.79277773  0.96383695  0.37593389  1
  O2-  O575  1  0.82819322  0.90885992  0.69369367  1
