# generated using pymatgen
data_H2O
_symmetry_space_group_name_H-M   'P 1'
_cell_length_a   17.97456284
_cell_length_b   17.98318567
_cell_length_c   21.99748577
_cell_angle_alpha   89.97225589
_cell_angle_beta   90.02890859
_cell_angle_gamma   119.97120572
_symmetry_Int_Tables_number   1
_chemical_formula_structural   H2O
_chemical_formula_sum   'H384 O192'
_cell_volume   6159.62834537
_cell_formula_units_Z   192
loop_
 _symmetry_equiv_pos_site_id
 _symmetry_equiv_pos_as_xyz
  1  'x, y, z'
loop_
 _atom_type_symbol
 _atom_type_oxidation_number
  H+  1.0
  O2-  -2.0
loop_
 _atom_site_type_symbol
 _atom_site_label
 _atom_site_symmetry_multiplicity
 _atom_site_fract_x
 _atom_site_fract_y
 _atom_site_fract_z
 _atom_site_occupancy
  H+  H0  1  0.96521894  0.59148197  0.63933657  1
  H+  H1  1  0.87334949  0.85265575  0.33285872  1
  H+  H2  1  0.85251060  0.22311189  0.48556761  1
  H+  H3  1  0.64238079  0.62142127  0.13582999  1
  H+  H4  1  0.15292066  0.27976020  0.83451517  1
  H+  H5  1  0.39716010  0.87714834  0.15767417  1
  H+  H6  1  0.62048759  0.50394343  0.51050419  1
  H+  H7  1  0.10818427  0.77331018  0.19176456  1
  H+  H8  1  0.05470665  1.03433470  0.03020651  1
  H+  H9  1  0.89499086  0.55943960  0.42323649  1
  H+  H10  1  0.88154000  0.50052660  0.64325781  1
  H+  H11  1  0.13456309  0.91422400  0.83861266  1
  H+  H12  1  0.85202340  0.45936820  0.82250802  1
  H+  H13  1  0.28904670  0.35986373  0.00451528  1
  H+  H14  1  0.97000151  0.86772221  0.17951745  1
  H+  H15  1  0.52575487  0.64479650  0.51042870  1
  H+  H16  1  0.09759674  0.89037632  0.34620516  1
  H+  H17  1  0.09369991  0.22526282  0.14803808  1
  H+  H18  1  0.37232804  0.14015704  0.15768447  1
  H+  H19  1  0.05669263  0.65048999  0.14903177  1
  H+  H20  1  0.27197499  0.63598650  0.00790525  1
  H+  H21  1  0.10038068  0.73050730  0.35573287  1
  H+  H22  1  0.59710953  0.14267667  0.78243311  1
  H+  H23  1  0.10542003  0.19871114  0.00496543  1
  H+  H24  1  0.86376041  0.64962880  0.81945186  1
  H+  H25  1  0.61229406  0.39120508  0.67570143  1
  H+  H26  1  0.86577289  0.22360203  0.18019429  1
  H+  H27  1  0.28678806  0.09390468  0.66785642  1
  H+  H28  1  0.63722954  0.87453116  0.99688338  1
  H+  H29  1  0.62333298  0.35305800  0.99526815  1
  H+  H30  1  0.91278655  0.53079110  0.13011920  1
  H+  H31  1  0.38311602  0.78551661  0.52154938  1
  H+  H32  1  0.69402705  0.59554717  0.85164579  1
  H+  H33  1  0.87126266  0.38993388  0.16600304  1
  H+  H34  1  0.24261736  0.13022482  0.49649866  1
  H+  H35  1  0.05687438  0.85809012  0.95555281  1
  H+  H36  1  0.91761012  0.62134431  0.12586254  1
  H+  H37  1  0.10970715  0.99053974  0.16987580  1
  H+  H38  1  0.13382097  0.82984043  0.28412194  1
  H+  H39  1  0.65061049  0.56776718  0.31187263  1
  H+  H40  1  0.96375263  0.85712840  0.33264247  1
  H+  H41  1  0.36221543  0.72679993  0.82007357  1
  H+  H42  1  0.10470645  0.71721041  0.67273231  1
  H+  H43  1  0.39186003  0.26922139  0.17637723  1
  H+  H44  1  0.89011228  0.36239657  0.00276194  1
  H+  H45  1  0.39031360  0.86666243  -0.01123672  1
  H+  H46  1  0.85447774  0.72087890  0.34667031  1
  H+  H47  1  0.79039661  0.52251335  0.86013555  1
  H+  H48  1  0.63352535  0.78512963  -0.00877334  1
  H+  H49  1  0.20872745  0.52006309  0.87794224  1
  H+  H50  1  0.20945483  0.86882607  0.33596807  1
  H+  H51  1  1.00535299  0.12555559  1.00959272  1
  H+  H52  1  0.84528633  0.11289651  0.82685283  1
  H+  H53  1  0.66414919  0.57967728  0.08221871  1
  H+  H54  1  0.85615826  0.87956997  0.16702236  1
  H+  H55  1  0.26354882  0.90014407  0.22989486  1
  H+  H56  1  0.47130724  0.36793024  0.83573324  1
  H+  H57  1  0.37940284  0.51861673  0.83630389  1
  H+  H58  1  0.52588948  0.37905966  0.16203851  1
  H+  H59  1  0.60576893  0.87179962  0.50470749  1
  H+  H60  1  0.61838857  0.72462216  0.67523155  1
  H+  H61  1  0.97373494  0.10470647  0.17891298  1
  H+  H62  1  0.01078900  0.12254205  0.47826779  1
  H+  H63  1  0.11397267  0.36730121  0.17667163  1
  H+  H64  1  0.13240920  0.86480125  0.50963701  1
  H+  H65  1  -0.02238932  0.35711103  0.00520568  1
  H+  H66  1  0.58902669  0.60467472  0.82545748  1
  H+  H67  1  0.48449122  0.88663392  0.66228216  1
  H+  H68  1  0.61211428  0.64181516  0.36734167  1
  H+  H69  1  0.86106003  0.97170792  0.35084480  1
  H+  H70  1  0.38161241  0.13142723  0.33947750  1
  H+  H71  1  0.72053956  0.61771906  0.99184345  1
  H+  H72  1  0.10493661  0.46892833  0.49272836  1
  H+  H73  1  0.00249737  0.59353790  0.82016266  1
  H+  H74  1  0.34658155  0.40620467  0.09875009  1
  H+  H75  1  0.78052344  0.38519761  0.15883289  1
  H+  H76  1  1.01585440  0.63907099  0.36635750  1
  H+  H77  1  0.09221814  0.85335674  0.18897333  1
  H+  H78  1  0.64101402  0.87420521  0.17270695  1
  H+  H79  1  0.10225900  0.45580612  0.82228778  1
  H+  H80  1  0.63231441  0.77770501  0.33292817  1
  H+  H81  1  0.28036242  0.13748299  0.16765515  1
  H+  H82  1  0.35096553  0.15908056  0.76044256  1
  H+  H83  1  0.89418499  0.87835053  0.50922011  1
  H+  H84  1  0.88881385  0.11483519  0.65845716  1
  H+  H85  1  0.78858675  0.64283833  0.13837396  1
  H+  H86  1  0.87313626  0.11051564  1.00773632  1
  H+  H87  1  0.06899141  0.94410597  0.10748781  1
  H+  H88  1  0.63142745  0.27571022  0.83981539  1
  H+  H89  1  0.23659040  0.60203682  0.83953756  1
  H+  H90  1  0.26255415  0.88562043  0.49937726  1
  H+  H91  1  0.36710945  0.62791255  0.15637759  1
  H+  H92  1  0.76704489  0.37627130  0.66847717  1
  H+  H93  1  0.12537113  0.22608320  0.66334135  1
  H+  H94  1  0.12732524  0.98628290  0.49289725  1
  H+  H95  1  0.53323000  0.63254352  0.66970482  1
  H+  H96  1  0.13120316  0.85846003  0.66467761  1
  H+  H97  1  0.90444218  0.57084954  0.54568434  1
  H+  H98  1  0.03766429  0.90824744  0.83386599  1
  H+  H99  1  0.14740676  0.34590280  0.99918959  1
  H+  H100  1  0.78175427  0.37602706  0.32039008  1
  H+  H101  1  0.72172851  0.60424462  0.36250796  1
  H+  H102  1  0.37188254  0.46621818  0.67187550  1
  H+  H103  1  0.39735734  0.00850907  0.84463769  1
  H+  H104  1  0.72436295  0.86445631  0.17577186  1
  H+  H105  1  0.89402780  0.36269903  0.29394372  1
  H+  H106  1  0.20025995  0.59233133  0.67820046  1
  H+  H107  1  0.66097851  0.63212015  0.66718900  1
  H+  H108  1  0.39152593  0.59948547  0.32348201  1
  H+  H109  1  0.96059279  0.60107620  0.98079146  1
  H+  H110  1  0.70515955  0.12373134  0.49409278  1
  H+  H111  1  0.62102429  0.12310112  -0.00264390  1
  H+  H112  1  0.36767262  0.39188969  0.82740950  1
  H+  H113  1  0.49929192  0.61582361  0.82102952  1
  H+  H114  1  0.02127006  0.12722184  0.37246950  1
  H+  H115  1  0.52088387  0.13455573  0.00466697  1
  H+  H116  1  0.38419525  0.28155653  0.82760463  1
  H+  H117  1  0.33962363  0.09962928  0.51886191  1
  H+  H118  1  0.36355041  0.38942699  0.49596463  1
  H+  H119  1  0.61777257  0.89970950  0.34053716  1
  H+  H120  1  0.16940379  0.33920632  0.56599866  1
  H+  H121  1  0.85533537  0.36626262  0.47934092  1
  H+  H122  1  0.11049512  0.17597917  0.74892848  1
  H+  H123  1  0.51986696  0.13117790  0.82466972  1
  H+  H124  1  0.22257154  0.58571427  0.16684026  1
  H+  H125  1  0.64486481  0.35725983  0.31174071  1
  H+  H126  1  0.52638387  0.64309433  0.15468370  1
  H+  H127  1  0.60589077  0.97453655  0.82965431  1
  H+  H128  1  0.13356844  1.01304962  0.83092326  1
  H+  H129  1  0.22809170  0.37321550  0.50714724  1
  H+  H130  1  0.40600948  0.61493363  0.66044390  1
  H+  H131  1  0.80887968  0.69171062  0.79762727  1
  H+  H132  1  0.39732984  0.52279430  0.16663336  1
  H+  H133  1  0.76918214  0.38022152  1.00963831  1
  H+  H134  1  0.29163806  0.38731448  0.16106193  1
  H+  H135  1  0.25773949  0.93473630  0.21487523  1
  H+  H136  1  0.39015788  0.12321526  1.00209103  1
  H+  H137  1  0.31435979  0.66211354  0.64273139  1
  H+  H138  1  0.64683348  0.38689865  0.50443377  1
  H+  H139  1  0.14655787  0.84407038  1.00418112  1
  H+  H140  1  0.49611506  0.16556423  0.66082507  1
  H+  H141  1  0.10718682  0.37104795  0.82558524  1
  H+  H142  1  0.77176565  0.65489137  0.66088633  1
  H+  H143  1  0.36821207  0.91516322  0.67223266  1
  H+  H144  1  0.64704251  0.35618391  0.16479087  1
  H+  H145  1  0.72904973  0.85737025  0.79962215  1
  H+  H146  1  0.89897233  0.79114608  0.51142464  1
  H+  H147  1  0.87405647  0.73078843  0.15369997  1
  H+  H148  1  0.12058107  0.60354027  0.66136640  1
  H+  H149  1  0.72552550  0.10229612  0.84461448  1
  H+  H150  1  0.23057286  0.36166929  0.66244216  1
  H+  H151  1  0.89925137  0.13983822  0.49954526  1
  H+  H152  1  0.35504671  0.70940687  0.16253523  1
  H+  H153  1  0.61301371  0.22591881  0.33082960  1
  H+  H154  1  0.96604713  0.35170073  0.84492436  1
  H+  H155  1  0.64127129  0.77315556  0.54778189  1
  H+  H156  1  0.37772959  0.09656824  0.58177647  1
  H+  H157  1  0.15631022  0.57400730  0.56872691  1
  H+  H158  1  0.62433841  0.03876526  0.65199765  1
  H+  H159  1  0.61290313  0.73580834  0.15382239  1
  H+  H160  1  0.03604621  0.82258663  -0.02148040  1
  H+  H161  1  0.34335867  0.23158946  0.34116260  1
  H+  H162  1  0.59682562  0.16183831  0.49093260  1
  H+  H163  1  0.12713161  0.61036911  0.51156917  1
  H+  H164  1  0.77570631  0.14223467  0.32909663  1
  H+  H165  1  0.61525350  0.12270260  0.65346696  1
  H+  H166  1  0.09923496  0.70311178  0.01128757  1
  H+  H167  1  0.86328725  0.22992073  0.01925452  1
  H+  H168  1  0.21186713  0.11624284  0.33107957  1
  H+  H169  1  0.35769720  0.88043329  0.82127211  1
  H+  H170  1  0.86951959  0.01793656  1.00668804  1
  H+  H171  1  0.11652563  0.46056619  0.02040970  1
  H+  H172  1  0.04574605  0.15877189  0.80094002  1
  H+  H173  1  0.38565120  0.74918538  0.66974518  1
  H+  H174  1  0.18502957  0.08902193  0.89433148  1
  H+  H175  1  0.14973264  0.03350936  0.98230871  1
  H+  H176  1  0.38318557  0.61235531  0.83126654  1
  H+  H177  1  0.18933290  0.73726499  0.79987124  1
  H+  H178  1  0.14707386  0.12303948  0.83409358  1
  H+  H179  1  0.87777572  0.51198204  0.35930588  1
  H+  H180  1  0.21821206  0.59001246  0.31790579  1
  H+  H181  1  0.87400939  0.56742199  0.90034887  1
  H+  H182  1  0.62628001  0.02211925  1.00187643  1
  H+  H183  1  0.98130366  0.35591109  0.19771671  1
  H+  H184  1  0.64047978  0.84980410  0.81229182  1
  H+  H185  1  0.03007332  0.89956297  0.67134092  1
  H+  H186  1  0.83563261  0.38800908  0.38047381  1
  H+  H187  1  0.34279416  0.99041091  0.67961564  1
  H+  H188  1  0.97924893  0.11571230  0.65655736  1
  H+  H189  1  0.93318253  0.85753222  0.59479660  1
  H+  H190  1  0.61390881  0.22579193  -0.00033080  1
  H+  H191  1  0.88455496  0.78780210  0.98732567  1
  H+  H192  1  0.24785792  0.11008607  0.98235262  1
  H+  H193  1  0.76862166  0.88718618  0.34652122  1
  H+  H194  1  0.38442004  0.62727283  0.98789774  1
  H+  H195  1  0.18392407  0.27487347  0.21016250  1
  H+  H196  1  0.63519977  0.11926348  0.32933121  1
  H+  H197  1  0.51946542  0.38120508  0.67813660  1
  H+  H198  1  0.14551806  0.12164417  0.17806593  1
  H+  H199  1  0.62252763  -0.00162262  0.16247975  1
  H+  H200  1  0.35485579  0.23240483  0.01697152  1
  H+  H201  1  0.64896076  0.63595240  0.52030079  1
  H+  H202  1  0.46488839  0.36044339  0.32830500  1
  H+  H203  1  0.85409152  0.63143360  0.36521447  1
  H+  H204  1  0.96258162  0.10423030  0.86841183  1
  H+  H205  1  0.83524000  0.92292873  0.72156123  1
  H+  H206  1  0.61196968  0.38595088  0.82794455  1
  H+  H207  1  0.90718310  0.82457207  0.23672391  1
  H+  H208  1  0.11182517  0.45395409  0.16716554  1
  H+  H209  1  0.36332350  0.37337839  0.67547020  1
  H+  H210  1  0.87697529  0.34741643  0.65778203  1
  H+  H211  1  0.89676467  0.88265439  0.65435575  1
  H+  H212  1  0.47035929  0.85965433  0.83356286  1
  H+  H213  1  0.67071398  0.34874540  0.59415215  1
  H+  H214  1  0.87183103  0.51453107  0.99024313  1
  H+  H215  1  0.14650040  0.11333615  0.49133221  1
  H+  H216  1  0.61262637  0.46826858  0.14768843  1
  H+  H217  1  0.91472542  0.33324103  0.90734138  1
  H+  H218  1  0.15335642  0.73915171  0.81576800  1
  H+  H219  1  0.76316976  0.88837069  0.01285686  1
  H+  H220  1  0.38608349  0.61231073  0.50939816  1
  H+  H221  1  0.35595081  0.69236823  0.34566047  1
  H+  H222  1  0.88244520  0.75973050  0.65860073  1
  H+  H223  1  0.63281020  0.89285946  0.66415618  1
  H+  H224  1  0.52550760  0.63803779  0.35009718  1
  H+  H225  1  0.46882347  0.37295016  0.51331971  1
  H+  H226  1  0.28678501  0.14354737  0.81382074  1
  H+  H227  1  0.82453538  0.91262009  0.07308360  1
  H+  H228  1  0.60125377  0.63928999  0.00281335  1
  H+  H229  1  0.09771873  0.45863351  0.67237871  1
  H+  H230  1  -0.02089406  0.62653032  0.49983545  1
  H+  H231  1  0.86762293  0.22516952  0.31870393  1
  H+  H232  1  0.86372417  -0.01733012  0.66224043  1
  H+  H233  1  0.52140361  0.89515636  0.00848300  1
  H+  H234  1  0.85465805  0.21699583  0.67307188  1
  H+  H235  1  0.16825436  0.08941498  0.24060734  1
  H+  H236  1  0.13797050  0.35699540  0.66197138  1
  H+  H237  1  0.08347322  0.58398243  0.81686171  1
  H+  H238  1  0.11357744  0.38402462  0.49686223  1
  H+  H239  1  0.63780800  0.12725856  0.17243088  1
  H+  H240  1  0.24258668  0.89656392  0.84675983  1
  H+  H241  1  0.12599510  0.59762154  0.00275515  1
  H+  H242  1  0.21922661  0.85872684  0.66381459  1
  H+  H243  1  0.23716257  0.85165274  1.00102038  1
  H+  H244  1  0.85571553  0.63930913  -0.00535436  1
  H+  H245  1  0.61055883  0.45611288  0.35880387  1
  H+  H246  1  0.64790130  0.12134278  0.85677344  1
  H+  H247  1  0.40401803  0.26164246  0.64941180  1
  H+  H248  1  0.36716472  -0.01943103  1.00963440  1
  H+  H249  1  0.39743859  0.36137881  0.17274796  1
  H+  H250  1  0.73431616  0.86090251  0.64434073  1
  H+  H251  1  0.33161391  0.92225416  0.76519654  1
  H+  H252  1  0.61307822  0.49947589  0.84128753  1
  H+  H253  1  0.59674656  0.46503998  0.00933477  1
  H+  H254  1  0.41736844  1.04010483  0.15939053  1
  H+  H255  1  0.87885760  0.89879609  0.81823186  1
  H+  H256  1  0.23558756  0.37144544  0.84039518  1
  H+  H257  1  0.48274155  0.62888713  0.98827822  1
  H+  H258  1  0.05919056  0.36090796  0.34355370  1
  H+  H259  1  0.77213753  0.37618675  0.47543775  1
  H+  H260  1  0.13580281  0.50080129  0.31989928  1
  H+  H261  1  0.49901197  0.89691816  0.33702795  1
  H+  H262  1  0.15874087  0.83254855  0.57052222  1
  H+  H263  1  0.11528076  0.72742311  0.50359592  1
  H+  H264  1  0.86948126  0.65296054  0.49933948  1
  H+  H265  1  0.38311085  0.27539755  0.50160024  1
  H+  H266  1  0.12336880  1.02721521  0.32667362  1
  H+  H267  1  0.14802434  0.02651043  0.65075502  1
  H+  H268  1  0.96581877  0.34599180  0.65820467  1
  H+  H269  1  0.37918497  0.04272540  0.34134581  1
  H+  H270  1  0.89121464  0.11065066  0.33283505  1
  H+  H271  1  0.53684379  0.90583236  0.16459542  1
  H+  H272  1  -0.02728385  0.35304119  0.50378483  1
  H+  H273  1  0.24929713  0.62754075  0.49567124  1
  H+  H274  1  0.86325148  -0.02251367  0.82474436  1
  H+  H275  1  0.86020036  -0.02921063  0.16828018  1
  H+  H276  1  0.85813655  0.37388850  0.83130324  1
  H+  H277  1  0.91550100  0.79818963  0.83795956  1
  H+  H278  1  0.38944136  0.77719045  0.99087546  1
  H+  H279  1  0.62438970  0.99315613  0.34296892  1
  H+  H280  1  0.77800809  0.88659531  0.51141250  1
  H+  H281  1  0.72491800  0.11633151  0.18138536  1
  H+  H282  1  0.44812776  0.37443613  0.00780514  1
  H+  H283  1  0.40365637  0.82626129  0.35442542  1
  H+  H284  1  0.57990964  0.88747655  0.44051678  1
  H+  H285  1  0.36109369  0.91412130  0.34613836  1
  H+  H286  1  0.62884089  0.28237889  0.64897521  1
  H+  H287  1  0.08478968  0.39476326  0.07598881  1
  H+  H288  1  0.07093449  0.92472829  0.40274871  1
  H+  H289  1  0.58981675  0.69054187  0.45667893  1
  H+  H290  1  0.58159976  0.41451895  0.76544494  1
  H+  H291  1  0.16320471  0.57236444  0.94593959  1
  H+  H292  1  0.82383455  0.91069246  0.44579550  1
  H+  H293  1  0.67516407  0.32754141  0.25190734  1
  H+  H294  1  0.69100584  0.60849438  0.60286548  1
  H+  H295  1  0.33519874  0.66967024  0.75927615  1
  H+  H296  1  0.55662584  0.18657854  0.71797954  1
  H+  H297  1  0.61532549  0.54838541  0.23550879  1
  H+  H298  1  0.57455215  0.65180541  0.76087736  1
  H+  H299  1  0.12976374  0.13818561  0.66198804  1
  H+  H300  1  0.41574560  0.08626055  0.94319241  1
  H+  H301  1  0.63154685  0.29114303  0.49985129  1
  H+  H302  1  0.83880447  0.17157670  0.11742000  1
  H+  H303  1  0.58416315  0.92148173  0.76778417  1
  H+  H304  1  0.41246663  0.33530934  0.26613209  1
  H+  H305  1  0.16322835  0.55885021  0.22671448  1
  H+  H306  1  0.66205989  0.08907496  0.26824578  1
  H+  H307  1  0.18571817  0.08949106  0.59307740  1
  H+  H308  1  0.07081662  0.39655247  0.73024384  1
  H+  H309  1  0.57549673  0.19188312  0.43029074  1
  H+  H310  1  0.81284220  0.13961074  0.76574725  1
  H+  H311  1  0.92660391  0.85303301  0.89929457  1
  H+  H312  1  0.89046493  0.06934808  0.91630938  1
  H+  H313  1  0.50172147  0.13213427  0.16040590  1
  H+  H314  1  0.29775082  0.70888612  0.45448313  1
  H+  H315  1  0.72500780  0.35723273  0.84064912  1
  H+  H316  1  0.89782616  0.55389299  0.24386020  1
  H+  H317  1  0.33263222  0.16858925  0.07309411  1
  H+  H318  1  0.06193074  0.64024391  0.72328590  1
  H+  H319  1  0.92734785  0.07721018  0.28105229  1
  H+  H320  1  0.91017652  0.32149075  0.56202635  1
  H+  H321  1  0.56812614  0.40173935  0.06621321  1
  H+  H322  1  0.09121744  0.92949701  0.73035999  1
  H+  H323  1  0.64743913  0.26300929  0.16543585  1
  H+  H324  1  0.32358217  0.92765494  0.40817894  1
  H+  H325  1  0.33136381  0.41789737  0.43586989  1
  H+  H326  1  0.93322261  0.11348118  0.55824652  1
  H+  H327  1  0.60506533  0.17318752  0.10554293  1
  H+  H328  1  0.31913658  0.63136505  0.40186481  1
  H+  H329  1  0.17395716  0.32129027  0.93697222  1
  H+  H330  1  0.41224617  0.82832975  0.89350136  1
  H+  H331  1  0.57623199  0.46318094  0.44944890  1
  H+  H332  1  0.03302646  0.90252462  0.49794910  1
  H+  H333  1  0.07270205  0.15553206  0.09768782  1
  H+  H334  1  0.36974176  0.86830904  0.51866839  1
  H+  H335  1  0.09878835  0.40723076  0.40649569  1
  H+  H336  1  0.68620934  0.97597623  0.70048439  1
  H+  H337  1  0.88670270  0.10642485  0.18572874  1
  H+  H338  1  0.66124690  0.83266356  0.27077372  1
  H+  H339  1  0.65396328  0.54195906  0.23618095  1
  H+  H340  1  0.47303729  0.02995926  0.88891910  1
  H+  H341  1  0.94326457  0.56317081  0.24725283  1
  H+  H342  1  0.21456959  0.35514179  0.25060732  1
  H+  H343  1  0.35168187  0.91590818  0.06454214  1
  H+  H344  1  0.31984327  0.89261989  0.16511523  1
  H+  H345  1  0.83290388  0.68389937  0.44531313  1
  H+  H346  1  0.19827440  0.38740712  0.34711205  1
  H+  H347  1  0.42418076  0.57955671  0.22757644  1
  H+  H348  1  0.40464627  0.19214463  0.46821890  1
  H+  H349  1  0.82563278  0.39944193  0.72839668  1
  H+  H350  1  0.33635539  0.42114715  0.76786949  1
  H+  H351  1  0.41485329  0.85004936  0.60821113  1
  H+  H352  1  0.77206723  0.14369994  0.02264169  1
  H+  H353  1  0.57063568  0.67272948  0.06029707  1
  H+  H354  1  0.18227437  0.85886017  0.90673674  1
  H+  H355  1  0.66634544  0.08285920  0.93982984  1
  H+  H356  1  0.76271489  0.13530614  0.66932803  1
  H+  H357  1  0.34881126  0.38110450  0.33540468  1
  H+  H358  1  0.51864209  0.14403908  0.34110393  1
  H+  H359  1  0.03428180  0.63085888  0.05724873  1
  H+  H360  1  0.57329867  0.36541705  0.39259308  1
  H+  H361  1  0.83968099  0.67825480  0.05447253  1
  H+  H362  1  0.32503759  0.18297758  0.40518691  1
  H+  H363  1  0.00906517  0.93602193  0.00992195  1
  H+  H364  1  0.39254125  0.51441716  0.31896401  1
  H+  H365  1  0.47249014  0.79051191  0.21268982  1
  H+  H366  1  0.83275480  0.41234702  0.06716873  1
  H+  H367  1  0.87219660  0.86978751  0.99175508  1
  H+  H368  1  0.58142075  0.93020445  0.06984905  1
  H+  H369  1  0.43062848  0.83309054  0.25171969  1
  H+  H370  1  0.38620259  0.52315742  0.50500228  1
  H+  H371  1  0.42546209  0.57956217  0.60038326  1
  H+  H372  1  0.33808640  0.66610515  0.06347604  1
  H+  H373  1  0.65256801  0.10286170  0.55466959  1
  H+  H374  1  0.41217136  0.32819720  0.59913211  1
  H+  H375  1  0.08813845  0.67074386  0.44192462  1
  H+  H376  1  0.34380884  0.97645103  0.50752660  1
  H+  H377  1  0.41651282  0.59510604  0.92409650  1
  H+  H378  1  0.86608357  0.69419853  0.71442828  1
  H+  H379  1  0.14196831  0.65362430  0.16647772  1
  H+  H380  1  0.66041045  0.33077349  0.93579587  1
  H+  H381  1  0.74052365  0.63666359  0.51558112  1
  H+  H382  1  0.82711371  0.16727599  0.42528249  1
  H+  H383  1  0.64558380  0.57230162  0.94198281  1
  O2-  O384  1  0.07720265  0.16503979  0.14333447  1
  O2-  O385  1  0.05002534  0.10701767  0.45361361  1
  O2-  O386  1  0.10677319  0.17909524  0.79581214  1
  O2-  O387  1  0.07848874  0.38956501  0.15906699  1
  O2-  O388  1  0.07909361  0.40929979  0.47729648  1
  O2-  O389  1  0.07191056  0.39547638  0.80888945  1
  O2-  O390  1  0.11964701  0.69012861  0.15079234  1
  O2-  O391  1  0.08712139  0.66679335  0.48875619  1
  O2-  O392  1  0.03583812  0.57932838  0.79252536  1
  O2-  O393  1  0.07128000  0.93242309  0.15119845  1
  O2-  O394  1  0.09199700  0.92464485  0.48072150  1
  O2-  O395  1  0.09875094  0.93937400  0.81723031  1
  O2-  O396  1  0.33856549  0.17022720  0.14862384  1
  O2-  O397  1  0.35275172  0.19578121  0.47450553  1
  O2-  O398  1  0.34743588  0.17789693  0.80196516  1
  O2-  O399  1  0.35050540  0.41783048  0.14347287  1
  O2-  O400  1  0.33733845  0.42504212  0.48038208  1
  O2-  O401  1  0.33732670  0.42572608  0.81332344  1
  O2-  O402  1  0.33371256  0.65515460  0.14020274  1
  O2-  O403  1  0.30708032  0.66551002  0.47410894  1
  O2-  O404  1  0.33340808  0.66578843  0.80424915  1
  O2-  O405  1  0.37090991  0.90895956  0.14029615  1
  O2-  O406  1  0.32443957  0.91989913  0.48659607  1
  O2-  O407  1  0.33472808  0.91932364  0.81077789  1
  O2-  O408  1  0.60401468  0.17599249  0.14977345  1
  O2-  O409  1  0.57262305  0.19756659  0.47511081  1
  O2-  O410  1  0.57392460  0.17446918  0.80331279  1
  O2-  O411  1  0.58290901  0.40568762  0.14055339  1
  O2-  O412  1  0.58534575  0.44681514  0.48976795  1
  O2-  O413  1  0.58288424  0.41729301  0.81284316  1
  O2-  O414  1  0.58394522  0.67720388  0.13473348  1
  O2-  O415  1  0.58830791  0.68059482  0.50113669  1
  O2-  O416  1  0.56134706  0.63670569  0.80618743  1
  O2-  O417  1  0.59335266  0.93605176  0.14491028  1
  O2-  O418  1  0.56248483  0.84443327  0.47297549  1
  O2-  O419  1  0.57219981  0.91635029  0.81187875  1
  O2-  O420  1  0.83759229  0.16508951  0.16243779  1
  O2-  O421  1  0.82054441  0.16271024  0.47001752  1
  O2-  O422  1  0.80521897  0.13050680  0.81053398  1
  O2-  O423  1  0.84232858  0.41581187  0.14354012  1
  O2-  O424  1  0.82593542  0.38969457  0.45411824  1
  O2-  O425  1  0.82353919  0.39843460  0.81113892  1
  O2-  O426  1  0.85117946  0.67579868  0.13026447  1
  O2-  O427  1  0.83752060  0.68561281  0.49072474  1
  O2-  O428  1  0.86689887  0.70036537  0.79766359  1
  O2-  O429  1  0.82691065  0.91111130  0.15135544  1
  O2-  O430  1  0.83363900  0.91407842  0.49045534  1
  O2-  O431  1  0.84705848  0.92543217  0.80015376  1
  O2-  O432  1  0.17451779  0.09126057  0.19354422  1
  O2-  O433  1  0.18314649  0.09489220  0.51280694  1
  O2-  O434  1  0.17464163  0.08904686  0.84687882  1
  O2-  O435  1  0.19789712  0.33471820  0.20743209  1
  O2-  O436  1  0.16779638  0.34491371  0.52131606  1
  O2-  O437  1  0.17433806  0.33620409  0.85485006  1
  O2-  O438  1  0.16209147  0.55690847  0.18043736  1
  O2-  O439  1  0.15696865  0.57675852  0.52376648  1
  O2-  O440  1  0.18675030  0.55686757  0.86348951  1
  O2-  O441  1  0.09138367  0.80901888  0.21588288  1
  O2-  O442  1  0.16047324  0.83209416  0.52523433  1
  O2-  O443  1  0.19070524  0.89005786  0.86809320  1
  O2-  O444  1  0.43646724  0.10097649  0.16311209  1
  O2-  O445  1  0.34859354  0.06038650  0.54521372  1
  O2-  O446  1  0.44344706  0.05714699  0.87007801  1
  O2-  O447  1  0.42507081  0.33058226  0.19148404  1
  O2-  O448  1  0.40734633  0.33860989  0.52350417  1
  O2-  O449  1  0.40947532  0.34023513  0.84560244  1
  O2-  O450  1  0.42340124  0.58322327  0.18207705  1
  O2-  O451  1  0.41629481  0.58303030  0.52376465  1
  O2-  O452  1  0.41192368  0.58238722  0.85037664  1
  O2-  O453  1  0.43563914  0.81585123  0.20867575  1
  O2-  O454  1  0.39697417  0.83937540  0.54147156  1
  O2-  O455  1  0.40896337  0.82631906  0.84815479  1
  O2-  O456  1  0.66265959  0.08693485  0.19091255  1
  O2-  O457  1  0.64669714  0.10340004  0.51022262  1
  O2-  O458  1  0.66651886  0.08041903  0.86747970  1
  O2-  O459  1  0.68105575  0.33025912  0.17940122  1
  O2-  O460  1  0.67233425  0.35172235  0.51633487  1
  O2-  O461  1  0.66506410  0.33406008  0.85747553  1
  O2-  O462  1  0.67122373  0.58764617  0.12618731  1
  O2-  O463  1  0.68024299  0.60561543  0.53382935  1
  O2-  O464  1  0.63327877  0.56085268  0.86162235  1
  O2-  O465  1  0.66208014  0.83592388  0.18818835  1
  O2-  O466  1  0.67939668  0.83297732  0.56372377  1
  O2-  O467  1  0.66768420  0.82345768  0.78907569  1
  O2-  O468  1  0.91569942  0.07343758  0.19752623  1
  O2-  O469  1  0.95036652  0.14102112  0.51806312  1
  O2-  O470  1  0.90022472  0.07128005  0.87067084  1
  O2-  O471  1  0.91991844  0.33337373  0.21110555  1
  O2-  O472  1  0.91131270  0.32333555  0.51676318  1
  O2-  O473  1  0.90901949  0.33367884  0.86259851  1
  O2-  O474  1  0.95078365  0.59181871  0.11877162  1
  O2-  O475  1  0.91504575  0.59642060  0.50376554  1
  O2-  O476  1  0.85227442  0.56113648  0.85654670  1
  O2-  O477  1  0.90854117  0.82822881  0.19122431  1
  O2-  O478  1  0.93073942  0.85289608  0.52406316  1
  O2-  O479  1  0.93878903  0.85734977  0.85407867  1
  O2-  O480  1  0.15579157  0.08585403  0.30909112  1
  O2-  O481  1  0.18574193  0.08750645  0.63854511  1
  O2-  O482  1  0.19990253  0.06922697  0.95562705  1
  O2-  O483  1  0.23353468  0.36558251  0.32594920  1
  O2-  O484  1  0.17074735  0.32961440  0.64636346  1
  O2-  O485  1  0.17529181  0.31486675  0.98187610  1
  O2-  O486  1  0.16088890  0.55749495  0.29965620  1
  O2-  O487  1  0.15100895  0.56961073  0.65095898  1
  O2-  O488  1  0.16469639  0.57475375  0.99077554  1
  O2-  O489  1  0.14651503  0.83554551  0.32911820  1
  O2-  O490  1  0.15829854  0.82460207  0.65052329  1
  O2-  O491  1  0.17636091  0.81640065  0.98648709  1
  O2-  O492  1  0.41514313  0.10302183  0.32829132  1
  O2-  O493  1  0.40723545  0.15965370  0.64554591  1
  O2-  O494  1  0.41897660  0.09013367  0.98813506  1
  O2-  O495  1  0.40684620  0.34001374  0.31136830  1
  O2-  O496  1  0.41492911  0.32137843  0.64451994  1
  O2-  O497  1  0.38581574  0.34023378  0.99732537  1
  O2-  O498  1  0.42680032  0.57584585  0.30634686  1
  O2-  O499  1  0.43199898  0.58105869  0.64586059  1
  O2-  O500  1  0.41932773  0.60050740  0.97029056  1
  O2-  O501  1  0.43482912  0.86843074  0.32284707  1
  O2-  O502  1  0.42267509  0.85315842  0.65512745  1
  O2-  O503  1  0.42127123  0.83649024  0.97407310  1
  O2-  O504  1  0.66786612  0.09103135  0.31378388  1
  O2-  O505  1  0.65344080  0.09992067  0.64133893  1
  O2-  O506  1  0.65906068  0.08525489  0.98582482  1
  O2-  O507  1  0.67563943  0.32773563  0.29828791  1
  O2-  O508  1  0.66812137  0.34434732  0.63984871  1
  O2-  O509  1  0.65713935  0.32577486  0.98129877  1
  O2-  O510  1  0.65680538  0.56728244  0.35622450  1
  O2-  O511  1  0.69990495  0.61281064  0.64933584  1
  O2-  O512  1  0.65619067  0.58444324  0.98633925  1
  O2-  O513  1  0.66206280  0.83694711  0.31590322  1
  O2-  O514  1  0.67190831  0.82638807  0.63064599  1
  O2-  O515  1  0.66939159  0.84675510  0.98212668  1
  O2-  O516  1  0.92264314  0.07862925  0.32595139  1
  O2-  O517  1  0.91907540  0.08552301  0.64182766  1
  O2-  O518  1  0.89988812  0.07830777  0.98947687  1
  O2-  O519  1  0.92615088  0.33287437  0.27823559  1
  O2-  O520  1  0.90560371  0.31491090  0.64289487  1
  O2-  O521  1  0.91732132  0.32823031  0.98980978  1
  O2-  O522  1  0.89845259  0.56908819  0.37865084  1
  O2-  O523  1  0.90794292  0.55603407  0.62135034  1
  O2-  O524  1  0.89811812  0.57233871  0.96996680  1
  O2-  O525  1  0.90291677  0.82189985  0.31702158  1
  O2-  O526  1  0.93183230  0.85599494  0.64146023  1
  O2-  O527  1  0.90955598  0.84836389  0.97382399  1
  O2-  O528  1  0.06471458  0.14282573  0.02418012  1
  O2-  O529  1  0.07146350  0.16181748  0.39969955  1
  O2-  O530  1  0.09712431  0.16531031  0.67912160  1
  O2-  O531  1  0.08639141  0.39859426  0.03073394  1
  O2-  O532  1  0.11292293  0.40463351  0.36175251  1
  O2-  O533  1  0.07240578  0.39760285  0.68480523  1
  O2-  O534  1  0.05971951  0.64045136  0.01587080  1
  O2-  O535  1  0.07876638  0.67174604  0.37251684  1
  O2-  O536  1  0.07360669  0.65364996  0.67941695  1
  O2-  O537  1  0.06088863  0.98269815  0.02998294  1
  O2-  O538  1  0.06470465  0.92008858  0.35759181  1
  O2-  O539  1  0.09118814  0.92464750  0.68573684  1
  O2-  O540  1  0.33647957  0.17185920  0.02720139  1
  O2-  O541  1  0.31479161  0.17351921  0.35921561  1
  O2-  O542  1  0.33896492  0.09694927  0.68662304  1
  O2-  O543  1  0.34903064  0.39151025  0.02110689  1
  O2-  O544  1  0.32128295  0.41550790  0.35083748  1
  O2-  O545  1  0.33699947  0.40817558  0.68965506  1
  O2-  O546  1  0.33514601  0.66792485  0.01781109  1
  O2-  O547  1  0.32734202  0.63193416  0.35684243  1
  O2-  O548  1  0.35570945  0.68459127  0.67610290  1
  O2-  O549  1  0.34283326  0.91855374  0.01996280  1
  O2-  O550  1  0.32001245  0.92982785  0.36272803  1
  O2-  O551  1  0.32661232  0.93041486  0.68969046  1
  O2-  O552  1  0.58527856  0.16275750  0.01255287  1
  O2-  O553  1  0.58143254  0.16955264  0.35198590  1
  O2-  O554  1  0.55620476  0.17740699  0.67396998  1
  O2-  O555  1  0.56326002  0.40376129  0.02043494  1
  O2-  O556  1  0.57480484  0.39240829  0.35375734  1
  O2-  O557  1  0.57785097  0.41320261  0.69645546  1
  O2-  O558  1  0.56795561  0.66824540  0.01426778  1
  O2-  O559  1  0.58162282  0.67468848  0.37065047  1
  O2-  O560  1  0.59152750  0.66445819  0.69004138  1
  O2-  O561  1  0.58162533  0.93087444  0.02386177  1
  O2-  O562  1  0.59025803  0.93162225  0.35735070  1
  O2-  O563  1  0.62715849  0.93764945  0.68713629  1
  O2-  O564  1  0.83185791  0.17001483  0.03699378  1
  O2-  O565  1  0.83789286  0.17012241  0.34087997  1
  O2-  O566  1  0.82070221  0.15500597  0.68656433  1
  O2-  O567  1  0.83071357  0.41321794  0.02140000  1
  O2-  O568  1  0.84225874  0.40133896  0.33527932  1
  O2-  O569  1  0.82760844  0.39946825  0.68333801  1
  O2-  O570  1  0.82881804  0.67287651  0.00922129  1
  O2-  O571  1  0.82271400  0.66445278  0.36894097  1
  O2-  O572  1  0.85191954  0.69627680  0.67132420  1
  O2-  O573  1  0.82498865  0.91749814  0.02764503  1
  O2-  O574  1  0.82710385  0.91033541  0.36404393  1
  O2-  O575  1  0.83238364  0.92091575  0.67615038  1
