# generated using pymatgen
data_H2O
_symmetry_space_group_name_H-M   'P 1'
_cell_length_a   17.99326655
_cell_length_b   17.99487935
_cell_length_c   21.99892008
_cell_angle_alpha   90.04108899
_cell_angle_beta   89.98268997
_cell_angle_gamma   120.00463182
_symmetry_Int_Tables_number   1
_chemical_formula_structural   H2O
_chemical_formula_sum   'H384 O192'
_cell_volume   6168.37206930
_cell_formula_units_Z   192
loop_
 _symmetry_equiv_pos_site_id
 _symmetry_equiv_pos_as_xyz
  1  'x, y, z'
loop_
 _atom_type_symbol
 _atom_type_oxidation_number
  H+  1.0
  O2-  -2.0
loop_
 _atom_site_type_symbol
 _atom_site_label
 _atom_site_symmetry_multiplicity
 _atom_site_fract_x
 _atom_site_fract_y
 _atom_site_fract_z
 _atom_site_occupancy
  H+  H0  1  -0.02301792  0.11806680  0.17424428  1
  H+  H1  1  -0.00584296  0.08622848  0.51833898  1
  H+  H2  1  0.63384950  0.10327856  0.17383995  1
  H+  H3  1  0.16585841  0.57543309  0.73668910  1
  H+  H4  1  0.88656286  1.02333871  0.33096496  1
  H+  H5  1  0.84813860  0.55930444  0.28893403  1
  H+  H6  1  0.02186556  0.88162369  0.82596470  1
  H+  H7  1  0.75267480  0.16525559  0.46814091  1
  H+  H8  1  0.14002767  0.51869589  0.17481557  1
  H+  H9  1  0.66946973  0.09669429  0.58708089  1
  H+  H10  1  0.39393249  0.60530230  0.83854849  1
  H+  H11  1  0.47914018  0.85696284  0.17687528  1
  H+  H12  1  0.14095584  0.28500821  0.99373387  1
  H+  H13  1  0.35889675  0.12361845  0.00466232  1
  H+  H14  1  0.45155209  0.32030808  -0.07724669  1
  H+  H15  1  0.33802596  0.41080626  0.73197492  1
  H+  H16  1  0.88784278  0.74189511  0.50091392  1
  H+  H17  1  1.01876809  0.37708399  0.66618144  1
  H+  H18  1  0.44294003  0.41496886  0.54545872  1
  H+  H19  1  0.35213373  -0.01593930  0.48358012  1
  H+  H20  1  0.13033225  0.60957510  0.32118365  1
  H+  H21  1  0.85238233  0.65205242  0.34930046  1
  H+  H22  1  0.85358431  0.89009088  0.14290931  1
  H+  H23  1  0.36694475  0.26017809  0.16450232  1
  H+  H24  1  0.88920422  0.85463242  0.84090532  1
  H+  H25  1  0.11414445  0.38219411  0.16064424  1
  H+  H26  1  0.12096923  0.13252799  0.82893147  1
  H+  H27  1  0.65213062  0.77410678  0.16267496  1
  H+  H28  1  0.52856395  0.14364035  0.16401076  1
  H+  H29  1  0.10464765  0.72261223  0.83483910  1
  H+  H30  1  0.38612687  0.60556323  0.50157113  1
  H+  H31  1  0.62270983  0.12887719  0.50035594  1
  H+  H32  1  0.37693962  0.10338902  0.66076245  1
  H+  H33  1  0.36519054  0.22157793  0.67765426  1
  H+  H34  1  0.88286349  0.10014570  0.18542523  1
  H+  H35  1  0.61088832  0.87590904  0.67615251  1
  H+  H36  1  0.85927717  0.20779965  0.16518411  1
  H+  H37  1  0.14684883  0.26918810  0.83957870  1
  H+  H38  1  -0.01333111  0.86545115  0.50194403  1
  H+  H39  1  0.88904331  0.46796521  0.15172980  1
  H+  H40  1  0.36402302  0.63129754  0.66685550  1
  H+  H41  1  0.54208299  0.39908645  0.67505360  1
  H+  H42  1  0.87228658  -0.04336756  0.50075544  1
  H+  H43  1  0.52656028  0.63680362  0.82896554  1
  H+  H44  1  0.37468899  0.21733224  0.00202976  1
  H+  H45  1  0.10684093  0.46873929  0.34526598  1
  H+  H46  1  0.17364503  0.57642985  0.40956182  1
  H+  H47  1  0.61946219  0.61326597  0.99330358  1
  H+  H48  1  0.63907492  0.53016981  0.84269114  1
  H+  H49  1  0.12556629  0.63151078  0.15909215  1
  H+  H50  1  0.89931582  0.65670734  0.16376018  1
  H+  H51  1  0.80551399  0.69194170  0.08373718  1
  H+  H52  1  0.38774958  0.61202923  0.32269930  1
  H+  H53  1  0.63058582  0.04622924  0.48408280  1
  H+  H54  1  0.13599750  0.11118263  0.32845673  1
  H+  H55  1  0.17286278  0.83532585  0.09754736  1
  H+  H56  1  0.43612613  0.35923601  0.15644698  1
  H+  H57  1  0.35794783  0.63275289  0.16075988  1
  H+  H58  1  0.03177261  0.13319575  0.82606841  1
  H+  H59  1  0.28596105  0.40495440  -0.00548324  1
  H+  H60  1  0.39490180  0.86486071  0.17495184  1
  H+  H61  1  0.53828529  0.38874543  0.82582975  1
  H+  H62  1  0.86755628  0.45596390  0.34753717  1
  H+  H63  1  0.65735832  0.52821333  0.65779038  1
  H+  H64  1  -0.03337706  0.42720474  0.84878594  1
  H+  H65  1  0.67439484  0.37761832  0.15248267  1
  H+  H66  1  0.23830347  0.87075257  0.32269698  1
  H+  H67  1  0.36314738  0.88857070  0.33780953  1
  H+  H68  1  0.86993053  0.39209452  0.50020019  1
  H+  H69  1  0.93366015  0.90753017  0.21050503  1
  H+  H70  1  0.68161554  0.30243966  0.84931083  1
  H+  H71  1  0.09519601  0.44074845  0.52996812  1
  H+  H72  1  0.95291865  0.43191910  0.81727482  1
  H+  H73  1  0.27800817  0.37979416  0.67189225  1
  H+  H74  1  0.71840675  0.09578162  0.84435403  1
  H+  H75  1  0.13453038  0.85837107  0.50570465  1
  H+  H76  1  0.77596194  0.35758919  0.67257124  1
  H+  H77  1  0.61286366  0.08017135  0.32825004  1
  H+  H78  1  0.89071985  0.85565126  0.50079252  1
  H+  H79  1  0.37308250  0.47179406  0.82544527  1
  H+  H80  1  0.14878944  0.50962347  0.83021734  1
  H+  H81  1  0.47389311  0.85738451  0.33225862  1
  H+  H82  1  0.10860748  0.22130535  0.49351028  1
  H+  H83  1  0.72274304  0.86947726  0.17676348  1
  H+  H84  1  0.63211052  0.61038277  0.50572851  1
  H+  H85  1  0.61955956  0.88572647  0.82994209  1
  H+  H86  1  0.76907429  0.12104222  0.17166439  1
  H+  H87  1  0.86979737  0.73249019  0.65978685  1
  H+  H88  1  0.22485786  0.11375053  0.50928887  1
  H+  H89  1  0.75373056  0.61751132  0.19337580  1
  H+  H90  1  0.77437841  0.63140536  0.83589599  1
  H+  H91  1  0.49482892  0.27072479  -0.05058095  1
  H+  H92  1  0.12583991  0.35746206  0.50276089  1
  H+  H93  1  0.63449421  0.76890574  0.65856011  1
  H+  H94  1  0.11957359  0.63604661  0.46572543  1
  H+  H95  1  0.60315254  0.11912113  0.65683082  1
  H+  H96  1  0.35606178  0.21860658  0.34012580  1
  H+  H97  1  0.60622899  0.19251240  0.34928672  1
  H+  H98  1  0.62936396  0.52139861  0.50332659  1
  H+  H99  1  0.41924096  0.83439271  0.26993042  1
  H+  H100  1  0.53646774  0.39614763  0.33029159  1
  H+  H101  1  0.36754451  0.13871497  0.15786142  1
  H+  H102  1  -0.01926572  0.12444663  -0.01621027  1
  H+  H103  1  0.84768620  0.24961071  0.47413472  1
  H+  H104  1  0.02406267  0.65399472  0.32183669  1
  H+  H105  1  0.03901103  0.38412742  0.81445439  1
  H+  H106  1  0.10824834  0.47833442  0.01179481  1
  H+  H107  1  0.90169902  0.14036781  0.48102321  1
  H+  H108  1  0.16396214  0.83152781  0.93843321  1
  H+  H109  1  -0.01939340  0.35851753  0.32815256  1
  H+  H110  1  0.13954797  0.11218808  0.66239008  1
  H+  H111  1  0.88820832  0.26933767  0.65993929  1
  H+  H112  1  0.91643684  0.08414141  0.74342106  1
  H+  H113  1  0.07917471  0.67182552  0.73740646  1
  H+  H114  1  0.83469314  0.38104296  1.00852843  1
  H+  H115  1  0.62265776  0.22821528  0.15947217  1
  H+  H116  1  0.28898096  0.89372214  0.15138141  1
  H+  H117  1  0.87714955  0.64412930  0.65613168  1
  H+  H118  1  0.85706163  0.12848127  0.82655213  1
  H+  H119  1  0.35762148  0.23600073  0.49605645  1
  H+  H120  1  0.35239469  0.37992187  0.48198425  1
  H+  H121  1  0.13729837  1.02957544  -0.00686972  1
  H+  H122  1  0.50954102  0.13968594  0.50284187  1
  H+  H123  1  0.88235545  0.77744393  0.34103246  1
  H+  H124  1  0.67268251  0.82135111  0.56719849  1
  H+  H125  1  0.13599401  0.86081744  0.65920651  1
  H+  H126  1  0.11794575  0.73581764  0.32343437  1
  H+  H127  1  0.38898791  0.77197166  0.65803568  1
  H+  H128  1  0.69261254  0.39766531  -0.00423012  1
  H+  H129  1  0.34861967  0.72500639  1.00957589  1
  H+  H130  1  0.36617146  0.88010124  0.00310822  1
  H+  H131  1  0.81337769  0.38651688  0.73949128  1
  H+  H132  1  0.10693338  0.26362101  0.15877553  1
  H+  H133  1  0.89025803  1.01665138  0.83640983  1
  H+  H134  1  0.36383223  0.39228475  0.32975412  1
  H+  H135  1  0.35869784  0.72302317  0.16514401  1
  H+  H136  1  0.22877254  0.10835296  0.17329328  1
  H+  H137  1  0.73594310  0.72192756  0.08027091  1
  H+  H138  1  0.12264933  0.98319925  0.16160120  1
  H+  H139  1  0.76067068  0.64447743  0.35595339  1
  H+  H140  1  0.13874351  0.77168947  0.50084675  1
  H+  H141  1  0.35188024  0.92429170  0.09622211  1
  H+  H142  1  0.62249410  0.40282116  0.49286973  1
  H+  H143  1  0.72044619  0.11690808  0.65004308  1
  H+  H144  1  0.63559318  0.30144767  0.29953577  1
  H+  H145  1  0.71422604  0.63373326  1.00071266  1
  H+  H146  1  0.11717291  0.97590923  0.67457448  1
  H+  H147  1  0.88224316  0.78492630  -0.00269305  1
  H+  H148  1  0.36557136  0.48206757  0.33145494  1
  H+  H149  1  0.62017217  0.49146997  0.33934565  1
  H+  H150  1  0.22688063  0.11689426  0.99286717  1
  H+  H151  1  0.11447411  0.14814548  0.00833414  1
  H+  H152  1  0.38147953  0.51502333  0.49941166  1
  H+  H153  1  0.36535081  0.72859292  0.33402993  1
  H+  H154  1  0.64521884  0.25025149  0.64187772  1
  H+  H155  1  0.14899887  0.35806390  0.83181387  1
  H+  H156  1  0.22334307  0.36040853  0.32175576  1
  H+  H157  1  -0.00232952  0.88455962  0.17645438  1
  H+  H158  1  0.57948345  0.67415085  0.73234218  1
  H+  H159  1  0.99883959  0.60318550  0.16063312  1
  H+  H160  1  0.13527815  0.61535404  0.68667845  1
  H+  H161  1  0.46332760  0.09875446  0.65113365  1
  H+  H162  1  0.87152665  0.59640639  0.84532226  1
  H+  H163  1  0.35593921  0.96658854  0.66918442  1
  H+  H164  1  0.00749669  0.21013962  0.11671948  1
  H+  H165  1  0.50872619  0.62337702  0.00945387  1
  H+  H166  1  0.27754127  0.63530540  0.67975783  1
  H+  H167  1  0.62725963  0.00998931  0.84268913  1
  H+  H168  1  0.48847775  0.11805477  0.84081131  1
  H+  H169  1  0.87893091  0.22885997  0.32819607  1
  H+  H170  1  0.86710273  0.98274912  0.16141686  1
  H+  H171  1  0.16757224  0.08122450  0.60263488  1
  H+  H172  1  0.66346220  0.82560024  0.26443626  1
  H+  H173  1  0.11706514  -0.02260932  0.49557491  1
  H+  H174  1  0.88839180  0.03727873  0.98347522  1
  H+  H175  1  0.77308785  0.38038090  0.33666095  1
  H+  H176  1  0.52306184  0.87712687  0.67724350  1
  H+  H177  1  0.11564330  0.88952708  0.15173414  1
  H+  H178  1  0.27710504  0.63824951  0.33420886  1
  H+  H179  1  0.96043872  0.37013030  1.00060926  1
  H+  H180  1  0.10489154  0.63787970  0.01173805  1
  H+  H181  1  0.66722100  0.83135669  0.90149224  1
  H+  H182  1  0.13756603  0.02235126  0.32979443  1
  H+  H183  1  0.13471553  0.10982940  0.50801768  1
  H+  H184  1  0.37721247  0.11762873  0.50880944  1
  H+  H185  1  0.10809427  0.46877816  0.67387896  1
  H+  H186  1  0.13999933  0.35841341  0.65450335  1
  H+  H187  1  0.76955804  0.90057083  -0.00041820  1
  H+  H188  1  0.72395436  0.85866436  0.32433361  1
  H+  H189  1  -0.01584571  0.86692069  0.65937937  1
  H+  H190  1  0.12656758  0.85433891  0.84435918  1
  H+  H191  1  0.09825209  0.17100665  0.73551014  1
  H+  H192  1  0.35087464  0.97411781  0.82253919  1
  H+  H193  1  0.47648388  0.61119002  0.32380658  1
  H+  H194  1  0.77701562  0.87263420  0.49543974  1
  H+  H195  1  0.21595230  0.85775528  0.84208873  1
  H+  H196  1  0.13116518  0.77195848  0.99748437  1
  H+  H197  1  0.27770374  0.62949420  0.47603329  1
  H+  H198  1  0.26967309  0.87673152  0.66929458  1
  H+  H199  1  0.37002588  0.13684372  0.82775973  1
  H+  H200  1  0.99291804  0.36360910  0.16906398  1
  H+  H201  1  0.63415254  0.49670876  -0.00149601  1
  H+  H202  1  0.60854900  0.86979794  0.34376349  1
  H+  H203  1  0.11855542  0.89412107  0.00634286  1
  H+  H204  1  0.65038620  0.39218722  0.31745816  1
  H+  H205  1  0.08356339  0.41604574  0.10156056  1
  H+  H206  1  0.42362263  0.82582835  0.56561853  1
  H+  H207  1  0.61717612  0.64182579  0.82678212  1
  H+  H208  1  0.97715266  0.36510520  0.50517169  1
  H+  H209  1  0.01439337  0.63658840  0.01173924  1
  H+  H210  1  0.39532223  0.02964310  0.17123432  1
  H+  H211  1  0.29080789  0.63817373  0.81766610  1
  H+  H212  1  0.98526560  0.62403467  0.65576567  1
  H+  H213  1  0.72265120  0.46142918  0.56338461  1
  H+  H214  1  0.13151022  0.51159434  0.46596546  1
  H+  H215  1  0.60661686  -0.02980489  1.01156087  1
  H+  H216  1  0.52067729  0.63106562  0.49096898  1
  H+  H217  1  0.10765121  0.63610232  0.83192554  1
  H+  H218  1  0.82864404  0.45835835  0.83899680  1
  H+  H219  1  0.57780881  0.90812063  0.06991663  1
  H+  H220  1  0.87754269  0.52753541  0.99828294  1
  H+  H221  1  0.38630041  0.01482611  0.99134188  1
  H+  H222  1  0.86771129  0.15038049  0.99337790  1
  H+  H223  1  0.48624720  0.85901166  0.84858774  1
  H+  H224  1  0.47076773  0.85555309  0.99927378  1
  H+  H225  1  0.77602965  0.88106790  0.83227730  1
  H+  H226  1  0.02827577  0.88487789  0.34412355  1
  H+  H227  1  0.38488784  0.51620875  0.65800152  1
  H+  H228  1  0.62644914  0.76822709  0.99196854  1
  H+  H229  1  0.11404969  0.22295666  0.33926135  1
  H+  H230  1  0.63166099  0.10745269  0.99672974  1
  H+  H231  1  0.23032065  0.10885365  0.84114476  1
  H+  H232  1  0.89070563  0.36983917  0.16378712  1
  H+  H233  1  0.26483220  0.13180384  0.34379504  1
  H+  H234  1  0.25029706  0.38447507  0.14890732  1
  H+  H235  1  0.63996594  0.77337748  0.84102182  1
  H+  H236  1  0.62919447  0.13781240  0.83993240  1
  H+  H237  1  0.66398924  0.59044965  0.90192484  1
  H+  H238  1  0.11653276  0.72943818  0.67635500  1
  H+  H239  1  0.72665258  0.85631790  0.65832011  1
  H+  H240  1  0.48698155  0.37667121  0.50446710  1
  H+  H241  1  0.08930540  0.65968555  0.09840625  1
  H+  H242  1  0.85645612  0.13450096  0.68219101  1
  H+  H243  1  0.11949155  0.88868200  0.33828690  1
  H+  H244  1  0.26777062  0.89141367  0.48464821  1
  H+  H245  1  0.88856860  0.64337136  0.49521974  1
  H+  H246  1  0.77599815  0.14175156  1.00222617  1
  H+  H247  1  0.79499405  0.37793087  0.15387531  1
  H+  H248  1  0.62375730  0.99894514  0.32563774  1
  H+  H249  1  0.64370415  0.84977172  0.50695374  1
  H+  H250  1  0.61243214  0.71910267  0.49312185  1
  H+  H251  1  0.87481008  0.13373944  0.33983340  1
  H+  H252  1  0.33519731  0.38160808  0.15273384  1
  H+  H253  1  0.63303109  0.61774539  0.33143685  1
  H+  H254  1  0.99290122  0.62061988  0.49152768  1
  H+  H255  1  0.86658896  0.88343538  0.67290467  1
  H+  H256  1  0.11047625  0.39078193  0.00641481  1
  H+  H257  1  0.51966518  0.64257705  0.67333621  1
  H+  H258  1  0.88693796  0.34927370  0.32417466  1
  H+  H259  1  0.92121046  0.08206261  0.27011247  1
  H+  H260  1  0.21479213  0.35656984  0.49806074  1
  H+  H261  1  0.86480582  0.89115149  0.34207451  1
  H+  H262  1  0.41989956  0.31878663  0.25340694  1
  H+  H263  1  0.37131565  0.52168140  0.16551571  1
  H+  H264  1  0.61114259  0.72467913  0.33707922  1
  H+  H265  1  0.86363690  0.09757526  0.47336014  1
  H+  H266  1  0.86399999  -0.03026267  0.68617937  1
  H+  H267  1  0.27314939  0.13416330  0.67515754  1
  H+  H268  1  0.62606987  0.85666665  0.99385173  1
  H+  H269  1  0.50672733  0.12034676  0.34262229  1
  H+  H270  1  0.60898732  -0.03477438  0.16323619  1
  H+  H271  1  0.66879229  0.53049637  0.17784100  1
  H+  H272  1  0.58343725  0.90828695  0.76972639  1
  H+  H273  1  0.86174607  0.30351965  0.91713820  1
  H+  H274  1  0.15425510  0.59348756  0.94649519  1
  H+  H275  1  0.61990451  0.23022694  1.01147600  1
  H+  H276  1  0.39292375  0.35875684  0.66623082  1
  H+  H277  1  0.60842387  0.87511074  0.16376517  1
  H+  H278  1  0.61800950  0.94736821  0.52500534  1
  H+  H279  1  0.39998611  0.36287574  0.83857187  1
  H+  H280  1  0.46471791  0.27441621  0.28506389  1
  H+  H281  1  0.90130614  0.53149481  0.49718897  1
  H+  H282  1  0.11899744  0.22626406  0.67318270  1
  H+  H283  1  0.38686890  0.85976904  0.65778162  1
  H+  H284  1  0.75400979  0.41434106  0.51809997  1
  H+  H285  1  0.13345167  0.35609955  0.32786980  1
  H+  H286  1  0.57068367  0.39887516  0.14157968  1
  H+  H287  1  0.37779298  0.10819165  0.33029032  1
  H+  H288  1  0.33455457  0.16258966  0.09633535  1
  H+  H289  1  0.88992759  0.64792931  0.25551425  1
  H+  H290  1  0.56288651  0.39461560  -0.00481166  1
  H+  H291  1  0.19515779  0.56305276  0.57443752  1
  H+  H292  1  0.07503175  0.18012048  0.06318808  1
  H+  H293  1  0.82947106  0.17982688  0.39363443  1
  H+  H294  1  0.98213225  0.11459201  0.68994609  1
  H+  H295  1  0.69617034  0.35640001  0.21774310  1
  H+  H296  1  0.83713683  0.67168894  0.44301918  1
  H+  H297  1  0.08225793  0.16055170  0.43453893  1
  H+  H298  1  0.63416000  0.40289293  0.82567561  1
  H+  H299  1  0.23022156  0.60978203  0.17675032  1
  H+  H300  1  0.83149618  0.91551222  0.40093666  1
  H+  H301  1  0.08581192  0.92498329  0.06362752  1
  H+  H302  1  0.34108954  0.43495227  0.05335952  1
  H+  H303  1  0.41754210  0.82557200  0.93641865  1
  H+  H304  1  0.88932436  0.35752142  0.66608772  1
  H+  H305  1  0.31783494  0.91267901  0.76495020  1
  H+  H306  1  0.65812174  0.07274271  0.93866766  1
  H+  H307  1  0.08545571  0.91414870  0.73325580  1
  H+  H308  1  0.93563082  0.56696993  0.21670030  1
  H+  H309  1  0.21038218  0.55856183  0.88391612  1
  H+  H310  1  0.14371695  0.76825334  0.14964726  1
  H+  H311  1  0.76717173  0.62889016  0.65304802  1
  H+  H312  1  0.34861147  0.66730376  0.42703290  1
  H+  H313  1  0.60390472  0.43316779  0.73131195  1
  H+  H314  1  0.32774328  0.92115060  0.39507386  1
  H+  H315  1  0.02486848  0.13406564  0.34059521  1
  H+  H316  1  0.18163059  0.85035610  0.26212592  1
  H+  H317  1  0.08575862  0.67699938  0.41801987  1
  H+  H318  1  0.09077272  0.91941242  0.43471014  1
  H+  H319  1  0.81934045  0.16508345  0.73382190  1
  H+  H320  1  0.11251275  0.97070744  0.82763665  1
  H+  H321  1  0.16809355  0.32720706  0.59576827  1
  H+  H322  1  0.65362733  0.06607162  0.23441370  1
  H+  H323  1  0.87570615  0.27704254  1.00290650  1
  H+  H324  1  0.82727801  0.93793026  0.05773444  1
  H+  H325  1  0.09011606  0.40615230  0.75191929  1
  H+  H326  1  0.92111510  0.83000469  0.27878527  1
  H+  H327  1  0.28513156  0.38184693  0.82686953  1
  H+  H328  1  -0.01783483  0.84942113  -0.01028077  1
  H+  H329  1  0.92329783  0.82055779  0.89664637  1
  H+  H330  1  0.52473704  0.87247942  0.50379283  1
  H+  H331  1  0.83400065  0.20407344  0.83753382  1
  H+  H332  1  0.92402907  0.06645429  0.56857365  1
  H+  H333  1  0.31766760  0.66579444  0.06962702  1
  H+  H334  1  0.86728161  0.71397093  0.83210291  1
  H+  H335  1  0.95498911  0.58663208  0.84156774  1
  H+  H336  1  0.37975020  0.01984607  0.32509312  1
  H+  H337  1  0.15480749  0.32334242  0.22311079  1
  H+  H338  1  0.16932798  0.34033841  0.93322445  1
  H+  H339  1  0.58137869  0.16886539  0.06864048  1
  H+  H340  1  0.39856561  0.76591713  0.50609501  1
  H+  H341  1  0.42421826  0.08258198  0.89710400  1
  H+  H342  1  0.57959925  0.66510285  0.39747290  1
  H+  H343  1  0.67862617  0.58417894  0.59383178  1
  H+  H344  1  0.92801281  0.84065135  0.59800186  1
  H+  H345  1  0.22140871  0.62233985  1.00416698  1
  H+  H346  1  0.33448820  0.16185465  0.76919914  1
  H+  H347  1  0.63820583  0.19906312  0.78598258  1
  H+  H348  1  0.56108102  0.13667242  0.71585987  1
  H+  H349  1  0.91385049  0.57941614  0.93800195  1
  H+  H350  1  0.92970581  0.33083424  0.22984406  1
  H+  H351  1  0.58475152  0.90230029  0.40501479  1
  H+  H352  1  0.16225810  0.82699116  0.59937078  1
  H+  H353  1  0.07800963  0.40926549  0.40521220  1
  H+  H354  1  0.35430186  0.66995680  0.76146156  1
  H+  H355  1  0.32482155  0.41204484  0.42312572  1
  H+  H356  1  0.62625134  0.43696790  0.08167845  1
  H+  H357  1  0.16369754  0.57341095  0.26847436  1
  H+  H358  1  0.40965297  0.57935361  0.22455802  1
  H+  H359  1  0.93666123  0.60047575  0.59174364  1
  H+  H360  1  0.41577367  0.08532609  0.23255507  1
  H+  H361  1  0.17081344  0.07822963  0.23337553  1
  H+  H362  1  0.92311867  0.08595172  0.89076713  1
  H+  H363  1  0.42558881  0.32723521  0.61000390  1
  H+  H364  1  0.68465309  0.32932842  0.59539291  1
  H+  H365  1  0.16928787  0.08229836  0.89996977  1
  H+  H366  1  0.39861658  0.07610727  0.56598049  1
  H+  H367  1  0.32985769  0.17579934  0.43687938  1
  H+  H368  1  0.40126970  0.76899437  0.84590266  1
  H+  H369  1  0.82263833  0.32257524  0.85863985  1
  H+  H370  1  0.56186245  0.16104563  0.44201575  1
  H+  H371  1  0.41168533  0.57296030  0.59703713  1
  H+  H372  1  0.41638907  0.56748980  0.89877855  1
  H+  H373  1  0.58456115  0.41415831  0.42818761  1
  H+  H374  1  0.39641188  0.27208385  0.83465592  1
  H+  H375  1  0.83149156  0.90381841  0.77121932  1
  H+  H376  1  0.67569653  0.58798570  0.27697587  1
  H+  H377  1  0.15601315  0.56801767  0.57387829  1
  H+  H378  1  0.27719486  0.88226290  0.00563058  1
  H+  H379  1  0.47230714  0.10725568  0.99415083  1
  H+  H380  1  0.83070315  0.40837726  0.44013565  1
  H+  H381  1  0.91453710  0.33077566  0.56408014  1
  H+  H382  1  0.58862802  0.67220714  0.06071947  1
  H+  H383  1  0.89732569  0.74326302  0.18244834  1
  O2-  O384  1  0.04679790  0.19155307  0.13141895  1
  O2-  O385  1  0.08375156  0.16008188  0.47998268  1
  O2-  O386  1  0.09317446  0.16524066  0.81274459  1
  O2-  O387  1  0.08361482  0.41581925  0.14742350  1
  O2-  O388  1  0.08053282  0.41677245  0.48895126  1
  O2-  O389  1  0.09728967  0.41159059  0.79819540  1
  O2-  O390  1  0.09407894  0.66164843  0.14464983  1
  O2-  O391  1  0.09003594  0.67087325  0.46264614  1
  O2-  O392  1  0.07507351  0.66255046  0.81714687  1
  O2-  O393  1  0.08569909  0.92218199  0.14384988  1
  O2-  O394  1  0.08660255  0.91662101  0.48008933  1
  O2-  O395  1  0.08324914  0.91136734  0.81070325  1
  O2-  O396  1  0.33502195  0.16643408  0.14202584  1
  O2-  O397  1  0.32878221  0.17616867  0.48250171  1
  O2-  O398  1  0.33698096  0.16528347  0.81474187  1
  O2-  O399  1  0.31232324  0.41634100  0.13542731  1
  O2-  O400  1  0.32134571  0.40931931  0.46859758  1
  O2-  O401  1  0.34443961  0.41095681  0.80963806  1
  O2-  O402  1  0.32488313  0.66345223  0.14905644  1
  O2-  O403  1  0.34131897  0.66010320  0.47205276  1
  O2-  O404  1  0.35205519  0.66578294  0.80705475  1
  O2-  O405  1  0.35108792  0.92682454  0.14201140  1
  O2-  O406  1  0.32264929  0.92722209  0.46289093  1
  O2-  O407  1  0.30845265  0.91588650  0.80915703  1
  O2-  O408  1  0.58727116  0.16770861  0.14621738  1
  O2-  O409  1  0.56937265  0.17187007  0.48625827  1
  O2-  O410  1  0.61100468  0.18048869  0.82566765  1
  O2-  O411  1  0.62996272  0.43367345  0.12848411  1
  O2-  O412  1  0.57784384  0.41249449  0.47308809  1
  O2-  O413  1  0.59856542  0.42740779  0.81205635  1
  O2-  O414  1  0.65646409  0.71464666  0.11696556  1
  O2-  O415  1  0.58021852  0.66046067  0.47418152  1
  O2-  O416  1  0.58602928  0.67184772  0.81257413  1
  O2-  O417  1  0.57675099  0.90441203  0.14850567  1
  O2-  O418  1  0.58985376  0.90815221  0.49114214  1
  O2-  O419  1  0.58681736  0.91396518  0.81586227  1
  O2-  O420  1  0.83096409  0.14524418  0.16204920  1
  O2-  O421  1  0.80531190  0.20680030  0.44497498  1
  O2-  O422  1  0.81974833  0.15132233  0.81261508  1
  O2-  O423  1  0.85815925  0.40397911  0.14309478  1
  O2-  O424  1  0.84218392  0.42517514  0.48330798  1
  O2-  O425  1  0.79232270  0.39618784  0.82384716  1
  O2-  O426  1  0.87083080  0.68074118  0.18875810  1
  O2-  O427  1  0.85523841  0.67610323  0.48735046  1
  O2-  O428  1  0.83447893  0.65163420  0.82293389  1
  O2-  O429  1  0.82749388  0.92625960  0.14082112  1
  O2-  O430  1  0.83669715  0.90146640  0.47785630  1
  O2-  O431  1  0.83669833  0.91041218  0.81633615  1
  O2-  O432  1  0.16915187  0.07373855  0.18836370  1
  O2-  O433  1  0.16445449  0.07906535  0.52383776  1
  O2-  O434  1  0.16893291  0.07889795  0.85432901  1
  O2-  O435  1  0.15336855  0.32820696  0.17858150  1
  O2-  O436  1  0.15653972  0.32554840  0.51643533  1
  O2-  O437  1  0.17824098  0.33086978  0.85246771  1
  O2-  O438  1  0.16828375  0.57827245  0.19226783  1
  O2-  O439  1  0.16700136  0.57604454  0.45367871  1
  O2-  O440  1  0.18083149  0.56780993  0.85007697  1
  O2-  O441  1  0.17201689  0.83206624  0.14200481  1
  O2-  O442  1  0.16559437  0.82901304  0.52070148  1
  O2-  O443  1  0.15655014  0.82432992  0.86086676  1
  O2-  O444  1  0.42124249  0.08980089  0.18729800  1
  O2-  O445  1  0.40368838  0.08281572  0.52048411  1
  O2-  O446  1  0.42707571  0.08812514  0.85190682  1
  O2-  O447  1  0.38911388  0.32029097  0.18270627  1
  O2-  O448  1  0.43078256  0.36106217  0.52618670  1
  O2-  O449  1  0.43142894  0.33219691  0.85050186  1
  O2-  O450  1  0.40400567  0.58197313  0.18015069  1
  O2-  O451  1  0.41469104  0.57351495  0.51726506  1
  O2-  O452  1  0.42112634  0.57183229  0.85272221  1
  O2-  O453  1  0.41851614  0.83052032  0.19324028  1
  O2-  O454  1  0.43238459  0.82583263  0.52065464  1
  O2-  O455  1  0.42716811  0.82571544  0.86578232  1
  O2-  O456  1  0.66007814  0.06968018  0.18864136  1
  O2-  O457  1  0.66099749  0.10125587  0.50524713  1
  O2-  O458  1  0.65846604  0.07041658  0.86029789  1
  O2-  O459  1  0.69709815  0.34346458  0.17410380  1
  O2-  O460  1  0.70180923  0.41051315  0.53785550  1
  O2-  O461  1  0.70745514  0.36575588  0.85179373  1
  O2-  O462  1  0.69498354  0.57801781  0.20731362  1
  O2-  O463  1  0.66136667  0.57947650  0.52105723  1
  O2-  O464  1  0.66692998  0.59098317  0.85651454  1
  O2-  O465  1  0.66326594  0.82754880  0.18980157  1
  O2-  O466  1  0.67425599  0.81947208  0.52071832  1
  O2-  O467  1  0.67311564  0.83426975  0.85588644  1
  O2-  O468  1  0.92142204  0.07606370  0.19731433  1
  O2-  O469  1  0.94643444  0.03905115  0.54199695  1
  O2-  O470  1  0.92188344  0.08026580  0.84456342  1
  O2-  O471  1  0.92915154  0.33097716  0.18434337  1
  O2-  O472  1  0.91451351  0.33642458  0.51886909  1
  O2-  O473  1  0.83290484  0.27900612  0.87767577  1
  O2-  O474  1  0.93502715  0.56774318  0.17227108  1
  O2-  O475  1  0.93286491  0.59392421  0.50866628  1
  O2-  O476  1  0.89663201  0.55829366  0.85882826  1
  O2-  O477  1  0.93845106  0.85838804  0.19713051  1
  O2-  O478  1  0.92557319  0.82982536  0.51733491  1
  O2-  O479  1  0.92303403  0.82620293  0.85100916  1
  O2-  O480  1  0.16897533  0.08272534  0.31451248  1
  O2-  O481  1  0.16988672  0.08152128  0.64811368  1
  O2-  O482  1  0.16702658  0.08998001  0.97744038  1
  O2-  O483  1  0.16176733  0.32573609  0.31038176  1
  O2-  O484  1  0.17132923  0.32847668  0.64128205  1
  O2-  O485  1  0.16949886  0.34569598  0.97820381  1
  O2-  O486  1  0.15970463  0.57588940  0.31437351  1
  O2-  O487  1  0.16420712  0.57950698  0.69260045  1
  O2-  O488  1  0.15590841  0.58756374  0.99042198  1
  O2-  O489  1  0.17617950  0.84112382  0.30594950  1
  O2-  O490  1  0.16358753  0.82748640  0.64486423  1
  O2-  O491  1  0.16667242  0.83328395  0.98428765  1
  O2-  O492  1  0.41055064  0.08229938  0.31210026  1
  O2-  O493  1  0.40050988  0.06934200  0.64102312  1
  O2-  O494  1  0.41332913  0.07608629  0.97686913  1
  O2-  O495  1  0.43970082  0.31030549  0.29459974  1
  O2-  O496  1  0.42440909  0.32767939  0.65475170  1
  O2-  O497  1  0.46905707  0.30469566  0.96236148  1
  O2-  O498  1  0.41554569  0.57863782  0.30913320  1
  O2-  O499  1  0.41023030  0.57598400  0.64225242  1
  O2-  O500  1  0.41106849  0.55835844  0.97444832  1
  O2-  O501  1  0.41432156  0.83213916  0.31560916  1
  O2-  O502  1  0.41944022  0.83188487  0.64240923  1
  O2-  O503  1  0.41096674  0.82726001  0.98266042  1
  O2-  O504  1  0.64653256  0.05748878  0.30853626  1
  O2-  O505  1  0.66249651  0.08904741  0.63163062  1
  O2-  O506  1  0.66036771  0.07525413  0.98416043  1
  O2-  O507  1  0.68047553  0.36161462  0.29905547  1
  O2-  O508  1  0.69885932  0.29726396  0.62488662  1
  O2-  O509  1  0.71888758  0.36051200  0.99021781  1
  O2-  O510  1  0.66874374  0.58947106  0.32268853  1
  O2-  O511  1  0.69152898  0.58747894  0.63883595  1
  O2-  O512  1  0.66014111  0.59130859  0.98035177  1
  O2-  O513  1  0.66322426  0.82555975  0.31071579  1
  O2-  O514  1  0.66859386  0.82870886  0.63955328  1
  O2-  O515  1  0.65789226  0.82887206  0.97724223  1
  O2-  O516  1  0.91914891  0.08454945  0.31662922  1
  O2-  O517  1  0.91867836  0.08250743  0.69895641  1
  O2-  O518  1  0.92254182  0.09620154  0.96455694  1
  O2-  O519  1  0.92306767  0.32666025  0.30717694  1
  O2-  O520  1  0.92056077  0.33014607  0.64535363  1
  O2-  O521  1  0.89834336  0.33984023  0.99117319  1
  O2-  O522  1  0.89794282  0.61701036  0.29111056  1
  O2-  O523  1  0.92828887  0.60098351  0.63597247  1
  O2-  O524  1  0.91879208  0.58515254  0.98311560  1
  O2-  O525  1  0.92080663  0.83572272  0.32354129  1
  O2-  O526  1  0.92381086  0.83808794  0.64306756  1
  O2-  O527  1  0.93089647  0.80283172  0.96945121  1
  O2-  O528  1  0.08417109  0.18016547  0.01727236  1
  O2-  O529  1  0.08553281  0.16284651  0.35555696  1
  O2-  O530  1  0.09030164  0.16663697  0.69014056  1
  O2-  O531  1  0.07801032  0.41721119  0.02489509  1
  O2-  O532  1  0.07747093  0.40817213  0.36002670  1
  O2-  O533  1  0.08145511  0.40572699  0.68017825  1
  O2-  O534  1  0.07588810  0.66948439  0.02766252  1
  O2-  O535  1  0.08222097  0.67456575  0.33735897  1
  O2-  O536  1  0.08546078  0.66895148  0.69247425  1
  O2-  O537  1  0.08819161  0.92554168  0.01839441  1
  O2-  O538  1  0.08992855  0.91768924  0.35651221  1
  O2-  O539  1  0.08568545  0.91440420  0.68747564  1
  O2-  O540  1  0.33487201  0.16019715  0.01969396  1
  O2-  O541  1  0.32599237  0.16188209  0.36002456  1
  O2-  O542  1  0.33301155  0.16051480  0.69161800  1
  O2-  O543  1  0.34585292  0.42766581  0.00904330  1
  O2-  O544  1  0.33267946  0.41937851  0.34578983  1
  O2-  O545  1  0.33874390  0.41045454  0.68619795  1
  O2-  O546  1  0.30941999  0.66554650  0.02482536  1
  O2-  O547  1  0.33756147  0.66685810  0.34789268  1
  O2-  O548  1  0.34079264  0.66682890  0.68517559  1
  O2-  O549  1  0.33819944  0.91369366  0.01932474  1
  O2-  O550  1  0.33083241  0.91891634  0.34791013  1
  O2-  O551  1  0.32980147  0.90657003  0.68493001  1
  O2-  O552  1  0.58005759  0.17042932  0.02303892  1
  O2-  O553  1  0.56290078  0.13628180  0.36349767  1
  O2-  O554  1  0.56616369  0.14506827  0.67209352  1
  O2-  O555  1  0.62022646  0.43648938  0.01190183  1
  O2-  O556  1  0.59445947  0.42740265  0.34870251  1
  O2-  O557  1  0.60328598  0.43303139  0.68612470  1
  O2-  O558  1  0.57209944  0.66100025  0.01603044  1
  O2-  O559  1  0.57915379  0.66342242  0.35173078  1
  O2-  O560  1  0.57966432  0.67696953  0.68718714  1
  O2-  O561  1  0.57527937  0.90872057  0.02450065  1
  O2-  O562  1  0.57684418  0.89802169  0.36055649  1
  O2-  O563  1  0.57978181  0.90079132  0.69732028  1
  O2-  O564  1  0.83755420  0.17806640  0.01230768  1
  O2-  O565  1  0.84590972  0.17001983  0.34788811  1
  O2-  O566  1  0.82529330  0.16632590  0.68851784  1
  O2-  O567  1  0.80257720  0.41193132  0.02047786  1
  O2-  O568  1  0.82915034  0.39536430  0.35617384  1
  O2-  O569  1  0.83027552  0.39168151  0.69662920  1
  O2-  O570  1  0.78458602  0.71962740  0.05625551  1
  O2-  O571  1  0.82216744  0.67669496  0.37207709  1
  O2-  O572  1  0.83998349  0.66974305  0.66989732  1
  O2-  O573  1  0.82946590  0.93964584  0.01284811  1
  O2-  O574  1  0.83208753  0.91938871  0.35540697  1
  O2-  O575  1  0.83122936  0.90641274  0.69112216  1
