# generated using pymatgen
data_H2O
_symmetry_space_group_name_H-M   'P 1'
_cell_length_a   17.99580986
_cell_length_b   17.99107524
_cell_length_c   22.00385958
_cell_angle_alpha   90.03380104
_cell_angle_beta   89.99999406
_cell_angle_gamma   119.98510761
_symmetry_Int_Tables_number   1
_chemical_formula_structural   H2O
_chemical_formula_sum   'H384 O192'
_cell_volume   6170.53847227
_cell_formula_units_Z   192
loop_
 _symmetry_equiv_pos_site_id
 _symmetry_equiv_pos_as_xyz
  1  'x, y, z'
loop_
 _atom_type_symbol
 _atom_type_oxidation_number
  H+  1.0
  O2-  -2.0
loop_
 _atom_site_type_symbol
 _atom_site_label
 _atom_site_symmetry_multiplicity
 _atom_site_fract_x
 _atom_site_fract_y
 _atom_site_fract_z
 _atom_site_occupancy
  H+  H0  1  0.72285545  0.60372955  0.32507077  1
  H+  H1  1  0.01956901  0.62747840  0.82578171  1
  H+  H2  1  0.53958804  0.63497633  0.67124969  1
  H+  H3  1  0.36549706  0.22595318  0.49782110  1
  H+  H4  1  0.52921199  0.64093518  0.50042003  1
  H+  H5  1  0.41122627  0.58308955  0.23171174  1
  H+  H6  1  0.62199133  0.60676191  0.17527146  1
  H+  H7  1  0.55523660  0.83639041  0.35939901  1
  H+  H8  1  0.14310233  0.52178274  -0.01164000  1
  H+  H9  1  0.22044137  0.84252463  0.66501649  1
  H+  H10  1  0.62290563  1.00450696  0.33010932  1
  H+  H11  1  0.86106710  0.22787420  0.67228542  1
  H+  H12  1  0.39220627  0.36285722  0.51054464  1
  H+  H13  1  0.37927210  0.85789401  0.83617401  1
  H+  H14  1  0.63257762  0.28023695  0.65949464  1
  H+  H15  1  0.10046327  0.20934475  0.35064594  1
  H+  H16  1  0.61498129  0.20746681  0.16905195  1
  H+  H17  1  0.14105943  0.87045786  0.51643961  1
  H+  H18  1  0.52134790  0.38642520  0.34289036  1
  H+  H19  1  0.84498023  0.87777997  0.33871379  1
  H+  H20  1  0.88167205  0.37596848  0.65569562  1
  H+  H21  1  0.15427350  0.27034027  0.14432311  1
  H+  H22  1  0.13270966  0.93417489  0.41844709  1
  H+  H23  1  0.09684363  0.16577722  0.16635288  1
  H+  H24  1  0.14344768  0.26734926  0.50736478  1
  H+  H25  1  0.22859643  0.08948305  0.17801098  1
  H+  H26  1  0.07118128  0.53662679  0.54442418  1
  H+  H27  1  0.83485566  0.42546252  0.09616194  1
  H+  H28  1  0.34733915  0.11688925  0.67466344  1
  H+  H29  1  0.52815088  0.39042115  0.49831808  1
  H+  H30  1  0.73255988  0.27395503  0.22225378  1
  H+  H31  1  0.53342270  0.88520987  0.15035117  1
  H+  H32  1  0.12257549  0.85463003  0.84154030  1
  H+  H33  1  0.10803451  0.96709193  0.82530081  1
  H+  H34  1  0.60759977  0.40114613  1.02607729  1
  H+  H35  1  0.87784809  0.76796778  0.83363265  1
  H+  H36  1  0.47183711  0.61183196  0.31974374  1
  H+  H37  1  0.91682921  0.54648724  0.24779859  1
  H+  H38  1  0.86048565  0.21729633  0.00600768  1
  H+  H39  1  0.33303037  0.16506287  0.43937705  1
  H+  H40  1  0.11216489  0.17166277  0.75490029  1
  H+  H41  1  0.60677271  0.11732135  0.16075509  1
  H+  H42  1  0.63004101  0.26113101  0.82675838  1
  H+  H43  1  0.63479602  0.86111169  0.50382379  1
  H+  H44  1  0.66069294  0.33308291  0.56546813  1
  H+  H45  1  0.85061468  0.87640170  0.85523770  1
  H+  H46  1  0.72898913  0.61586666  0.82477494  1
  H+  H47  1  0.89388661  0.75618999  0.65000896  1
  H+  H48  1  0.27153949  0.63504901  0.35635474  1
  H+  H49  1  0.11451468  -0.02104770  0.50648418  1
  H+  H50  1  0.02019264  0.63530364  0.35263910  1
  H+  H51  1  0.39329003  0.27477947  0.83399979  1
  H+  H52  1  0.59707391  0.87038293  -0.00160034  1
  H+  H53  1  0.40283219  0.12569440  0.18877495  1
  H+  H54  1  0.38482399  0.01435766  0.33528935  1
  H+  H55  1  1.09709454  0.21354731  0.67007789  1
  H+  H56  1  0.91349839  0.08173896  0.89776909  1
  H+  H57  1  0.36007251  -0.01193366  1.00705032  1
  H+  H58  1  0.62294868  0.97292532  0.15461137  1
  H+  H59  1  0.61575916  0.22933474  0.49156422  1
  H+  H60  1  0.35789175  0.47640084  0.82775130  1
  H+  H61  1  0.36898405  0.39806372  0.15792345  1
  H+  H62  1  1.01715329  0.61298564  1.00817618  1
  H+  H63  1  0.85424795  0.20266743  0.15574416  1
  H+  H64  1  0.10179744  0.38609840  0.82237306  1
  H+  H65  1  0.88716131  0.52008574  0.34411371  1
  H+  H66  1  1.06574579  0.91190882  0.09819518  1
  H+  H67  1  0.85491090  0.21733581  0.82496749  1
  H+  H68  1  0.15440372  0.11223828  0.83159450  1
  H+  H69  1  0.12752906  0.23550066  1.00814808  1
  H+  H70  1  0.09714516  0.59654623  0.01505717  1
  H+  H71  1  0.35704242  0.24103112  0.66088681  1
  H+  H72  1  0.13902228  0.74827229  0.65110397  1
  H+  H73  1  0.73021738  0.61604373  0.50277956  1
  H+  H74  1  0.72811003  0.10329805  0.17159821  1
  H+  H75  1  0.27448418  0.88978078  0.49673491  1
  H+  H76  1  0.27398976  0.88117281  0.34133455  1
  H+  H77  1  0.47211858  0.86298797  0.98849084  1
  H+  H78  1  0.85296438  -0.02337177  0.16302610  1
  H+  H79  1  0.76514719  0.12875031  0.82396064  1
  H+  H80  1  0.11026474  0.65157240  0.50744798  1
  H+  H81  1  0.36419029  0.24590131  -0.01171455  1
  H+  H82  1  0.83099083  0.15296520  0.06397733  1
  H+  H83  1  0.02283708  0.13206460  0.50034663  1
  H+  H84  1  0.42685476  0.83795118  0.21352919  1
  H+  H85  1  0.87599153  0.36045021  0.34955568  1
  H+  H86  1  0.77380070  0.39648188  0.82027972  1
  H+  H87  1  0.36882394  0.48521333  0.99727421  1
  H+  H88  1  0.96543574  0.85766574  0.83615229  1
  H+  H89  1  0.71268463  0.38715147  1.07466170  1
  H+  H90  1  0.63085734  0.02348713  0.50789272  1
  H+  H91  1  0.47681567  0.11450644  0.50887576  1
  H+  H92  1  0.88540398  0.60679063  0.33140022  1
  H+  H93  1  0.04263226  0.41991794  0.15756877  1
  H+  H94  1  0.22115865  0.19240810  0.13554551  1
  H+  H95  1  0.13459433  0.61989032  0.34658394  1
  H+  H96  1  0.12457070  0.09630596  0.66359923  1
  H+  H97  1  0.16084163  0.99372155  0.35940068  1
  H+  H98  1  0.51581260  0.39066503  0.00875374  1
  H+  H99  1  0.63605574  0.77127421  0.50346911  1
  H+  H100  1  0.25407788  0.11154095  0.67790275  1
  H+  H101  1  0.48002537  0.10850701  0.18409416  1
  H+  H102  1  0.88357081  1.01385835  0.64606718  1
  H+  H103  1  0.36392171  -0.02222457  0.49508404  1
  H+  H104  1  0.64486802  0.37369657  0.33434621  1
  H+  H105  1  0.86255351  0.97296913  0.49614625  1
  H+  H106  1  0.32391130  0.90610486  0.05417804  1
  H+  H107  1  0.15443480  0.58291504  0.58054822  1
  H+  H108  1  0.27661401  0.13783017  0.34483419  1
  H+  H109  1  0.11843953  0.40388234  0.13700118  1
  H+  H110  1  0.13911029  0.77146103  0.33659762  1
  H+  H111  1  0.76279097  0.63147929  0.15197862  1
  H+  H112  1  0.87971339  0.10204415  0.66088477  1
  H+  H113  1  0.94204388  0.45215291  0.21316367  1
  H+  H114  1  0.61201405  0.72875431  0.31948208  1
  H+  H115  1  0.72255750  0.11005520  0.50808118  1
  H+  H116  1  0.07250523  0.41734012  0.27941515  1
  H+  H117  1  0.88753455  0.62303161  -0.01199363  1
  H+  H118  1  0.11177475  0.38629759  0.00378638  1
  H+  H119  1  0.61395968  0.71904026  0.15967879  1
  H+  H120  1  0.35196672  -0.03616068  0.67621887  1
  H+  H121  1  0.76906575  0.39679272  0.50922607  1
  H+  H122  1  0.28225525  0.67807212  0.19909934  1
  H+  H123  1  0.08320645  0.71038133  0.16417196  1
  H+  H124  1  0.84711329  0.72236949  0.15424710  1
  H+  H125  1  0.88776163  0.86369496  0.50362442  1
  H+  H126  1  0.86888538  0.09370085  0.83748971  1
  H+  H127  1  0.64078635  0.50419964  0.66611359  1
  H+  H128  1  0.61570477  0.13912575  0.49539406  1
  H+  H129  1  0.58497788  0.43239069  0.75721538  1
  H+  H130  1  0.61474533  0.49140060  0.81770608  1
  H+  H131  1  0.13428686  0.53145410  0.33300218  1
  H+  H132  1  0.37759341  0.76882149  0.66856516  1
  H+  H133  1  0.14416830  0.12194412  0.98692690  1
  H+  H134  1  0.27550626  0.64090872  0.50475193  1
  H+  H135  1  0.39104688  0.52989088  0.16895011  1
  H+  H136  1  0.11412246  -0.02062816  1.00027106  1
  H+  H137  1  0.38556340  0.36260256  0.33220763  1
  H+  H138  1  0.88405571  0.52422023  0.83345222  1
  H+  H139  1  0.83626882  0.46903851  0.15868105  1
  H+  H140  1  0.35924378  0.72176070  0.34952225  1
  H+  H141  1  0.65450915  0.18789161  0.82388953  1
  H+  H142  1  0.73666547  0.34369586  0.17654188  1
  H+  H143  1  0.29189020  0.18380940  0.09657366  1
  H+  H144  1  0.17246147  0.06984104  0.27554403  1
  H+  H145  1  0.63648729  0.37249651  0.65631390  1
  H+  H146  1  0.36551450  0.60947097  0.99881914  1
  H+  H147  1  0.20395681  0.23067775  0.78232912  1
  H+  H148  1  0.62776396  0.97889258  0.67422333  1
  H+  H149  1  0.01114273  0.12268613  0.34202898  1
  H+  H150  1  0.26481027  0.62842821  0.82840343  1
  H+  H151  1  0.90815756  0.35921681  0.18531544  1
  H+  H152  1  0.21073919  0.85156589  0.84006411  1
  H+  H153  1  0.11488613  0.35650701  0.65950951  1
  H+  H154  1  0.75362696  0.62074209  0.65726198  1
  H+  H155  1  0.50318889  0.62674621  1.00760912  1
  H+  H156  1  0.83895236  0.66438497  0.75530968  1
  H+  H157  1  0.54659452  0.43053217  0.65640223  1
  H+  H158  1  -0.01960129  0.84736992  0.65426713  1
  H+  H159  1  0.21365627  0.82915499  0.17297188  1
  H+  H160  1  0.38756060  0.11405721  0.50941889  1
  H+  H161  1  1.02052334  0.40654786  0.67343213  1
  H+  H162  1  0.66198321  0.62536842  0.66029184  1
  H+  H163  1  0.13317371  0.10493595  0.32846215  1
  H+  H164  1  0.64794211  0.52794100  0.98340294  1
  H+  H165  1  0.36849079  0.85035770  0.31949320  1
  H+  H166  1  0.38488834  0.86647236  0.51145573  1
  H+  H167  1  0.89453399  0.39795612  1.00927815  1
  H+  H168  1  0.89050545  0.53554653  0.98552731  1
  H+  H169  1  0.61018153  0.63895218  0.32304920  1
  H+  H170  1  0.22838610  0.11469431  0.51273362  1
  H+  H171  1  0.50487685  0.38923370  0.16697728  1
  H+  H172  1  0.97524598  0.63075630  0.52420001  1
  H+  H173  1  0.60234172  0.24347721  1.02855061  1
  H+  H174  1  0.35909553  0.38283294  0.67418637  1
  H+  H175  1  0.50874244  0.13657861  0.84441528  1
  H+  H176  1  0.95262159  0.49179229  0.03795075  1
  H+  H177  1  0.85234488  0.12668803  0.34045656  1
  H+  H178  1  0.07647335  0.90407085  0.76702140  1
  H+  H179  1  0.35661689  0.42840951  1.05709182  1
  H+  H180  1  0.26616995  0.14327301  -0.01119368  1
  H+  H181  1  0.60992359  0.63254432  0.82397775  1
  H+  H182  1  0.11444465  0.74198522  0.50484952  1
  H+  H183  1  0.71311041  0.09415482  0.33364653  1
  H+  H184  1  0.87860035  0.35545435  0.83434572  1
  H+  H185  1  0.49092667  0.86059179  0.33066727  1
  H+  H186  1  0.12808092  0.35262430  0.33004929  1
  H+  H187  1  0.11030128  0.95768789  0.67348999  1
  H+  H188  1  0.27154193  0.78608774  0.10139481  1
  H+  H189  1  0.10603255  0.71413775  0.83276279  1
  H+  H190  1  0.77919728  0.76145656  0.28510463  1
  H+  H191  1  0.86345036  0.73227514  0.48702627  1
  H+  H192  1  0.75162587  0.87031063  0.85492741  1
  H+  H193  1  0.99610778  0.85446318  0.34962401  1
  H+  H194  1  0.94804416  0.10025833  0.18040715  1
  H+  H195  1  0.52152971  0.63303090  0.16546614  1
  H+  H196  1  0.14964331  0.35891783  0.50488588  1
  H+  H197  1  0.35797251  0.38754912  0.82753394  1
  H+  H198  1  0.74482307  0.60408914  -0.02109198  1
  H+  H199  1  0.21727957  0.37068432  0.83618741  1
  H+  H200  1  0.78079840  0.87948289  0.63845702  1
  H+  H201  1  0.17085225  0.83351815  0.57310718  1
  H+  H202  1  0.38541798  0.27282559  0.33161266  1
  H+  H203  1  0.38250529  0.60929736  0.33094064  1
  H+  H204  1  0.62806768  0.75948649  0.83327966  1
  H+  H205  1  0.38871249  0.61225361  0.51395922  1
  H+  H206  1  0.41785291  0.33646601  0.92478153  1
  H+  H207  1  0.73056561  0.09599771  0.98742462  1
  H+  H208  1  0.63546426  0.36521312  0.50491702  1
  H+  H209  1  0.64969369  0.86166784  0.65863450  1
  H+  H210  1  0.63731640  0.85660922  0.16281410  1
  H+  H211  1  0.99137803  0.36603720  0.49118272  1
  H+  H212  1  0.91876881  0.82722523  0.55955167  1
  H+  H213  1  0.27713336  0.38931343  0.35071398  1
  H+  H214  1  0.85021035  0.49057886  0.67539196  1
  H+  H215  1  0.38681755  0.36935534  0.98451879  1
  H+  H216  1  0.31606808  0.90498494  0.76146369  1
  H+  H217  1  0.88635516  0.54191920  0.52533579  1
  H+  H218  1  0.88864191  0.98731168  0.00468455  1
  H+  H219  1  0.13846766  0.11427394  0.51236788  1
  H+  H220  1  0.46839892  0.60888899  0.83814316  1
  H+  H221  1  -0.00735324  0.89284361  0.35895524  1
  H+  H222  1  0.05237965  0.64037390  0.10885039  1
  H+  H223  1  0.66409260  0.82525811  0.59575794  1
  H+  H224  1  0.32079229  -0.03606279  0.81718977  1
  H+  H225  1  0.43689132  0.03993231  0.84964833  1
  H+  H226  1  0.28199681  0.38348021  0.49936520  1
  H+  H227  1  1.01390181  0.12231482  0.67618069  1
  H+  H228  1  0.60989587  -0.03924150  0.82863847  1
  H+  H229  1  0.96773756  0.35691851  0.83511211  1
  H+  H230  1  0.39060150  0.52394628  0.51167645  1
  H+  H231  1  0.23126431  0.88133085  0.98883202  1
  H+  H232  1  0.86895268  0.73231071  0.00475177  1
  H+  H233  1  0.89692011  0.11827518  -0.00855128  1
  H+  H234  1  0.36376772  0.27734808  0.17641203  1
  H+  H235  1  0.16051011  0.87001700  0.33927425  1
  H+  H236  1  0.51597731  0.88815149  0.50141990  1
  H+  H237  1  0.23394820  0.09954980  0.84044005  1
  H+  H238  1  0.38530180  0.86699909  0.98452447  1
  H+  H239  1  0.38647413  0.77835832  0.51514007  1
  H+  H240  1  0.87172020  0.86143239  0.16821854  1
  H+  H241  1  0.62658054  0.84933505  0.83398207  1
  H+  H242  1  0.40440622  0.52855660  0.66485215  1
  H+  H243  1  0.28430635  0.40287691  0.14040807  1
  H+  H244  1  0.23216764  0.61258086  0.99955824  1
  H+  H245  1  0.02382509  0.88725822  -0.00322949  1
  H+  H246  1  0.17656113  0.35082383  1.06464439  1
  H+  H247  1  0.85564895  0.10884144  0.16895355  1
  H+  H248  1  0.90256337  0.87369138  0.99445428  1
  H+  H249  1  0.61286576  0.14469146  0.67146180  1
  H+  H250  1  0.37788685  0.13768189  0.82543053  1
  H+  H251  1  0.35393933  0.84898498  0.13754456  1
  H+  H252  1  0.35395843  0.87275857  0.67752990  1
  H+  H253  1  0.63470203  0.38904376  0.82803926  1
  H+  H254  1  0.37930346  0.60929985  0.83788418  1
  H+  H255  1  0.85085871  0.97648350  0.85649380  1
  H+  H256  1  0.38046581  0.64489873  0.67650075  1
  H+  H257  1  0.91155940  0.34684704  0.45276811  1
  H+  H258  1  0.12547899  0.47678618  0.50049506  1
  H+  H259  1  0.87938225  0.02153153  0.32949800  1
  H+  H260  1  0.47788319  0.36865310  0.83087500  1
  H+  H261  1  0.77286632  0.39071026  0.35733778  1
  H+  H262  1  0.84500086  0.71087945  0.33341852  1
  H+  H263  1  0.86213068  0.63665378  0.81849273  1
  H+  H264  1  0.98985288  0.12523018  0.98731652  1
  H+  H265  1  0.35254834  0.71201384  0.00757296  1
  H+  H266  1  0.47027443  0.11040714  0.66347581  1
  H+  H267  1  0.33336667  0.15461887  0.76785655  1
  H+  H268  1  0.97085259  0.57889484  0.18453219  1
  H+  H269  1  0.73407662  0.87585795  0.32514759  1
  H+  H270  1  0.35372279  0.71815356  0.82746471  1
  H+  H271  1  0.91012873  0.34544528  0.28705185  1
  H+  H272  1  0.87054570  0.88024984  0.63780639  1
  H+  H273  1  0.36476058  0.13609036  0.34681609  1
  H+  H274  1  0.60834766  0.07128925  0.85002791  1
  H+  H275  1  0.97393302  0.35168575  0.98462867  1
  H+  H276  1  0.51669282  0.87672252  0.82350471  1
  H+  H277  1  0.63048502  0.51912775  0.32684421  1
  H+  H278  1  0.37192252  0.64546728  0.15241512  1
  H+  H279  1  0.86391931  0.21876062  0.49150020  1
  H+  H280  1  0.33771585  0.42071284  0.73262738  1
  H+  H281  1  0.61796267  0.64205497  0.49898059  1
  H+  H282  1  0.47387696  0.13399090  0.00372049  1
  H+  H283  1  0.60165410  0.11094916  0.34677435  1
  H+  H284  1  0.60378087  0.49476473  0.17010548  1
  H+  H285  1  0.65408509  0.88591548  0.30656674  1
  H+  H286  1  0.13202601  0.60734712  0.84208435  1
  H+  H287  1  0.88724484  0.10807060  0.50832520  1
  H+  H288  1  0.64011555  0.81308109  0.93270493  1
  H+  H289  1  0.50509850  0.11219862  0.34660534  1
  H+  H290  1  0.63792964  0.00796349  0.98722689  1
  H+  H291  1  0.36479362  0.47892551  0.34326616  1
  H+  H292  1  0.40640804  0.83333945  0.61164542  1
  H+  H293  1  0.91144647  0.58687423  0.89174459  1
  H+  H294  1  0.34274447  0.41904371  0.44066821  1
  H+  H295  1  0.65547280  0.57269213  0.23495231  1
  H+  H296  1  0.91287550  0.34228455  0.60000577  1
  H+  H297  1  0.83139147  0.66817199  0.06248631  1
  H+  H298  1  0.67812495  0.57941309  0.88753595  1
  H+  H299  1  0.01218127  0.37992414  0.33474365  1
  H+  H300  1  1.10207563  0.47457687  0.82821994  1
  H+  H301  1  0.16308429  0.84033160  0.92835943  1
  H+  H302  1  0.86129946  0.40397382  0.51392803  1
  H+  H303  1  0.40523267  0.33123851  0.23846376  1
  H+  H304  1  0.86376597  0.64473001  0.49470633  1
  H+  H305  1  0.66715310  0.06772728  0.90534747  1
  H+  H306  1  0.16622449  0.31008936  0.28732725  1
  H+  H307  1  0.59729223  0.91446439  0.73028310  1
  H+  H308  1  0.81815625  0.86715376  0.74552015  1
  H+  H309  1  0.83323900  0.42061977  0.76169914  1
  H+  H310  1  0.02596463  0.88858832  0.49728501  1
  H+  H311  1  0.40161022  0.77166747  0.15658169  1
  H+  H312  1  0.77213746  0.88495186  0.49401430  1
  H+  H313  1  0.41296548  0.07845244  0.60368184  1
  H+  H314  1  0.13339206  0.87986595  -0.00892250  1
  H+  H315  1  0.23269004  0.01267720  0.21067871  1
  H+  H316  1  0.36525721  0.14876192  0.99517026  1
  H+  H317  1  0.85561111  0.92803164  0.06432090  1
  H+  H318  1  0.41169499  0.83148306  0.89575101  1
  H+  H319  1  0.85899098  0.90966546  0.74655770  1
  H+  H320  1  0.91834091  0.08168109  0.56848723  1
  H+  H321  1  0.41454891  0.32407402  0.56871153  1
  H+  H322  1  0.91982899  0.83289777  0.93329544  1
  H+  H323  1  0.58370654  0.66205642  0.76351437  1
  H+  H324  1  0.11865435  0.43618009  0.43541062  1
  H+  H325  1  0.90684099  0.32192345  0.92970352  1
  H+  H326  1  0.90174992  0.07890192  0.26863817  1
  H+  H327  1  0.56558857  0.91461003  0.43862831  1
  H+  H328  1  0.42141082  0.08082213  0.27815473  1
  H+  H329  1  0.68120999  0.33731311  0.28278200  1
  H+  H330  1  0.24036909  0.37440308  1.01040701  1
  H+  H331  1  0.33459118  0.66718841  0.08848205  1
  H+  H332  1  0.13430396  0.28142534  0.83349391  1
  H+  H333  1  0.07346140  0.42124276  0.05316660  1
  H+  H334  1  0.07819112  0.43130281  0.73277180  1
  H+  H335  1  0.83063205  0.42328653  0.41914991  1
  H+  H336  1  0.86918542  0.81046679  0.25282692  1
  H+  H337  1  0.07726342  0.15323383  0.43924771  1
  H+  H338  1  0.33597606  0.66259489  0.73242648  1
  H+  H339  1  0.56255334  0.42484894  0.10403168  1
  H+  H340  1  0.17036595  0.08525820  0.92705522  1
  H+  H341  1  0.10236557  0.95485346  0.16247029  1
  H+  H342  1  0.56888081  0.16569620  0.07397344  1
  H+  H343  1  0.95714733  0.85634734  0.17263184  1
  H+  H344  1  0.33464073  0.91220784  0.40053034  1
  H+  H345  1  0.12333131  0.54620672  0.66985224  1
  H+  H346  1  0.89250329  0.61498473  0.61725885  1
  H+  H347  1  0.42617870  0.10045987  0.93950877  1
  H+  H348  1  0.82919220  0.16571476  0.73009758  1
  H+  H349  1  0.40059639  0.58379225  0.93602123  1
  H+  H350  1  0.61791630  0.48067202  0.49670728  1
  H+  H351  1  0.76958985  0.88476097  0.15082552  1
  H+  H352  1  0.67183780  0.83223040  0.22256257  1
  H+  H353  1  0.67893540  0.58844282  0.56555395  1
  H+  H354  1  0.66214970  0.08828761  0.60282493  1
  H+  H355  1  0.60995663  0.75601907  0.99284678  1
  H+  H356  1  0.15989656  0.07160053  0.60503723  1
  H+  H357  1  0.07777210  0.67140652  0.41345932  1
  H+  H358  1  0.44616371  0.31969866  0.67247621  1
  H+  H359  1  0.43173985  0.58750196  0.60562256  1
  H+  H360  1  0.84632112  0.21313455  0.34434580  1
  H+  H361  1  0.33854928  0.76811474  0.27429020  1
  H+  H362  1  0.18278261  0.36891270  0.19178912  1
  H+  H363  1  0.82982472  0.91465643  0.40262835  1
  H+  H364  1  0.57776150  0.15356089  0.40853502  1
  H+  H365  1  0.09956298  0.16996185  0.06020118  1
  H+  H366  1  0.83039767  0.66183810  0.39740104  1
  H+  H367  1  0.82597676  0.15412743  0.43584620  1
  H+  H368  1  0.56814982  0.65330064  0.06300928  1
  H+  H369  1  0.76891500  0.39695997  0.66864298  1
  H+  H370  1  0.58166337  0.41981005  0.40224944  1
  H+  H371  1  0.62650004  0.72586466  0.67102853  1
  H+  H372  1  0.16472641  0.81637474  0.23538932  1
  H+  H373  1  0.66964814  0.37214857  0.89039845  1
  H+  H374  1  0.58853503  0.18077435  0.72997778  1
  H+  H375  1  0.14771220  0.32440933  0.60331714  1
  H+  H376  1  0.11038453  0.86749820  0.67569775  1
  H+  H377  1  0.58029461  0.91152725  0.05785880  1
  H+  H378  1  0.16715996  0.58131663  0.90117273  1
  H+  H379  1  0.33250922  0.66781150  0.44472593  1
  H+  H380  1  0.72625237  0.38288271  1.00572939  1
  H+  H381  1  0.66544324  0.07188629  0.23114964  1
  H+  H382  1  0.22471417  0.64921950  0.26080037  1
  H+  H383  1  0.72416715  0.12112357  0.66061103  1
  O2-  O384  1  0.13685509  0.20187567  0.13510086  1
  O2-  O385  1  0.08331250  0.16138497  0.48416247  1
  O2-  O386  1  0.14570360  0.18869863  0.79473427  1
  O2-  O387  1  0.08840775  0.43629503  0.12743538  1
  O2-  O388  1  0.10315403  0.42102946  0.47790788  1
  O2-  O389  1  0.06944638  0.41585486  0.80934763  1
  O2-  O390  1  0.03744158  0.65319052  0.14928817  1
  O2-  O391  1  0.07914141  0.67951889  0.49160086  1
  O2-  O392  1  0.08197620  0.65562379  0.81661488  1
  O2-  O393  1  0.04978431  0.91522130  0.14034512  1
  O2-  O394  1  0.08964908  0.91903060  0.49082523  1
  O2-  O395  1  0.07413250  0.90571062  0.81275922  1
  O2-  O396  1  0.27365504  0.18465407  0.13837625  1
  O2-  O397  1  0.33341476  0.16428362  0.48483047  1
  O2-  O398  1  0.34098716  0.16134583  0.81334039  1
  O2-  O399  1  0.34919347  0.43247643  0.13478881  1
  O2-  O400  1  0.34349829  0.41731958  0.48599619  1
  O2-  O401  1  0.32639780  0.41556769  0.81214105  1
  O2-  O402  1  0.34567850  0.67922981  0.13768676  1
  O2-  O403  1  0.33472769  0.66984322  0.49049427  1
  O2-  O404  1  0.32588302  0.65765433  0.81347870  1
  O2-  O405  1  0.30250209  0.84523265  0.11613880  1
  O2-  O406  1  0.33416306  0.91744552  0.47971045  1
  O2-  O407  1  0.31287014  0.90730077  0.80882375  1
  O2-  O408  1  0.57635248  0.14994538  0.15097118  1
  O2-  O409  1  0.58497490  0.16802257  0.47734980  1
  O2-  O410  1  0.60840956  0.19968896  0.81386279  1
  O2-  O411  1  0.56508608  0.42443506  0.15044573  1
  O2-  O412  1  0.58746249  0.41966061  0.48110884  1
  O2-  O413  1  0.58185075  0.42896422  0.80250574  1
  O2-  O414  1  0.58182028  0.65609101  0.14989799  1
  O2-  O415  1  0.58913636  0.67391183  0.48545747  1
  O2-  O416  1  0.57715517  0.66028374  0.80899780  1
  O2-  O417  1  0.59519624  0.91365750  0.13728588  1
  O2-  O418  1  0.57542321  0.91876754  0.48271584  1
  O2-  O419  1  0.57796665  0.90250743  0.81041329  1
  O2-  O420  1  0.82166313  0.14271032  0.14363791  1
  O2-  O421  1  0.82914703  0.15715127  0.48135979  1
  O2-  O422  1  0.82497865  0.15717582  0.80855534  1
  O2-  O423  1  0.79614231  0.42276135  0.13011839  1
  O2-  O424  1  0.83212492  0.43395019  0.49880350  1
  O2-  O425  1  0.83365655  0.41750807  0.80710134  1
  O2-  O426  1  0.82163023  0.66371328  0.13640247  1
  O2-  O427  1  0.83269832  0.67046334  0.47347691  1
  O2-  O428  1  0.83323437  0.66742700  0.80097122  1
  O2-  O429  1  0.83218760  0.91964737  0.14180718  1
  O2-  O430  1  0.83259002  0.91422458  0.47793009  1
  O2-  O431  1  0.81715961  0.90659513  0.86403002  1
  O2-  O432  1  0.19631147  0.03797948  0.20465636  1
  O2-  O433  1  0.16847349  0.08431596  0.52892894  1
  O2-  O434  1  0.17248066  0.07386633  0.85260869  1
  O2-  O435  1  0.18107538  0.35414901  0.14909501  1
  O2-  O436  1  0.17744489  0.32809817  0.52206545  1
  O2-  O437  1  0.15580600  0.34022956  0.84822992  1
  O2-  O438  1  0.26378897  0.69829498  0.23517491  1
  O2-  O439  1  0.13296924  0.56330848  0.53736426  1
  O2-  O440  1  0.16328194  0.57650711  0.85574633  1
  O2-  O441  1  0.15718119  0.81182060  0.19069077  1
  O2-  O442  1  0.17293739  0.83960423  0.52752368  1
  O2-  O443  1  0.15395564  0.82727486  0.86092885  1
  O2-  O444  1  0.42200743  0.08705910  0.20340792  1
  O2-  O445  1  0.41710467  0.08278754  0.52457273  1
  O2-  O446  1  0.44846591  0.09787786  0.85888448  1
  O2-  O447  1  0.40567053  0.33478438  0.19265923  1
  O2-  O448  1  0.42157386  0.33042986  0.52388227  1
  O2-  O449  1  0.41942445  0.33466406  0.84934094  1
  O2-  O450  1  0.41973093  0.58910548  0.18679730  1
  O2-  O451  1  0.42137406  0.58413529  0.52708314  1
  O2-  O452  1  0.40863963  0.57808245  0.85398724  1
  O2-  O453  1  0.43137667  0.83637814  0.16906445  1
  O2-  O454  1  0.41742026  0.83940238  0.52835818  1
  O2-  O455  1  0.41183591  0.83029647  0.84976246  1
  O2-  O456  1  0.66563082  0.07390140  0.18633813  1
  O2-  O457  1  0.66186429  0.08482750  0.52191368  1
  O2-  O458  1  0.66052160  0.06876236  0.85648654  1
  O2-  O459  1  0.69817459  0.29764337  0.20638709  1
  O2-  O460  1  0.66490409  0.33341022  0.51994023  1
  O2-  O461  1  0.66733794  0.36123753  0.84687992  1
  O2-  O462  1  0.64868634  0.56958546  0.18886234  1
  O2-  O463  1  0.67103922  0.58320636  0.52033578  1
  O2-  O464  1  0.66953117  0.58526136  0.84250536  1
  O2-  O465  1  0.66633841  0.82433202  0.17783902  1
  O2-  O466  1  0.66828156  0.83416357  0.51723029  1
  O2-  O467  1  0.65699872  0.81967622  0.85063157  1
  O2-  O468  1  0.88958790  0.07197533  0.19587165  1
  O2-  O469  1  0.91951345  0.07986965  0.52269730  1
  O2-  O470  1  0.89763640  0.06301360  0.85422754  1
  O2-  O471  1  0.94877826  0.39789920  0.21548087  1
  O2-  O472  1  0.92761909  0.33967433  0.49387215  1
  O2-  O473  1  0.90629517  0.32298709  0.84957475  1
  O2-  O474  1  0.92256059  0.52566283  0.20695371  1
  O2-  O475  1  0.91406192  0.60326364  0.53742324  1
  O2-  O476  1  0.91142073  0.58544981  0.84614003  1
  O2-  O477  1  0.89516544  0.82525377  0.18568304  1
  O2-  O478  1  0.91933075  0.83273873  0.51395587  1
  O2-  O479  1  0.90620816  0.82634097  0.85316949  1
  O2-  O480  1  0.17433855  0.08468964  0.31916094  1
  O2-  O481  1  0.15538701  0.06539835  0.65050025  1
  O2-  O482  1  0.17551190  0.09103373  0.97288985  1
  O2-  O483  1  0.16139294  0.32166175  0.32999199  1
  O2-  O484  1  0.12457678  0.31019766  0.64499509  1
  O2-  O485  1  0.17730889  0.34305656  1.02032817  1
  O2-  O486  1  0.17003984  0.59423780  0.33137688  1
  O2-  O487  1  0.15627685  0.60604403  0.65168094  1
  O2-  O488  1  0.17131211  0.58430407  0.97960415  1
  O2-  O489  1  0.17459897  0.82888712  0.31763633  1
  O2-  O490  1  0.16096446  0.81157407  0.64764390  1
  O2-  O491  1  0.16811264  0.84926914  0.97534296  1
  O2-  O492  1  0.42007695  0.07764464  0.32413555  1
  O2-  O493  1  0.40976162  0.07680209  0.64914269  1
  O2-  O494  1  0.41393130  0.10140436  0.98339617  1
  O2-  O495  1  0.41440146  0.33233937  0.31434002  1
  O2-  O496  1  0.39490132  0.30299196  0.64821827  1
  O2-  O497  1  0.41243947  0.33210204  0.97058236  1
  O2-  O498  1  0.40793303  0.57714156  0.31164578  1
  O2-  O499  1  0.43792428  0.58989941  0.65072962  1
  O2-  O500  1  0.39779890  0.57844223  0.98098640  1
  O2-  O501  1  0.38903171  0.81303801  0.30031080  1
  O2-  O502  1  0.39857619  0.83047990  0.65616291  1
  O2-  O503  1  0.41216351  0.83370198  0.97106053  1
  O2-  O504  1  0.65214576  0.06553168  0.31822318  1
  O2-  O505  1  0.66243382  0.09225936  0.64797620  1
  O2-  O506  1  0.67204381  0.06717292  0.96933232  1
  O2-  O507  1  0.68099392  0.34705920  0.32678685  1
  O2-  O508  1  0.66495819  0.33993947  0.64258489  1
  O2-  O509  1  0.68063536  0.36504735  1.03579771  1
  O2-  O510  1  0.66324796  0.57793627  0.30811495  1
  O2-  O511  1  0.68938683  0.59320596  0.64265158  1
  O2-  O512  1  0.69569224  0.55904771  0.95502996  1
  O2-  O513  1  0.67732388  0.84744806  0.30230363  1
  O2-  O514  1  0.67134057  0.82424926  0.64073085  1
  O2-  O515  1  0.63700140  0.81648831  0.97727745  1
  O2-  O516  1  0.90807952  0.08236315  0.31505292  1
  O2-  O517  1  0.91594753  0.07933727  0.64495492  1
  O2-  O518  1  0.92962549  0.09233045  0.97263530  1
  O2-  O519  1  0.90439844  0.32919307  0.33094094  1
  O2-  O520  1  0.91097128  0.34302837  0.64428000  1
  O2-  O521  1  0.91066505  0.32205504  0.97505959  1
  O2-  O522  1  0.91858615  0.57671047  0.32304399  1
  O2-  O523  1  0.87857014  0.60282161  0.66115532  1
  O2-  O524  1  0.91663840  0.59367486  0.96794816  1
  O2-  O525  1  0.84006390  0.79418363  0.29507892  1
  O2-  O526  1  0.92287561  0.81729386  0.63459701  1
  O2-  O527  1  0.92895228  0.83797716  0.97807280  1
  O2-  O528  1  0.09681768  0.17162457  0.01491705  1
  O2-  O529  1  0.07075933  0.14703355  0.35908608  1
  O2-  O530  1  0.07666070  0.15415739  0.68678069  1
  O2-  O531  1  0.07481396  0.41269407  0.00794134  1
  O2-  O532  1  0.07514773  0.41073477  0.32344317  1
  O2-  O533  1  0.08097423  0.43917354  0.68729240  1
  O2-  O534  1  0.04609756  0.59339411  0.03685425  1
  O2-  O535  1  0.08065658  0.66693991  0.36826107  1
  O2-  O536  1  0.09724562  0.63468296  0.64375566  1
  O2-  O537  1  0.08669442  0.91815467  0.01228512  1
  O2-  O538  1  0.16632139  0.94800418  0.38015275  1
  O2-  O539  1  0.08051969  0.89828090  0.69051622  1
  O2-  O540  1  0.33054654  0.17997557  0.00447482  1
  O2-  O541  1  0.33726541  0.16931493  0.36025867  1
  O2-  O542  1  0.31572804  0.14483405  0.69222437  1
  O2-  O543  1  0.34874352  0.42320990  0.01187176  1
  O2-  O544  1  0.33870302  0.41942756  0.36127200  1
  O2-  O545  1  0.34601189  0.42694569  0.68783236  1
  O2-  O546  1  0.32297388  0.65454296  0.02593048  1
  O2-  O547  1  0.33363203  0.66398601  0.36864373  1
  O2-  O548  1  0.34498077  0.67060157  0.68790015  1
  O2-  O549  1  0.32659029  0.92454954  0.01057811  1
  O2-  O550  1  0.33634308  0.91336320  0.35500166  1
  O2-  O551  1  0.32109633  0.90478828  0.69300976  1
  O2-  O552  1  0.56468560  0.18086059  0.03098818  1
  O2-  O553  1  0.57025863  0.14133157  0.36214933  1
  O2-  O554  1  0.58167713  0.17551919  0.68538509  1
  O2-  O555  1  0.56956480  0.42601679  0.03197154  1
  O2-  O556  1  0.58218126  0.41969666  0.35671816  1
  O2-  O557  1  0.59769235  0.44023365  0.67844105  1
  O2-  O558  1  0.56517744  0.65419773  0.01841323  1
  O2-  O559  1  0.57543080  0.66724786  0.32806624  1
  O2-  O560  1  0.60046270  0.66554122  0.68718488  1
  O2-  O561  1  0.57307713  0.90878738  0.01293708  1
  O2-  O562  1  0.54825797  0.88595698  0.35114850  1
  O2-  O563  1  0.61304716  0.92058949  0.68676929  1
  O2-  O564  1  0.83446040  0.15590449  0.01854139  1
  O2-  O565  1  0.81723268  0.15204333  0.35729765  1
  O2-  O566  1  0.82937062  0.16679761  0.68456377  1
  O2-  O567  1  0.89155766  0.44536884  0.03134662  1
  O2-  O568  1  0.83386298  0.41683527  0.37438700  1
  O2-  O569  1  0.82974384  0.42898893  0.68336430  1
  O2-  O570  1  0.83787288  0.67058556  0.01665114  1
  O2-  O571  1  0.82686023  0.65376632  0.35192279  1
  O2-  O572  1  0.84233226  0.65786215  0.67905641  1
  O2-  O573  1  0.86732804  0.92838334  0.02013099  1
  O2-  O574  1  0.82772307  0.91785055  0.35676261  1
  O2-  O575  1  0.84359574  0.91570418  0.63040780  1
