# generated using pymatgen
data_H2O
_symmetry_space_group_name_H-M   'P 1'
_cell_length_a   17.96533989
_cell_length_b   17.97006186
_cell_length_c   21.99531250
_cell_angle_alpha   89.96108128
_cell_angle_beta   90.03171491
_cell_angle_gamma   119.95715947
_symmetry_Int_Tables_number   1
_chemical_formula_structural   H2O
_chemical_formula_sum   'H384 O192'
_cell_volume   6152.23595793
_cell_formula_units_Z   192
loop_
 _symmetry_equiv_pos_site_id
 _symmetry_equiv_pos_as_xyz
  1  'x, y, z'
loop_
 _atom_type_symbol
 _atom_type_oxidation_number
  H+  1.0
  O2-  -2.0
loop_
 _atom_site_type_symbol
 _atom_site_label
 _atom_site_symmetry_multiplicity
 _atom_site_fract_x
 _atom_site_fract_y
 _atom_site_fract_z
 _atom_site_occupancy
  H+  H0  1  0.08726150  0.33926060  0.51138850  1
  H+  H1  1  0.22612070  0.60554076  0.50043857  1
  H+  H2  1  0.59099684  0.36372946  0.49118587  1
  H+  H3  1  0.97784446  0.09372060  0.83292548  1
  H+  H4  1  0.38433842  0.98257839  0.19850732  1
  H+  H5  1  0.12421713  0.60268686  0.32699637  1
  H+  H6  1  0.11183836  0.46675497  0.48588425  1
  H+  H7  1  0.13556284  0.77428778  0.85031140  1
  H+  H8  1  0.88237955  0.35542379  0.17601272  1
  H+  H9  1  0.36380019  0.60478668  0.34857062  1
  H+  H10  1  0.90657361  0.08663035  0.55423396  1
  H+  H11  1  0.52526306  0.12915042  0.34587593  1
  H+  H12  1  0.90575406  0.82225932  0.54825143  1
  H+  H13  1  0.37154031  0.26552244  0.84113826  1
  H+  H14  1  0.37482478  0.78831817  0.65540151  1
  H+  H15  1  0.63413704  0.76630941  0.82437829  1
  H+  H16  1  0.86178314  -0.00825171  0.33985708  1
  H+  H17  1  0.38163422  0.24018109  0.33976483  1
  H+  H18  1  0.27998280  0.12955424  0.82184895  1
  H+  H19  1  0.66782275  0.62316025  0.34009280  1
  H+  H20  1  0.90150781  0.79166565  0.82456259  1
  H+  H21  1  0.86669819  0.14256294  0.48560434  1
  H+  H22  1  0.88395807  0.36597551  0.50216656  1
  H+  H23  1  0.34093382  0.36706034  0.81777678  1
  H+  H24  1  0.34041261  0.32902525  0.31829546  1
  H+  H25  1  0.95876699  0.85856036  0.48724447  1
  H+  H26  1  0.35683174  0.75413996  0.48831405  1
  H+  H27  1  0.40974988  0.12620177  0.33273109  1
  H+  H28  1  0.64612003  0.27238803  0.66294583  1
  H+  H29  1  0.27201049  0.39760633  0.00822864  1
  H+  H30  1  0.36316664  0.63726288  0.80105286  1
  H+  H31  1  0.11090605  0.48020643  0.01107932  1
  H+  H32  1  0.76433669  0.11778296  0.81382852  1
  H+  H33  1  0.62984199  0.77742383  1.02621357  1
  H+  H34  1  0.39008464  1.00781113  0.49245976  1
  H+  H35  1  0.48663941  0.12093949  0.17484408  1
  H+  H36  1  0.27731446  0.14037652  0.15734620  1
  H+  H37  1  0.35732043  0.47517440  0.16932578  1
  H+  H38  1  0.36146731  0.97630203  0.34075984  1
  H+  H39  1  0.60128498  0.87660975  0.00948358  1
  H+  H40  1  0.86454503  0.64192511  0.16969886  1
  H+  H41  1  0.33619073  0.16682166  0.09762021  1
  H+  H42  1  0.64825175  0.52676422  0.19190351  1
  H+  H43  1  0.61379971  0.09955943  0.87005118  1
  H+  H44  1  0.88570286  0.93251818  0.16030302  1
  H+  H45  1  0.45774902  0.35153637  0.83647365  1
  H+  H46  1  0.50665610  0.60826176  0.47619740  1
  H+  H47  1  0.13750062  0.61754215  0.00204022  1
  H+  H48  1  0.34754699  0.92359801  0.43048514  1
  H+  H49  1  0.97360813  0.35965770  0.17623704  1
  H+  H50  1  0.58704155  0.44417943  0.80780958  1
  H+  H51  1  0.64218730  0.28729288  0.99501519  1
  H+  H52  1  0.83962804  0.67507683  0.07480435  1
  H+  H53  1  0.11444262  0.41513254  0.83327221  1
  H+  H54  1  0.77416157  0.90101094  0.33992401  1
  H+  H55  1  0.11283178  0.98938847  0.66712278  1
  H+  H56  1  0.76604755  0.38749634  0.66896264  1
  H+  H57  1  0.38305882  0.69458222  0.61493544  1
  H+  H58  1  0.98053673  0.61342982  0.84371151  1
  H+  H59  1  0.39479432  0.11706071  0.17270011  1
  H+  H60  1  0.97927080  0.66799733  0.52338158  1
  H+  H61  1  0.97516533  0.86366105  0.64852282  1
  H+  H62  1  1.01651460  0.13503390  0.33538223  1
  H+  H63  1  0.86168199  0.40044472  0.66649950  1
  H+  H64  1  0.61848395  0.38772381  0.34223149  1
  H+  H65  1  0.87832998  0.23861501  1.01814642  1
  H+  H66  1  0.12238494  0.64685345  0.84618117  1
  H+  H67  1  0.08425699  0.29532540  0.82809241  1
  H+  H68  1  0.88146412  0.77252431  0.98983525  1
  H+  H69  1  0.25861828  0.63080833  0.34129197  1
  H+  H70  1  0.43401952  0.16990871  0.64235127  1
  H+  H71  1  0.22252552  0.90320606  0.60306177  1
  H+  H72  1  0.96848040  0.60640694  0.33858583  1
  H+  H73  1  0.61062467  -0.02273749  0.15807269  1
  H+  H74  1  0.38249929  0.59039492  0.65305436  1
  H+  H75  1  0.62928647  0.48055708  0.34990366  1
  H+  H76  1  0.85572226  0.72186958  0.46655126  1
  H+  H77  1  0.66661857  0.32889072  0.23878108  1
  H+  H78  1  0.15932206  0.84387276  0.93901507  1
  H+  H79  1  0.13211709  0.12035922  0.65676525  1
  H+  H80  1  0.12003441  0.72102060  0.48541187  1
  H+  H81  1  0.44515364  0.60151940  0.37052970  1
  H+  H82  1  0.64344076  0.27345808  0.84206622  1
  H+  H83  1  0.59859588  0.97170446  0.87000354  1
  H+  H84  1  0.37855627  0.85520250  0.33185745  1
  H+  H85  1  0.13812919  0.59792900  0.50409653  1
  H+  H86  1  0.48446389  0.86351753  0.16531936  1
  H+  H87  1  0.75253186  0.61736827  0.35298561  1
  H+  H88  1  0.46243041  0.34605796  0.49372103  1
  H+  H89  1  0.77252010  0.38306059  0.16662736  1
  H+  H90  1  0.85859476  0.17724671  0.07728500  1
  H+  H91  1  0.44334346  0.29499715  0.66102084  1
  H+  H92  1  0.61353885  0.48437969  1.01602163  1
  H+  H93  1  0.09936401  0.62692003  0.18217481  1
  H+  H94  1  0.11368182  0.73003979  0.00813311  1
  H+  H95  1  0.13191889  0.37153294  0.99473023  1
  H+  H96  1  0.87325018  0.11486075  0.64527743  1
  H+  H97  1  0.22076999  0.60896974  0.18209455  1
  H+  H98  1  0.34080186  0.45534372  0.80797689  1
  H+  H99  1  0.62114600  0.22975309  0.16656268  1
  H+  H100  1  0.13566142  0.87204180  1.00204355  1
  H+  H101  1  0.11472629  0.88353696  0.82109090  1
  H+  H102  1  0.85907056  0.47281078  0.17035175  1
  H+  H103  1  0.90015501  0.11933433  0.00333385  1
  H+  H104  1  1.02010852  0.39107830  1.01126391  1
  H+  H105  1  0.29039409  0.63005666  0.64348858  1
  H+  H106  1  0.09762464  0.22347624  0.67577720  1
  H+  H107  1  0.10385960  0.46758442  0.33782218  1
  H+  H108  1  0.80855130  0.66438924  0.83626327  1
  H+  H109  1  0.10751799  -0.00516187  1.00684034  1
  H+  H110  1  0.84611977  0.50747218  0.64052149  1
  H+  H111  1  0.88330314  0.36789148  1.00280988  1
  H+  H112  1  0.77453878  0.39552592  0.01164361  1
  H+  H113  1  0.87060796  0.48333463  0.49049423  1
  H+  H114  1  0.59094598  0.95504022  -0.01599357  1
  H+  H115  1  0.13155056  0.10196231  0.50348872  1
  H+  H116  1  0.15467408  0.12480496  0.98330913  1
  H+  H117  1  0.63550493  0.01913670  0.32964594  1
  H+  H118  1  0.59294932  0.62322601  0.80534040  1
  H+  H119  1  1.02944093  0.42055593  0.83563280  1
  H+  H120  1  0.72241807  0.61166142  0.48931103  1
  H+  H121  1  0.38680923  0.76498822  0.17649672  1
  H+  H122  1  -0.03007948  0.35550025  0.32806078  1
  H+  H123  1  0.46982853  0.58715589  0.65499361  1
  H+  H124  1  0.45342102  0.87921801  0.67133809  1
  H+  H125  1  0.40214973  0.47659088  0.50752842  1
  H+  H126  1  0.57379356  0.90890045  0.39541562  1
  H+  H127  1  0.61509401  0.13146243  0.34662236  1
  H+  H128  1  0.36732977  0.23269032  1.00309969  1
  H+  H129  1  0.47525543  0.85804606  0.85187167  1
  H+  H130  1  0.61162134  0.62982780  0.19553387  1
  H+  H131  1  0.97155605  0.59363149  0.72146765  1
  H+  H132  1  0.77219076  0.39063021  0.82477355  1
  H+  H133  1  0.37230703  0.88999375  -0.01890754  1
  H+  H134  1  0.84503660  0.88109283  0.48602422  1
  H+  H135  1  0.07904386  0.43203440  0.73778725  1
  H+  H136  1  0.10701709  0.72096793  0.33603014  1
  H+  H137  1  0.35070033  0.20944510  0.49683518  1
  H+  H138  1  0.13165083  0.51859005  0.17513443  1
  H+  H139  1  0.78218367  0.14825825  0.84024492  1
  H+  H140  1  0.35167513  0.46119983  0.66651749  1
  H+  H141  1  0.35216759  0.46386373  0.35906956  1
  H+  H142  1  0.85439513  0.23038119  0.34003116  1
  H+  H143  1  0.88355872  0.12548004  0.32787660  1
  H+  H144  1  0.13129790  0.11392009  0.32422703  1
  H+  H145  1  0.64050023  0.37509052  -0.00627053  1
  H+  H146  1  0.19070739  0.81635550  0.15088953  1
  H+  H147  1  0.42114222  0.07696945  0.62942998  1
  H+  H148  1  0.03505346  0.72148195  0.64959471  1
  H+  H149  1  0.20363824  0.71271941  0.46588782  1
  H+  H150  1  0.85804862  0.97791367  0.00589249  1
  H+  H151  1  0.11659307  0.97761946  0.33409122  1
  H+  H152  1  0.13020469  0.26730888  0.32907746  1
  H+  H153  1  0.53556653  0.15018109  0.00678212  1
  H+  H154  1  0.88398271  0.28686022  0.65056701  1
  H+  H155  1  0.05762432  0.80599583  0.49036870  1
  H+  H156  1  0.14854413  1.01368483  0.83439357  1
  H+  H157  1  0.27401645  0.17357996  0.67029042  1
  H+  H158  1  0.83249296  0.42160773  0.07267420  1
  H+  H159  1  0.61942925  0.64630210  1.04418546  1
  H+  H160  1  0.85159513  0.88629009  0.00357839  1
  H+  H161  1  0.55654787  0.38307829  0.72183833  1
  H+  H162  1  0.77218982  0.89071479  0.80845954  1
  H+  H163  1  0.39583525  0.90682306  0.48843637  1
  H+  H164  1  0.15121638  0.54693371  0.84685239  1
  H+  H165  1  0.27052054  0.88797274  0.34474612  1
  H+  H166  1  0.52559366  0.39500736  0.00920152  1
  H+  H167  1  0.84277853  0.60029036  0.64287728  1
  H+  H168  1  0.85876523  0.72619803  0.66312324  1
  H+  H169  1  0.83407397  0.92003396  0.57661831  1
  H+  H170  1  0.69701260  0.57871891  0.78437267  1
  H+  H171  1  0.56262029  0.64366845  0.32085434  1
  H+  H172  1  0.22463023  0.86376059  0.85082497  1
  H+  H173  1  0.64354260  0.84858405  0.85683266  1
  H+  H174  1  0.28233750  0.13946137  0.99926279  1
  H+  H175  1  0.73448070  0.62545322  1.01478179  1
  H+  H176  1  0.48315418  0.11242202  0.50333458  1
  H+  H177  1  0.59671827  0.36513900  0.66387323  1
  H+  H178  1  0.88468356  0.52843484  -0.00138641  1
  H+  H179  1  0.88874397  0.52557481  0.83816425  1
  H+  H180  1  0.64552459  0.11678155  0.17396445  1
  H+  H181  1  0.24948194  0.37385164  0.66617250  1
  H+  H182  1  0.85889462  0.47423609  0.34618757  1
  H+  H183  1  0.76478570  0.13647644  0.34331491  1
  H+  H184  1  0.12205645  0.20708843  0.82441036  1
  H+  H185  1  0.64595972  0.26996325  0.50914876  1
  H+  H186  1  0.26811103  0.63019362  1.02891659  1
  H+  H187  1  0.29490265  0.89586837  0.20619625  1
  H+  H188  1  1.02528964  0.64211498  1.00584446  1
  H+  H189  1  0.37386069  0.99760455  -0.01857752  1
  H+  H190  1  0.64761741  1.04840903  0.61573673  1
  H+  H191  1  0.39073005  0.52458233  1.01418190  1
  H+  H192  1  0.86114356  0.38498448  0.34289892  1
  H+  H193  1  0.62060573  0.50076151  0.65194930  1
  H+  H194  1  0.16359811  0.50989803  0.65473511  1
  H+  H195  1  0.21960043  0.35472950  0.33724468  1
  H+  H196  1  0.01552460  0.12437494  0.48717520  1
  H+  H197  1  0.72726699  0.36459826  0.50691789  1
  H+  H198  1  0.18706689  0.55144698  0.58766219  1
  H+  H199  1  0.12206577  0.68825517  0.67949731  1
  H+  H200  1  0.02240866  0.89338972  0.33096349  1
  H+  H201  1  0.12701919  0.98596402  0.16402616  1
  H+  H202  1  0.71437511  0.86519403  0.00917094  1
  H+  H203  1  -0.01549380  0.87544053  0.17224544  1
  H+  H204  1  0.07090955  0.91193254  0.42146150  1
  H+  H205  1  0.64930479  0.78496408  0.33269319  1
  H+  H206  1  0.13234503  0.86119757  0.32686576  1
  H+  H207  1  0.19147936  0.34718627  0.82489000  1
  H+  H208  1  0.88154768  0.60687335  0.35458671  1
  H+  H209  1  0.52850517  0.39068024  0.16716119  1
  H+  H210  1  0.62650967  0.76771152  0.19419678  1
  H+  H211  1  0.03981728  0.69159121  0.62791995  1
  H+  H212  1  0.70972366  0.59143561  0.65504373  1
  H+  H213  1  0.60250170  0.61720427  0.65877557  1
  H+  H214  1  0.97385862  0.36616090  0.49884881  1
  H+  H215  1  0.89262773  0.79156701  0.17258439  1
  H+  H216  1  0.87996873  0.63998888  0.82269813  1
  H+  H217  1  0.87271174  0.02385647  0.49557772  1
  H+  H218  1  0.07980501  0.41460725  0.10404862  1
  H+  H219  1  0.02670907  0.25960781  0.55195813  1
  H+  H220  1  0.09567111  -0.04151341  0.48712533  1
  H+  H221  1  0.40048927  0.12776975  0.98966474  1
  H+  H222  1  0.54603763  0.15576349  0.67765762  1
  H+  H223  1  0.09322061  0.71073940  0.19402546  1
  H+  H224  1  0.36055687  0.63716638  0.18274122  1
  H+  H225  1  0.66138632  0.05248135  1.03590402  1
  H+  H226  1  0.56894505  0.39746457  0.42871289  1
  H+  H227  1  0.45742280  0.25310400  0.38391878  1
  H+  H228  1  0.27611118  0.90563364  -0.01347391  1
  H+  H229  1  0.14580373  0.25329778  1.00899160  1
  H+  H230  1  0.13253673  0.11605204  0.17222998  1
  H+  H231  1  0.60411079  0.63272188  0.47828110  1
  H+  H232  1  0.76303001  0.15040255  0.63471766  1
  H+  H233  1  0.36552951  0.88394670  0.83739301  1
  H+  H234  1  0.46427889  0.85045946  0.32835739  1
  H+  H235  1  0.53568512  0.14164805  0.82771311  1
  H+  H236  1  0.63603067  0.26622699  0.33307472  1
  H+  H237  1  0.66729334  0.58253911  0.55050183  1
  H+  H238  1  0.12590068  0.36462804  0.67021279  1
  H+  H239  1  0.58852651  0.15868830  0.44041966  1
  H+  H240  1  0.35757142  0.63138848  0.03429829  1
  H+  H241  1  0.33958980  0.17930858  0.76425263  1
  H+  H242  1  0.22570091  0.12952242  0.32269543  1
  H+  H243  1  0.90989525  0.32811731  0.26878146  1
  H+  H244  1  0.59411983  0.36150215  0.82209862  1
  H+  H245  1  0.87924097  1.06114773  0.16445071  1
  H+  H246  1  0.62526009  0.95838232  0.70186116  1
  H+  H247  1  0.63838223  0.36238626  0.17994041  1
  H+  H248  1  0.35572308  0.92194658  0.64079955  1
  H+  H249  1  0.13368687  0.89061704  0.62898220  1
  H+  H250  1  0.52765202  0.63960287  1.04555916  1
  H+  H251  1  0.88055018  0.03136957  0.81667786  1
  H+  H252  1  0.09957322  0.79970667  0.55045416  1
  H+  H253  1  0.96751855  0.86125065  0.98360567  1
  H+  H254  1  0.76595078  0.87331635  0.62711199  1
  H+  H255  1  0.60037447  0.70620655  0.65320458  1
  H+  H256  1  0.38483753  0.36785529  0.99446084  1
  H+  H257  1  0.50794050  0.87788744  0.52004875  1
  H+  H258  1  0.10693293  0.37883856  0.33798479  1
  H+  H259  1  0.62928300  0.85623653  0.18028637  1
  H+  H260  1  0.64692557  0.85448829  0.64775532  1
  H+  H261  1  0.47012940  0.60497288  0.20134358  1
  H+  H262  1  0.13709262  0.32468868  0.60806540  1
  H+  H263  1  0.38672126  0.77104462  0.83621526  1
  H+  H264  1  0.13405737  0.27560274  0.17883162  1
  H+  H265  1  0.65386212  0.96867371  0.49347120  1
  H+  H266  1  0.38812973  0.36601682  0.16828244  1
  H+  H267  1  0.39673630  0.03193083  0.84144846  1
  H+  H268  1  0.88888329  0.36896080  0.84096436  1
  H+  H269  1  0.10942216  0.38529312  0.16443238  1
  H+  H270  1  0.77939544  0.64616125  0.16995490  1
  H+  H271  1  0.39777837  0.12103515  0.83242434  1
  H+  H272  1  0.02084461  0.39820812  0.67636980  1
  H+  H273  1  0.86291954  0.64104947  0.01321530  1
  H+  H274  1  0.88546868  0.85982830  0.63642248  1
  H+  H275  1  -0.01644630  0.56209455  0.70923617  1
  H+  H276  1  0.72502578  0.35552136  0.33239597  1
  H+  H277  1  0.38736398  0.10882476  0.49893894  1
  H+  H278  1  0.94594408  0.17899058  0.81635878  1
  H+  H279  1  0.21609841  0.09435088  0.50559611  1
  H+  H280  1  0.46361625  0.59932511  0.80991990  1
  H+  H281  1  0.17723739  0.59286062  0.94617659  1
  H+  H282  1  0.61352109  0.88381568  0.33968114  1
  H+  H283  1  0.35032865  0.72132149  0.33973799  1
  H+  H284  1  0.39492984  0.86665301  0.19425654  1
  H+  H285  1  0.19982211  0.22568716  0.04918435  1
  H+  H286  1  0.97865837  0.10407340  1.00885833  1
  H+  H287  1  0.46123116  0.86417574  0.99565048  1
  H+  H288  1  0.96896570  0.24727731  0.76226485  1
  H+  H289  1  0.56823399  0.65636013  0.74662569  1
  H+  H290  1  0.03090022  0.89366006  0.81808733  1
  H+  H291  1  0.30470453  0.86446820  0.09435151  1
  H+  H292  1  0.66817079  0.33927986  0.89814534  1
  H+  H293  1  0.89595746  0.88548202  0.32605110  1
  H+  H294  1  0.02405771  0.95559955  0.04737503  1
  H+  H295  1  0.16798532  0.09180248  0.23093400  1
  H+  H296  1  0.88660570  0.62509148  0.49298656  1
  H+  H297  1  0.82309552  0.92313916  0.43040804  1
  H+  H298  1  0.83472808  0.41952502  0.43365759  1
  H+  H299  1  0.92189780  0.35081938  0.59595033  1
  H+  H300  1  0.08555797  0.17926552  0.10211321  1
  H+  H301  1  0.75136101  0.13284203  1.01766393  1
  H+  H302  1  0.83303095  0.17667443  0.42312254  1
  H+  H303  1  0.15574603  0.57101365  0.26962711  1
  H+  H304  1  0.84979678  0.94838700  0.09905180  1
  H+  H305  1  0.33176685  0.91266135  0.78094228  1
  H+  H306  1  0.15766350  0.33978927  0.93368398  1
  H+  H307  1  0.86485351  0.90471558  0.80365838  1
  H+  H308  1  0.43426753  0.10432384  0.92852522  1
  H+  H309  1  0.37289032  0.30408908  0.25805752  1
  H+  H310  1  0.31505840  0.69303058  0.42953477  1
  H+  H311  1  0.43992731  0.60467240  0.96918951  1
  H+  H312  1  0.92244835  0.85782410  0.26438587  1
  H+  H313  1  0.96216099  0.60283712  0.19216607  1
  H+  H314  1  0.88392429  0.58172547  0.57411720  1
  H+  H315  1  0.07556996  0.15890481  0.39557717  1
  H+  H316  1  0.42481435  0.08839260  0.27079508  1
  H+  H317  1  0.64855213  0.08278412  0.93370661  1
  H+  H318  1  0.01020831  0.13370491  0.66957304  1
  H+  H319  1  0.70886052  0.88550541  0.49705427  1
  H+  H320  1  0.32612202  0.41739167  0.07104628  1
  H+  H321  1  0.71898850  0.97664018  0.70680484  1
  H+  H322  1  0.80263429  0.16504147  0.70095117  1
  H+  H323  1  1.01388621  0.15479198  0.15407141  1
  H+  H324  1  0.16826926  0.83194137  0.27128847  1
  H+  H325  1  0.92650042  0.30311260  0.84211638  1
  H+  H326  1  0.26933670  0.38644177  0.16590240  1
  H+  H327  1  0.24058132  0.63371629  0.84224548  1
  H+  H328  1  0.17356776  0.07837349  0.92645258  1
  H+  H329  1  0.15000861  0.10264113  0.83404826  1
  H+  H330  1  0.40210435  0.57112520  0.25516859  1
  H+  H331  1  0.41101637  0.33765823  0.93356321  1
  H+  H332  1  0.86952781  0.23968724  0.48931919  1
  H+  H333  1  0.59151986  0.17540665  0.10506748  1
  H+  H334  1  0.91515328  0.34034672  0.94315546  1
  H+  H335  1  0.73035584  0.10741729  0.17822102  1
  H+  H336  1  0.33713236  0.39104598  0.40749280  1
  H+  H337  1  0.62852251  0.14719361  0.66756844  1
  H+  H338  1  0.20843714  0.71086307  0.71114401  1
  H+  H339  1  0.16561593  0.33396455  0.23892276  1
  H+  H340  1  0.66772553  0.84264957  0.27273271  1
  H+  H341  1  0.62745197  0.15643558  0.01640630  1
  H+  H342  1  0.90954974  0.10305188  0.26468964  1
  H+  H343  1  0.40327490  0.82673591  0.93465889  1
  H+  H344  1  0.38998257  0.27762914  0.16551330  1
  H+  H345  1  0.83052509  0.42226411  0.76475981  1
  H+  H346  1  0.66773090  0.32769920  0.60017345  1
  H+  H347  1  0.58646317  0.66317034  0.39330225  1
  H+  H348  1  0.66595215  0.61229668  0.96385743  1
  H+  H349  1  0.09635409  0.92777980  0.10481864  1
  H+  H350  1  0.91713361  0.84262612  0.88608333  1
  H+  H351  1  0.91081595  0.58517217  0.93785109  1
  H+  H352  1  0.30309445  0.33342433  0.50713667  1
  H+  H353  1  0.08763606  0.15349660  0.76294621  1
  H+  H354  1  0.09698180  0.21357465  0.49468672  1
  H+  H355  1  0.31609045  0.96946515  0.67661537  1
  H+  H356  1  0.08707493  0.92118724  0.72104113  1
  H+  H357  1  0.65105688  0.11462574  0.56189871  1
  H+  H358  1  0.31273811  0.39342975  0.72769081  1
  H+  H359  1  0.57978380  0.65943975  0.13775754  1
  H+  H360  1  0.34024983  0.68359669  0.74942977  1
  H+  H361  1  0.87500900  1.02553287  0.63922963  1
  H+  H362  1  0.60197130  0.92812187  0.80846167  1
  H+  H363  1  0.10123537  0.67176395  0.78339769  1
  H+  H364  1  0.83778077  0.66952389  0.72421296  1
  H+  H365  1  0.07493777  0.40525573  0.42633253  1
  H+  H366  1  0.57911273  0.92041091  0.09656421  1
  H+  H367  1  0.27738616  0.81742940  0.08696022  1
  H+  H368  1  0.60397378  0.16636228  0.77431868  1
  H+  H369  1  0.89530271  0.57326769  0.24670770  1
  H+  H370  1  0.43393410  0.85743493  0.56726068  1
  H+  H371  1  0.16606503  0.09052320  0.59912455  1
  H+  H372  1  0.32840772  0.66128301  0.12002529  1
  H+  H373  1  0.41136064  0.54375736  0.55648311  1
  H+  H374  1  0.64414210  0.81773154  0.58226573  1
  H+  H375  1  0.09649991  0.66652195  0.39495939  1
  H+  H376  1  0.67200461  0.56463819  0.85317273  1
  H+  H377  1  0.87870068  0.21764054  0.17511839  1
  H+  H378  1  0.66553289  0.07995604  0.27083819  1
  H+  H379  1  0.59041433  0.42233765  0.11007950  1
  H+  H380  1  0.68832031  0.58521897  0.25187044  1
  H+  H381  1  0.15095676  0.87408719  0.17132153  1
  H+  H382  1  0.33822766  0.16007135  0.43631311  1
  H+  H383  1  0.39756703  0.56976674  0.86496068  1
  O2-  O384  1  0.07513429  0.17317511  0.14654062  1
  O2-  O385  1  0.07722862  0.15683673  0.47528569  1
  O2-  O386  1  0.09657878  0.14904502  0.80749866  1
  O2-  O387  1  0.07741105  0.41395892  0.14954703  1
  O2-  O388  1  0.07298207  0.40575868  0.47243930  1
  O2-  O389  1  0.08896156  0.44902686  0.81747796  1
  O2-  O390  1  0.06340843  0.65402310  0.17513771  1
  O2-  O391  1  0.14001647  0.68392531  0.46517905  1
  O2-  O392  1  0.08819990  0.67153971  0.82749273  1
  O2-  O393  1  0.10041247  0.92482285  0.14959062  1
  O2-  O394  1  0.05936849  0.90269382  0.46650492  1
  O2-  O395  1  0.09093872  0.91779580  0.80220414  1
  O2-  O396  1  0.33786484  0.16858383  0.14295003  1
  O2-  O397  1  0.32601958  0.14920135  0.48055207  1
  O2-  O398  1  0.34107290  0.16768780  0.80842663  1
  O2-  O399  1  0.32901089  0.41814115  0.14858698  1
  O2-  O400  1  0.35801688  0.36160388  0.48548035  1
  O2-  O401  1  0.30841995  0.39301388  0.79761616  1
  O2-  O402  1  0.33212001  0.66878958  0.16659946  1
  O2-  O403  1  0.30298270  0.70719767  0.47132848  1
  O2-  O404  1  0.33947772  0.67637351  0.79361866  1
  O2-  O405  1  0.35749041  0.92087117  0.21052167  1
  O2-  O406  1  0.35875856  0.93105775  0.47609094  1
  O2-  O407  1  0.33532265  0.91641982  0.82514256  1
  O2-  O408  1  0.59247115  0.16922438  0.15017617  1
  O2-  O409  1  0.58758913  0.16012833  0.48641125  1
  O2-  O410  1  0.59853506  0.16752851  0.81962769  1
  O2-  O411  1  0.59049013  0.42053774  0.15519282  1
  O2-  O412  1  0.54889767  0.37604189  0.47168693  1
  O2-  O413  1  0.55576283  0.38126741  0.80341199  1
  O2-  O414  1  0.57529244  0.65531872  0.18319781  1
  O2-  O415  1  0.56411573  0.64974333  0.45926223  1
  O2-  O416  1  0.56272656  0.65381429  0.79244860  1
  O2-  O417  1  0.57829549  0.91731771  0.14168576  1
  O2-  O418  1  0.62984584  0.92670587  0.52682213  1
  O2-  O419  1  0.58228840  0.91361212  0.85027520  1
  O2-  O420  1  0.85049412  0.15663720  0.15887563  1
  O2-  O421  1  0.83999775  0.17851223  0.47148516  1
  O2-  O422  1  0.97515717  0.24433846  0.80607767  1
  O2-  O423  1  0.83337242  0.41393888  0.15171683  1
  O2-  O424  1  0.83782582  0.42212269  0.47992018  1
  O2-  O425  1  0.83315833  0.42090846  0.80995935  1
  O2-  O426  1  0.83854695  0.67535376  0.15216430  1
  O2-  O427  1  0.83236303  0.65990979  0.45570572  1
  O2-  O428  1  0.85100408  0.67241025  0.80557626  1
  O2-  O429  1  0.86934570  0.97164453  0.14062413  1
  O2-  O430  1  0.81852456  0.91773633  0.47662561  1
  O2-  O431  1  0.82926370  0.92876960  0.78928119  1
  O2-  O432  1  0.16744607  0.09019389  0.18532046  1
  O2-  O433  1  0.15637710  0.06839902  0.52160266  1
  O2-  O434  1  0.18044636  0.07361921  0.85183748  1
  O2-  O435  1  0.16608557  0.33624277  0.19333447  1
  O2-  O436  1  0.08665341  0.29343116  0.53925881  1
  O2-  O437  1  0.13993667  0.32723892  0.85087226  1
  O2-  O438  1  0.15904973  0.57693729  0.19416876  1
  O2-  O439  1  0.16703143  0.56452411  0.51521933  1
  O2-  O440  1  0.18552581  0.60610423  0.86458889  1
  O2-  O441  1  0.17882504  0.84068116  0.18681797  1
  O2-  O442  1  0.06418507  0.76306360  0.51487893  1
  O2-  O443  1  0.16329303  0.83642329  0.86304135  1
  O2-  O444  1  0.42686820  0.09112620  0.19168614  1
  O2-  O445  1  0.41924935  0.07764283  0.51083620  1
  O2-  O446  1  0.42934601  0.09394821  0.85153349  1
  O2-  O447  1  0.41821958  0.33604889  0.18416564  1
  O2-  O448  1  0.39953300  0.31657590  0.51283110  1
  O2-  O449  1  0.39832959  0.32748058  0.85351864  1
  O2-  O450  1  0.40672011  0.57586251  0.21036762  1
  O2-  O451  1  0.41050800  0.53476573  0.51234562  1
  O2-  O452  1  0.39945172  0.56767957  0.82071998  1
  O2-  O453  1  0.42460263  0.83054900  0.18450735  1
  O2-  O454  1  0.44535026  0.85572580  0.52346537  1
  O2-  O455  1  0.41110491  0.82681481  0.85831743  1
  O2-  O456  1  0.66905553  0.07998595  0.18969413  1
  O2-  O457  1  0.62848206  0.10852943  0.50145357  1
  O2-  O458  1  0.60951840  0.05468421  0.89890397  1
  O2-  O459  1  0.66799440  0.33034867  0.19306004  1
  O2-  O460  1  0.66819964  0.32993915  0.52342454  1
  O2-  O461  1  0.66678998  0.33563206  0.85263861  1
  O2-  O462  1  0.67824538  0.58696747  0.20697458  1
  O2-  O463  1  0.66668338  0.59676101  0.50750295  1
  O2-  O464  1  0.64894493  0.56142037  0.81248520  1
  O2-  O465  1  0.65860196  0.83055149  0.20225065  1
  O2-  O466  1  0.64635664  0.85707331  0.50863880  1
  O2-  O467  1  0.67602157  0.82085822  0.84362534  1
  O2-  O468  1  0.90430687  0.12187422  0.18294482  1
  O2-  O469  1  0.90603172  0.08605451  0.50847897  1
  O2-  O470  1  0.92084189  0.08875644  0.83540675  1
  O2-  O471  1  0.91295778  0.32513771  0.19137875  1
  O2-  O472  1  0.91382540  0.33388416  0.51623892  1
  O2-  O473  1  0.92867980  0.35370127  0.86202455  1
  O2-  O474  1  0.89855527  0.57365623  0.20151931  1
  O2-  O475  1  0.92317064  0.61102438  0.52074745  1
  O2-  O476  1  0.91794610  0.58587669  0.85416375  1
  O2-  O477  1  0.92366193  0.85363183  0.18323620  1
  O2-  O478  1  0.89811741  0.82594034  0.50381432  1
  O2-  O479  1  0.92633649  0.85017549  0.84132537  1
  O2-  O480  1  0.16747555  0.08946975  0.30873839  1
  O2-  O481  1  0.17069640  0.09805237  0.64442512  1
  O2-  O482  1  0.17380929  0.08339993  0.97241293  1
  O2-  O483  1  0.16211469  0.32939986  0.31712825  1
  O2-  O484  1  0.15284255  0.33187010  0.65233665  1
  O2-  O485  1  0.16605148  0.34488191  0.97829312  1
  O2-  O486  1  0.15453309  0.57052263  0.31540525  1
  O2-  O487  1  0.21176597  0.54809896  0.62763478  1
  O2-  O488  1  0.16795410  0.58477848  0.99067291  1
  O2-  O489  1  0.16468059  0.83048823  0.31594390  1
  O2-  O490  1  0.15993407  0.87122894  0.59748297  1
  O2-  O491  1  0.16895622  0.84804487  0.98438549  1
  O2-  O492  1  0.42386508  0.08300960  0.31610018  1
  O2-  O493  1  0.46428518  0.13656971  0.63905790  1
  O2-  O494  1  0.43241481  0.09910686  0.97411149  1
  O2-  O495  1  0.34127865  0.28080443  0.29701274  1
  O2-  O496  1  0.39386796  0.23979429  0.64616081  1
  O2-  O497  1  0.41581422  0.33872062  0.97893639  1
  O2-  O498  1  0.39728254  0.57336631  0.34201472  1
  O2-  O499  1  0.40664975  0.55307780  0.64370889  1
  O2-  O500  1  0.42687136  0.58954124  1.01184176  1
  O2-  O501  1  0.40242257  0.81862205  0.31859170  1
  O2-  O502  1  0.40139386  0.85124297  0.64672202  1
  O2-  O503  1  0.40178149  0.84090447  0.97868886  1
  O2-  O504  1  0.66699937  0.08074470  0.31618214  1
  O2-  O505  1  0.66971508  0.10973579  0.60942655  1
  O2-  O506  1  0.68700103  0.10323515  1.00982914  1
  O2-  O507  1  0.66540847  0.32532042  0.31549947  1
  O2-  O508  1  0.66932554  0.33200340  0.64580874  1
  O2-  O509  1  0.67226957  0.34676127  0.97766993  1
  O2-  O510  1  0.69595349  0.58933605  0.32937651  1
  O2-  O511  1  0.65061847  0.56222479  0.63880995  1
  O2-  O512  1  0.67002027  0.59722666  1.00576452  1
  O2-  O513  1  0.67155279  0.84572657  0.31928295  1
  O2-  O514  1  0.65529044  0.81099590  0.62599489  1
  O2-  O515  1  0.65097775  0.83126527  1.00253294  1
  O2-  O516  1  0.91389735  0.09736678  0.30919403  1
  O2-  O517  1  0.90849542  0.08882243  0.63221388  1
  O2-  O518  1  0.92312552  0.08219400  0.98923116  1
  O2-  O519  1  0.90831287  0.32727391  0.31448045  1
  O2-  O520  1  0.91919391  0.34940176  0.64131542  1
  O2-  O521  1  0.91448450  0.33764865  0.98836098  1
  O2-  O522  1  0.90556073  0.57598460  0.32972363  1
  O2-  O523  1  0.84457790  0.55523239  0.61580966  1
  O2-  O524  1  0.91183813  0.58876062  0.98289384  1
  O2-  O525  1  0.92854904  0.85917447  0.30925353  1
  O2-  O526  1  0.91552537  0.82615473  0.63268849  1
  O2-  O527  1  0.90786168  0.82933433  0.96855986  1
  O2-  O528  1  0.14324370  0.20194161  0.03034664  1
  O2-  O529  1  0.07719857  0.16088938  0.35019959  1
  O2-  O530  1  0.06920213  0.16162139  0.68722480  1
  O2-  O531  1  0.08149104  0.41840761  0.02481891  1
  O2-  O532  1  0.07305630  0.40609894  0.35249335  1
  O2-  O533  1  0.07994537  0.42115061  0.69342036  1
  O2-  O534  1  0.08615290  0.66874930  0.01861544  1
  O2-  O535  1  0.07866367  0.66053878  0.35118206  1
  O2-  O536  1  0.14676823  0.67114546  0.71260641  1
  O2-  O537  1  0.06476035  0.94076397  0.02947078  1
  O2-  O538  1  0.08401167  0.91679065  0.34709917  1
  O2-  O539  1  0.08126322  0.92651823  0.67646658  1
  O2-  O540  1  0.34100943  0.17157138  0.01724940  1
  O2-  O541  1  0.40171532  0.20862245  0.36843051  1
  O2-  O542  1  0.32692420  0.21745704  0.69258336  1
  O2-  O543  1  0.33100742  0.42115080  0.02538341  1
  O2-  O544  1  0.32340014  0.40049414  0.36578791  1
  O2-  O545  1  0.31230361  0.39822908  0.68071622  1
  O2-  O546  1  0.32482404  0.65792292  0.04994243  1
  O2-  O547  1  0.31817323  0.66133951  0.35853351  1
  O2-  O548  1  0.35166302  0.68170695  0.65340103  1
  O2-  O549  1  0.33931403  0.93249651  -0.02184436  1
  O2-  O550  1  0.33160505  0.91728951  0.35866156  1
  O2-  O551  1  0.33375919  0.96231710  0.63617113  1
  O2-  O552  1  0.59342801  0.18482979  0.02586433  1
  O2-  O553  1  0.58482985  0.16091726  0.36331688  1
  O2-  O554  1  0.60531648  0.17468705  0.69518400  1
  O2-  O555  1  0.58484845  0.42215869  0.02606244  1
  O2-  O556  1  0.58983237  0.41846509  0.35851244  1
  O2-  O557  1  0.55791231  0.38746303  0.67675284  1
  O2-  O558  1  0.58736374  0.67320421  0.06151621  1
  O2-  O559  1  0.60947137  0.67787390  0.34880431  1
  O2-  O560  1  0.57107859  0.64787332  0.67233131  1
  O2-  O561  1  0.56814780  0.91080525  0.01551950  1
  O2-  O562  1  0.57918838  0.91329085  0.35134984  1
  O2-  O563  1  0.67097841  0.95783903  0.67845250  1
  O2-  O564  1  0.85240624  0.17745939  0.03245591  1
  O2-  O565  1  0.82622373  0.17051204  0.35874395  1
  O2-  O566  1  0.82019491  0.17323747  0.65833352  1
  O2-  O567  1  0.83498427  0.42387568  0.02706356  1
  O2-  O568  1  0.82917204  0.41212972  0.36029257  1
  O2-  O569  1  0.82843490  0.42767568  0.68138219  1
  O2-  O570  1  0.83464317  0.67336953  0.02901501  1
  O2-  O571  1  0.84377879  0.66338040  0.38889573  1
  O2-  O572  1  0.82591926  0.66594692  0.67998712  1
  O2-  O573  1  0.82503329  0.91757213  0.02207427  1
  O2-  O574  1  0.83426875  0.93270923  0.35703477  1
  O2-  O575  1  0.82873195  0.91516037  0.62090943  1
