# generated using pymatgen
data_H2O
_symmetry_space_group_name_H-M   'P 1'
_cell_length_a   17.99728946
_cell_length_b   18.00027415
_cell_length_c   22.00851026
_cell_angle_alpha   90.01308672
_cell_angle_beta   90.00422228
_cell_angle_gamma   120.01128888
_symmetry_Int_Tables_number   1
_chemical_formula_structural   H2O
_chemical_formula_sum   'H384 O192'
_cell_volume   6173.87829158
_cell_formula_units_Z   192
loop_
 _symmetry_equiv_pos_site_id
 _symmetry_equiv_pos_as_xyz
  1  'x, y, z'
loop_
 _atom_type_symbol
 _atom_type_oxidation_number
  H+  1.0
  O2-  -2.0
loop_
 _atom_site_type_symbol
 _atom_site_label
 _atom_site_symmetry_multiplicity
 _atom_site_fract_x
 _atom_site_fract_y
 _atom_site_fract_z
 _atom_site_occupancy
  H+  H0  1  0.04951007  0.14401578  0.34458074  1
  H+  H1  1  0.58368948  0.42008578  0.73250800  1
  H+  H2  1  0.27359633  0.38147348  0.83140016  1
  H+  H3  1  0.59331944  0.15385904  0.10301130  1
  H+  H4  1  0.37509660  0.22312147  0.00574319  1
  H+  H5  1  0.88258828  0.52889139  -0.00152552  1
  H+  H6  1  0.79121437  0.16355457  0.33817679  1
  H+  H7  1  0.14285782  0.26684152  0.66906621  1
  H+  H8  1  0.38216793  0.88112524  0.00840436  1
  H+  H9  1  0.52800659  0.38519118  0.82769986  1
  H+  H10  1  0.15988815  0.66712647  0.65016041  1
  H+  H11  1  0.35522020  0.96747489  0.68065799  1
  H+  H12  1  0.60310825  0.12579874  0.16759631  1
  H+  H13  1  0.13821258  0.52558433  0.84706868  1
  H+  H14  1  0.83898757  0.42825072  0.39067208  1
  H+  H15  1  0.37931053  0.11170513  0.17204245  1
  H+  H16  1  0.87966094  0.84305348  0.16446656  1
  H+  H17  1  0.14641196  0.87677328  0.66427396  1
  H+  H18  1  0.51101957  0.87993429  0.16298550  1
  H+  H19  1  0.63804904  0.27881830  0.66445923  1
  H+  H20  1  0.72849340  0.11753763  0.66105683  1
  H+  H21  1  0.12849016  0.35024676  0.67739597  1
  H+  H22  1  0.91330538  0.43453960  0.35044048  1
  H+  H23  1  0.07380395  0.14197691  -0.01266807  1
  H+  H24  1  0.69760333  0.85970756  0.85769957  1
  H+  H25  1  0.76909566  0.37213751  0.17793744  1
  H+  H26  1  0.62181258  0.00987128  0.18064205  1
  H+  H27  1  0.49294076  0.33792763  0.48925529  1
  H+  H28  1  0.11383601  0.14728887  0.83382564  1
  H+  H29  1  0.54120678  0.12991644  0.98855573  1
  H+  H30  1  0.38578118  0.41417518  0.51922790  1
  H+  H31  1  0.48747470  0.11355943  0.84466571  1
  H+  H32  1  0.52965417  0.13656285  0.67965410  1
  H+  H33  1  0.39448773  0.36364805  0.35209980  1
  H+  H34  1  0.76495877  0.63233081  0.33697359  1
  H+  H35  1  0.22840891  0.38367708  0.15166877  1
  H+  H36  1  0.61165973  0.46913581  0.33521461  1
  H+  H37  1  0.78899958  0.56471449  0.79854509  1
  H+  H38  1  0.46679291  0.10905842  0.17113116  1
  H+  H39  1  0.09617868  0.15866990  0.14468606  1
  H+  H40  1  0.35460180  0.63645670  0.16645122  1
  H+  H41  1  0.61320374  0.37575545  0.16746069  1
  H+  H42  1  0.60565731  0.71039254  0.14612046  1
  H+  H43  1  0.90237304  0.14048078  0.84816339  1
  H+  H44  1  0.22121670  0.86013398  0.18096174  1
  H+  H45  1  0.84911770  0.77295861  0.32506883  1
  H+  H46  1  0.63992138  0.26947732  0.51555975  1
  H+  H47  1  0.66477754  0.33531715  0.60349682  1
  H+  H48  1  0.88483103  0.37772253  0.65274968  1
  H+  H49  1  0.11623538  0.88922561  0.18516517  1
  H+  H50  1  0.35136363  0.86209262  0.33945047  1
  H+  H51  1  0.02063519  0.63141003  0.49584924  1
  H+  H52  1  0.14823487  0.84830003  0.98080759  1
  H+  H53  1  0.85306085  0.63773163  0.66521339  1
  H+  H54  1  0.35616570  0.09857902  0.65680502  1
  H+  H55  1  0.59879177  0.87749283  0.15202783  1
  H+  H56  1  0.11171722  0.46784565  0.48809211  1
  H+  H57  1  0.62298074  0.23028102  0.82842433  1
  H+  H58  1  0.70330719  0.09717412  0.88678444  1
  H+  H59  1  0.62496417  0.45738817  0.00595130  1
  H+  H60  1  0.36268357  0.47017284  0.82629367  1
  H+  H61  1  0.40650604  0.11740881  0.99801489  1
  H+  H62  1  0.02620714  0.39096611  0.83421621  1
  H+  H63  1  0.90959315  0.91874666  0.33920282  1
  H+  H64  1  0.17267985  0.04484033  0.51450545  1
  H+  H65  1  0.63793343  0.60112561  0.16112460  1
  H+  H66  1  0.82392950  0.07861534  0.98329697  1
  H+  H67  1  0.89762923  0.78159416  0.50291745  1
  H+  H68  1  0.64985716  0.03237133  0.83191920  1
  H+  H69  1  0.29616777  0.15168865  0.35677897  1
  H+  H70  1  0.16614134  -0.00859701  0.36363062  1
  H+  H71  1  0.28093490  0.64919488  0.33344759  1
  H+  H72  1  0.36151469  0.49602161  0.33745912  1
  H+  H73  1  0.61390293  0.76936036  0.84188436  1
  H+  H74  1  0.11066796  0.93068566  0.45146326  1
  H+  H75  1  0.24160430  0.65412879  0.21305673  1
  H+  H76  1  0.22060990  0.60618785  0.50125308  1
  H+  H77  1  0.89087778  0.53627614  0.33010508  1
  H+  H78  1  0.34253184  0.16606399  0.06737025  1
  H+  H79  1  0.88660953  0.24512683  0.34515751  1
  H+  H80  1  0.85969729  0.87955457  0.99307569  1
  H+  H81  1  0.51494157  0.92730960  0.01441864  1
  H+  H82  1  0.64487596  1.06076470  0.33452726  1
  H+  H83  1  0.63999590  0.11638446  0.66438509  1
  H+  H84  1  0.60272220  0.72735146  0.00165014  1
  H+  H85  1  0.90128650  1.05165876  0.15048598  1
  H+  H86  1  0.13660132  0.86482939  0.51725656  1
  H+  H87  1  0.81327582  0.91485851  0.46217471  1
  H+  H88  1  0.35649420  0.60954594  0.67855469  1
  H+  H89  1  0.53394297  0.37139928  0.00387722  1
  H+  H90  1  0.60574997  0.63998468  0.82923840  1
  H+  H91  1  0.31773812  0.12228120  0.50223137  1
  H+  H92  1  0.89608652  0.03454691  0.64830227  1
  H+  H93  1  0.88043974  0.52925248  0.65728368  1
  H+  H94  1  0.37616218  0.77627460  0.50451052  1
  H+  H95  1  0.38965896  0.35704924  0.83790922  1
  H+  H96  1  0.89494153  0.04088815  0.18407878  1
  H+  H97  1  0.11575855  0.25567063  0.14100642  1
  H+  H98  1  1.02317164  0.38064242  0.48199385  1
  H+  H99  1  0.97096836  0.85402055  0.18389318  1
  H+  H100  1  0.47326543  0.35773251  0.16106024  1
  H+  H101  1  0.86376249  0.18887607  0.76420492  1
  H+  H102  1  0.37205989  1.02737117  0.49325397  1
  H+  H103  1  0.47801780  0.87123401  0.33345997  1
  H+  H104  1  0.26255741  0.59242751  0.67210240  1
  H+  H105  1  0.35468884  0.88425366  0.16906974  1
  H+  H106  1  0.57091521  0.68568570  0.32659981  1
  H+  H107  1  0.67523618  0.09727160  0.26807726  1
  H+  H108  1  1.03137703  0.85811751  0.82425072  1
  H+  H109  1  0.02662692  0.89465956  0.67478712  1
  H+  H110  1  0.71104913  0.84190331  0.15697044  1
  H+  H111  1  0.76408825  0.63880728  0.66745218  1
  H+  H112  1  0.77608957  0.62705714  0.15268140  1
  H+  H113  1  0.02258644  0.63565119  0.15440230  1
  H+  H114  1  0.93448608  0.29854705  0.18914102  1
  H+  H115  1  0.77060378  0.39348735  0.67319521  1
  H+  H116  1  0.96249171  0.62409802  0.66031704  1
  H+  H117  1  0.47606348  0.60370632  0.16088292  1
  H+  H118  1  0.60784988  0.13466581  0.49700854  1
  H+  H119  1  0.12393630  0.51505966  0.65345674  1
  H+  H120  1  0.87189756  0.73151974  1.00522949  1
  H+  H121  1  0.14772370  0.85503975  0.33412038  1
  H+  H122  1  0.12533727  0.23302033  0.49913616  1
  H+  H123  1  0.99781800  0.61985484  0.84861768  1
  H+  H124  1  0.14759436  0.61677698  0.31790010  1
  H+  H125  1  0.49070745  0.59331465  0.33130488  1
  H+  H126  1  0.40440776  0.36032830  0.98975087  1
  H+  H127  1  0.28571012  0.37519662  0.38189301  1
  H+  H128  1  0.78806458  0.14940805  0.81535653  1
  H+  H129  1  0.35794377  0.46450402  0.67715471  1
  H+  H130  1  0.57260267  0.80847030  0.29870054  1
  H+  H131  1  0.88827259  0.16852604  0.16781081  1
  H+  H132  1  0.85960552  0.64506511  0.33590402  1
  H+  H133  1  0.14685792  0.42197035  0.39718539  1
  H+  H134  1  0.47315455  0.60310696  0.98384164  1
  H+  H135  1  0.15600696  0.77251365  0.84001872  1
  H+  H136  1  0.35904059  0.71370553  0.81663254  1
  H+  H137  1  0.90473629  0.87443517  0.50358989  1
  H+  H138  1  0.46639943  0.56467577  0.50227051  1
  H+  H139  1  0.60723992  0.89168268  0.82285045  1
  H+  H140  1  0.89232330  0.37245807  0.83955638  1
  H+  H141  1  0.11821866  0.53743362  0.00363000  1
  H+  H142  1  0.35433776  0.97386420  0.17060769  1
  H+  H143  1  0.62193696  0.59352251  0.31589476  1
  H+  H144  1  0.20950760  0.36873510  1.00545838  1
  H+  H145  1  0.02919149  0.13754033  0.67280772  1
  H+  H146  1  0.74193921  0.61199615  1.00153860  1
  H+  H147  1  0.92410453  0.59098888  0.93443110  1
  H+  H148  1  0.68047580  0.33912230  0.89758139  1
  H+  H149  1  0.60238704  0.71835288  0.67182955  1
  H+  H150  1  0.14981382  0.10967146  0.34578577  1
  H+  H151  1  0.62974533  0.93618436  0.35235255  1
  H+  H152  1  0.87737771  0.41921148  0.02718659  1
  H+  H153  1  0.26196742  0.88323930  0.49209152  1
  H+  H154  1  0.61201965  0.47668765  0.83135830  1
  H+  H155  1  0.73696406  0.84900046  0.38326247  1
  H+  H156  1  0.09966098  0.65930592  0.05338853  1
  H+  H157  1  0.89312126  0.25029860  0.66582536  1
  H+  H158  1  0.23296881  0.20227189  0.88803336  1
  H+  H159  1  0.57854760  0.69273070  0.48669466  1
  H+  H160  1  0.61617039  0.97536198  0.67055739  1
  H+  H161  1  0.13537715  0.11596153  0.67789113  1
  H+  H162  1  0.24906746  0.10648742  1.00226495  1
  H+  H163  1  0.93469344  0.01818777  0.34167661  1
  H+  H164  1  0.23671602  0.36505601  0.67418510  1
  H+  H165  1  0.86324818  0.88885870  0.65598653  1
  H+  H166  1  0.37481386  0.13131154  0.83153887  1
  H+  H167  1  0.12729397  0.87629296  0.82230696  1
  H+  H168  1  0.63352747  0.26501752  0.17644878  1
  H+  H169  1  0.99525231  0.12926120  0.50583457  1
  H+  H170  1  0.12131831  0.96364538  -0.00838357  1
  H+  H171  1  0.36099772  0.22932668  0.15344981  1
  H+  H172  1  0.90853703  0.16748974  0.66790724  1
  H+  H173  1  0.86594268  0.71553667  0.15863648  1
  H+  H174  1  0.13414668  0.27583318  0.84437611  1
  H+  H175  1  0.15917103  0.09166159  1.02358697  1
  H+  H176  1  0.15610694  0.65115170  0.68221324  1
  H+  H177  1  0.62624725  0.14275440  0.82751379  1
  H+  H178  1  0.92328343  0.83714522  0.59754250  1
  H+  H179  1  0.64337662  0.18181610  0.32198652  1
  H+  H180  1  0.47323223  0.35801267  0.66704443  1
  H+  H181  1  0.35377565  0.26703355  0.51785568  1
  H+  H182  1  0.84513327  0.94143440  0.14527357  1
  H+  H183  1  0.64863927  0.35160352  0.99374844  1
  H+  H184  1  0.58230904  0.40201725  0.39174516  1
  H+  H185  1  0.38225338  -0.02339885  0.83524007  1
  H+  H186  1  0.12363003  0.03497035  0.18234249  1
  H+  H187  1  0.89036361  0.62675270  0.99647266  1
  H+  H188  1  0.80921759  0.18272088  0.95658696  1
  H+  H189  1  0.27675458  0.89328935  0.01232292  1
  H+  H190  1  0.39649285  0.27059877  0.83611978  1
  H+  H191  1  1.00153582  0.37592194  1.00558796  1
  H+  H192  1  0.90970528  0.62191934  0.84275765  1
  H+  H193  1  0.89261493  0.28277381  0.83597501  1
  H+  H194  1  1.02650257  0.61748369  0.34500108  1
  H+  H195  1  0.51878431  0.28368473  0.44786295  1
  H+  H196  1  0.30797408  0.38219648  -0.03782153  1
  H+  H197  1  0.90795935  0.04080390  0.50242460  1
  H+  H198  1  0.22779246  0.86201127  0.67150681  1
  H+  H199  1  0.00668440  0.30107743  0.70659839  1
  H+  H200  1  0.88890856  0.60401734  0.16906129  1
  H+  H201  1  0.40713444  0.32199646  0.57474749  1
  H+  H202  1  0.71619779  0.61171700  0.84460502  1
  H+  H203  1  0.38955945  0.26250818  0.34615681  1
  H+  H204  1  0.97405422  0.37933922  0.65078625  1
  H+  H205  1  0.37958878  0.88558894  0.83558779  1
  H+  H206  1  0.11544814  0.38994993  0.83466670  1
  H+  H207  1  0.37634360  0.60199643  0.83202339  1
  H+  H208  1  0.22735150  0.61250035  0.84453364  1
  H+  H209  1  0.74855371  0.89154129  0.36838970  1
  H+  H210  1  0.82684130  0.91065364  0.90361841  1
  H+  H211  1  0.17149475  0.37295363  0.21610705  1
  H+  H212  1  0.35749509  0.63512661  0.49116567  1
  H+  H213  1  0.34753802  0.73914463  1.02622475  1
  H+  H214  1  0.59198594  0.87846671  0.49654634  1
  H+  H215  1  -0.02468298  0.85976071  -0.02473607  1
  H+  H216  1  0.35772003  0.43474849  0.42840689  1
  H+  H217  1  0.35787509  0.63128047  0.34042753  1
  H+  H218  1  0.31428924  0.89123031  0.39835298  1
  H+  H219  1  0.37600154  0.47903932  -0.01465064  1
  H+  H220  1  0.65084091  0.58066038  1.02924935  1
  H+  H221  1  0.84618161  0.67103832  0.06764590  1
  H+  H222  1  0.89356122  0.82027742  0.81612548  1
  H+  H223  1  0.24593971  0.86272583  0.83715698  1
  H+  H224  1  0.81674827  0.88449900  0.08593579  1
  H+  H225  1  0.38134668  0.35308262  0.66833516  1
  H+  H226  1  0.71311743  0.85545537  0.64686885  1
  H+  H227  1  0.41555138  0.83456030  0.23574240  1
  H+  H228  1  0.46857568  0.60731598  0.83145454  1
  H+  H229  1  0.28989406  0.14038591  0.83548298  1
  H+  H230  1  0.80271168  0.17507885  0.09276407  1
  H+  H231  1  0.18965103  0.31107167  0.34244864  1
  H+  H232  1  0.87871081  0.73023252  0.83230562  1
  H+  H233  1  0.70951707  0.09359793  0.16892657  1
  H+  H234  1  1.03751542  0.90109553  0.50327469  1
  H+  H235  1  0.63804368  0.60387768  0.50358821  1
  H+  H236  1  0.48804575  0.86371836  0.83431310  1
  H+  H237  1  0.81602022  0.64297718  0.75276133  1
  H+  H238  1  0.61162625  0.64538364  -0.01417387  1
  H+  H239  1  0.60950103  0.38778028  0.67296520  1
  H+  H240  1  0.36021702  0.22382385  0.67968413  1
  H+  H241  1  0.76917175  0.38797126  0.49335933  1
  H+  H242  1  0.88190512  0.27416654  0.49933571  1
  H+  H243  1  0.19688091  0.83252290  0.92944991  1
  H+  H244  1  0.38006202  0.77097285  0.17887206  1
  H+  H245  1  0.84981762  0.30640760  0.98599941  1
  H+  H246  1  0.64490884  0.36764581  0.84002321  1
  H+  H247  1  0.70474030  0.85016209  0.99422248  1
  H+  H248  1  0.26869983  0.14243496  0.15500868  1
  H+  H249  1  0.09602035  0.74908328  0.68603373  1
  H+  H250  1  0.65965163  0.26871000  -0.01652773  1
  H+  H251  1  0.68158770  0.82307927  0.50648490  1
  H+  H252  1  0.90961116  0.13958880  0.33193562  1
  H+  H253  1  0.52322797  0.88928927  0.66761439  1
  H+  H254  1  0.89962991  0.36807552  0.18254127  1
  H+  H255  1  0.13420373  0.01909403  0.67842007  1
  H+  H256  1  0.85820186  0.38938407  0.48665376  1
  H+  H257  1  0.30598091  0.01771011  0.61627323  1
  H+  H258  1  0.46332443  0.86636962  0.50361266  1
  H+  H259  1  0.25535715  0.65537808  0.02558045  1
  H+  H260  1  0.64052018  0.51327745  0.16575144  1
  H+  H261  1  0.73417760  0.62238306  0.50730386  1
  H+  H262  1  0.23197114  0.11740793  0.67932280  1
  H+  H263  1  0.39342511  0.86687539  0.66194925  1
  H+  H264  1  0.06853117  0.44210437  0.35130798  1
  H+  H265  1  0.86725567  0.14212399  0.49276166  1
  H+  H266  1  0.19698092  0.30143784  0.31040231  1
  H+  H267  1  0.63376081  0.52524301  0.65683384  1
  H+  H268  1  0.88596545  0.77863088  0.65738458  1
  H+  H269  1  0.89230902  1.05264064  0.86991109  1
  H+  H270  1  0.12331365  0.40646490  0.14743574  1
  H+  H271  1  0.98719682  0.20337598  0.16965565  1
  H+  H272  1  0.38729038  0.15554606  0.34319500  1
  H+  H273  1  0.88034965  0.52385556  0.49941002  1
  H+  H274  1  0.60174848  0.05729269  1.02968530  1
  H+  H275  1  0.78247713  0.39657087  0.82768371  1
  H+  H276  1  1.02265512  0.14505278  0.83559511  1
  H+  H277  1  0.38609247  0.36070934  0.15217681  1
  H+  H278  1  0.23719228  0.84398755  0.33169089  1
  H+  H279  1  0.87455043  0.48388948  0.82970173  1
  H+  H280  1  0.86633294  0.64502444  0.48720842  1
  H+  H281  1  0.65689212  0.31244378  0.24090302  1
  H+  H282  1  0.13028116  0.77262648  0.17375811  1
  H+  H283  1  1.03085186  0.40934222  0.16003336  1
  H+  H284  1  0.36178474  0.47633121  0.13963080  1
  H+  H285  1  0.48644016  0.36660169  0.33538792  1
  H+  H286  1  0.31608542  0.67065308  0.11491012  1
  H+  H287  1  0.47471822  0.59286807  0.66282787  1
  H+  H288  1  0.77962593  0.39377208  0.01031183  1
  H+  H289  1  0.42960153  0.32662381  0.93102718  1
  H+  H290  1  0.40114083  0.08304536  0.55300855  1
  H+  H291  1  0.16503823  0.33583905  0.56559919  1
  H+  H292  1  0.07885116  0.88303259  0.03509663  1
  H+  H293  1  0.09725261  0.39280224  0.00463498  1
  H+  H294  1  0.06161825  0.17669440  0.05174657  1
  H+  H295  1  0.07443707  0.42820333  0.08944555  1
  H+  H296  1  0.07084878  0.38591326  0.74559590  1
  H+  H297  1  0.34053141  0.91255953  0.74157233  1
  H+  H298  1  0.66701496  0.58637895  0.59698058  1
  H+  H299  1  0.92479741  0.59516810  0.27187100  1
  H+  H300  1  0.94925850  0.14069390  0.26899111  1
  H+  H301  1  0.62842701  0.34886043  0.51015544  1
  H+  H302  1  0.15453513  0.60148773  0.94937071  1
  H+  H303  1  0.83551795  0.42534808  0.73031883  1
  H+  H304  1  0.61135029  0.63405885  0.67207300  1
  H+  H305  1  0.90717990  0.81411312  0.92256536  1
  H+  H306  1  0.17374208  0.39369716  0.26525476  1
  H+  H307  1  0.66359799  0.82512157  0.31888975  1
  H+  H308  1  0.66384225  0.58390740  0.90661537  1
  H+  H309  1  0.55891755  0.63543101  0.42620822  1
  H+  H310  1  0.57202466  0.94751797  0.07448882  1
  H+  H311  1  0.60712281  0.97560961  0.50075083  1
  H+  H312  1  0.83486992  0.17040276  0.43418359  1
  H+  H313  1  0.16258767  0.41494857  0.32530030  1
  H+  H314  1  0.08407342  0.66824604  0.77637495  1
  H+  H315  1  0.89029440  0.51720593  0.18053658  1
  H+  H316  1  0.62925920  0.80549736  0.56654451  1
  H+  H317  1  0.35277847  0.88841058  0.48972637  1
  H+  H318  1  0.41860322  0.84288890  0.59870417  1
  H+  H319  1  0.41342994  0.57316820  0.92398257  1
  H+  H320  1  0.12021104  0.28172488  0.99372114  1
  H+  H321  1  0.81582445  0.09708011  0.08017476  1
  H+  H322  1  0.32717518  0.92268520  0.07788770  1
  H+  H323  1  0.82744208  0.92153441  0.70884589  1
  H+  H324  1  0.13070352  0.60290941  0.50876567  1
  H+  H325  1  0.57798237  0.93567139  0.40993378  1
  H+  H326  1  0.08928486  0.92409494  0.12973969  1
  H+  H327  1  0.32503019  0.40587027  0.73924003  1
  H+  H328  1  0.08436823  0.91297703  0.73690062  1
  H+  H329  1  0.57683482  0.65011118  0.08809707  1
  H+  H330  1  0.14459726  0.11922793  0.21914018  1
  H+  H331  1  0.01889059  0.72873395  0.72881543  1
  H+  H332  1  0.82529135  0.40992420  0.11849109  1
  H+  H333  1  0.93594480  0.09892721  0.59194853  1
  H+  H334  1  0.11063655  0.71893004  0.49852030  1
  H+  H335  1  0.64610774  0.80983332  0.21351284  1
  H+  H336  1  0.13115537  0.35812891  0.50529488  1
  H+  H337  1  0.16892124  0.54345105  0.58977499  1
  H+  H338  1  0.63371238  0.82687933  0.94375918  1
  H+  H339  1  0.84358346  0.96203765  0.00465634  1
  H+  H340  1  0.16889756  0.83057314  0.57196814  1
  H+  H341  1  0.83374983  0.67601441  0.43003730  1
  H+  H342  1  0.09945002  0.16022018  0.40804082  1
  H+  H343  1  0.90893191  0.58422333  0.55835685  1
  H+  H344  1  0.62625188  0.85833156  0.65744663  1
  H+  H345  1  0.83842430  0.91825323  0.83253864  1
  H+  H346  1  0.42815394  0.08148501  0.90440539  1
  H+  H347  1  0.72465399  0.10856076  0.50394416  1
  H+  H348  1  0.57954619  0.66630472  0.76628294  1
  H+  H349  1  0.58843527  0.16792205  0.73913238  1
  H+  H350  1  0.90616893  0.31926562  0.92683162  1
  H+  H351  1  0.13374332  0.14833667  0.50460913  1
  H+  H352  1  0.66408621  0.57331339  0.25879630  1
  H+  H353  1  0.66836049  0.08345060  0.56464995  1
  H+  H354  1  0.21911078  0.95710616  0.39746026  1
  H+  H355  1  0.12200686  0.63279122  0.83158964  1
  H+  H356  1  0.40694796  0.85128383  0.94765817  1
  H+  H357  1  0.92127327  0.10514389  0.99607031  1
  H+  H358  1  0.08523946  0.63740862  0.40364630  1
  H+  H359  1  0.33218257  0.66657003  0.43122276  1
  H+  H360  1  0.33078158  0.41623555  0.08025863  1
  H+  H361  1  0.16463429  0.33782463  0.90349923  1
  H+  H362  1  0.31899949  0.64281403  0.76250590  1
  H+  H363  1  0.39820452  0.02589162  1.00224045  1
  H+  H364  1  0.31377734  0.51654739  0.28747310  1
  H+  H365  1  0.41529004  0.56518798  0.21902999  1
  H+  H366  1  0.07971075  0.16595707  0.73839170  1
  H+  H367  1  0.33593219  0.16219591  0.73948925  1
  H+  H368  1  0.44804224  0.79472363  0.88611730  1
  H+  H369  1  0.16105098  0.81783566  0.26885481  1
  H+  H370  1  0.87658514  0.82417214  0.26386804  1
  H+  H371  1  0.71841342  0.12528624  -0.01313293  1
  H+  H372  1  0.96822934  0.35617302  0.27179775  1
  H+  H373  1  0.18774298  0.11078403  0.91609881  1
  H+  H374  1  0.52214423  0.14008751  0.49273368  1
  H+  H375  1  0.41956675  0.09941746  0.26904817  1
  H+  H376  1  0.90202828  0.95657558  0.42586986  1
  H+  H377  1  0.91564341  0.34099552  0.55400145  1
  H+  H378  1  0.41422453  0.55027179  0.60407814  1
  H+  H379  1  0.58281117  0.92233299  0.76069930  1
  H+  H380  1  0.39677777  0.77334165  0.33075807  1
  H+  H381  1  0.19046749  0.07667730  0.29214230  1
  H+  H382  1  0.59068970  0.40065146  0.10306850  1
  H+  H383  1  0.49244084  0.14577835  0.31838703  1
  O2-  O384  1  0.07569461  0.19546810  0.12675201  1
  O2-  O385  1  0.09826789  0.17021505  0.48622930  1
  O2-  O386  1  0.08132784  0.17229109  0.81505863  1
  O2-  O387  1  0.08797848  0.43629223  0.13526508  1
  O2-  O388  1  0.08566196  0.40740178  0.47340413  1
  O2-  O389  1  0.08572927  0.41925993  0.81695208  1
  O2-  O390  1  0.08228755  0.67431823  0.13805734  1
  O2-  O391  1  0.08286776  0.65833282  0.48495793  1
  O2-  O392  1  0.09041275  0.66519580  0.82092306  1
  O2-  O393  1  0.08694708  0.92356767  0.17392898  1
  O2-  O394  1  0.10098239  0.93312394  0.49587270  1
  O2-  O395  1  0.08807422  0.89671201  0.80676251  1
  O2-  O396  1  0.32833925  0.16543482  0.14130465  1
  O2-  O397  1  0.28276111  0.15045862  0.49424146  1
  O2-  O398  1  0.34596193  0.16273711  0.81481330  1
  O2-  O399  1  0.32597772  0.41565189  0.12498466  1
  O2-  O400  1  0.36087256  0.44844857  0.50142214  1
  O2-  O401  1  0.33281514  0.40744272  0.81422822  1
  O2-  O402  1  0.32361717  0.66824322  0.16075431  1
  O2-  O403  1  0.33028389  0.66725982  0.47690108  1
  O2-  O404  1  0.32390210  0.65151190  0.80917825  1
  O2-  O405  1  0.32189385  0.91291854  0.15587817  1
  O2-  O406  1  0.31982209  0.91470968  0.47179922  1
  O2-  O407  1  0.35190239  0.91646291  0.81873435  1
  O2-  O408  1  0.57809369  0.15682154  0.14576268  1
  O2-  O409  1  0.58464131  0.17252783  0.48647571  1
  O2-  O410  1  0.59170052  0.16955006  0.81394830  1
  O2-  O411  1  0.58681804  0.40737290  0.14747485  1
  O2-  O412  1  0.54156346  0.34076011  0.46559953  1
  O2-  O413  1  0.58923613  0.41844333  0.81388432  1
  O2-  O414  1  0.57834991  0.64871818  0.13346557  1
  O2-  O415  1  0.56032229  0.63426630  0.47142315  1
  O2-  O416  1  0.57612568  0.66901226  0.81184070  1
  O2-  O417  1  0.57184558  0.91369503  0.14736289  1
  O2-  O418  1  0.57022891  0.91655428  0.48249103  1
  O2-  O419  1  0.58334397  0.92740317  0.80643941  1
  O2-  O420  1  0.80251708  0.12661376  0.11276227  1
  O2-  O421  1  0.82970184  0.16517885  0.47960101  1
  O2-  O422  1  0.85158700  0.18499283  0.80873684  1
  O2-  O423  1  0.83024908  0.40314268  0.16236155  1
  O2-  O424  1  0.82774787  0.42093871  0.47533585  1
  O2-  O425  1  0.84277746  0.42590721  0.81130219  1
  O2-  O426  1  0.83737820  0.65779743  0.13824889  1
  O2-  O427  1  0.83932202  0.67987152  0.47554629  1
  O2-  O428  1  0.81325926  0.62695951  0.79844762  1
  O2-  O429  1  0.81608357  0.88142800  0.13141024  1
  O2-  O430  1  0.87472536  0.94297367  0.46971439  1
  O2-  O431  1  0.81265334  0.93161210  0.86672309  1
  O2-  O432  1  0.14976461  0.09865621  0.17916817  1
  O2-  O433  1  0.20484464  0.10404294  0.53217331  1
  O2-  O434  1  0.20095711  0.14178901  0.87649649  1
  O2-  O435  1  0.16754454  0.35954243  0.16716058  1
  O2-  O436  1  0.16206799  0.32858911  0.52156753  1
  O2-  O437  1  0.16879925  0.33688033  0.85842870  1
  O2-  O438  1  0.20341612  0.66466785  0.24033172  1
  O2-  O439  1  0.16171260  0.57076525  0.51767300  1
  O2-  O440  1  0.16759901  0.58613440  0.86155124  1
  O2-  O441  1  0.15967848  0.82948102  0.19564695  1
  O2-  O442  1  0.16491302  0.83028851  0.52686480  1
  O2-  O443  1  0.18509017  0.83441275  0.85152546  1
  O2-  O444  1  0.40792952  0.08077159  0.18855569  1
  O2-  O445  1  0.39759681  0.08745351  0.50850581  1
  O2-  O446  1  0.42651439  0.08115476  0.85877343  1
  O2-  O447  1  0.41045053  0.32650569  0.16871923  1
  O2-  O448  1  0.40082254  0.32484787  0.52983157  1
  O2-  O449  1  0.42345120  0.33021920  0.85280099  1
  O2-  O450  1  0.41473049  0.57442599  0.17510644  1
  O2-  O451  1  0.41032873  0.53590233  0.52562862  1
  O2-  O452  1  0.40822980  0.57223056  0.84624686  1
  O2-  O453  1  0.41218578  0.83377957  0.19057500  1
  O2-  O454  1  0.40264453  0.83702035  0.51806699  1
  O2-  O455  1  0.43158646  0.82257569  0.85512515  1
  O2-  O456  1  0.65668937  0.07196279  0.19312869  1
  O2-  O457  1  0.66422031  0.07747161  0.51980700  1
  O2-  O458  1  0.68570452  0.09425335  0.84353966  1
  O2-  O459  1  0.66355194  0.32313989  0.19510874  1
  O2-  O460  1  0.66723399  0.33128670  0.52956778  1
  O2-  O461  1  0.67855658  0.33950470  0.85220430  1
  O2-  O462  1  0.67208787  0.57576520  0.17739677  1
  O2-  O463  1  0.67582555  0.58776253  0.52527323  1
  O2-  O464  1  0.65787800  0.58485663  0.86206909  1
  O2-  O465  1  0.64932816  0.81475032  0.16872723  1
  O2-  O466  1  0.62289228  0.80071528  0.52062865  1
  O2-  O467  1  0.63438254  0.82719884  0.86086584  1
  O2-  O468  1  0.94049793  0.20503413  0.19214090  1
  O2-  O469  1  0.93332501  0.10036230  0.51911563  1
  O2-  O470  1  0.93264703  0.11476093  0.87025492  1
  O2-  O471  1  0.94890648  0.35962331  0.19443889  1
  O2-  O472  1  0.91439641  0.33677117  0.50903858  1
  O2-  O473  1  0.92096778  0.34114664  0.85605582  1
  O2-  O474  1  0.92369811  0.58033897  0.18666424  1
  O2-  O475  1  0.91271965  0.58550919  0.51340216  1
  O2-  O476  1  0.93515033  0.59154746  0.86349182  1
  O2-  O477  1  0.90795524  0.81579701  0.18677319  1
  O2-  O478  1  0.92941620  0.84062793  0.52177246  1
  O2-  O479  1  0.91159684  0.79112020  0.84490054  1
  O2-  O480  1  0.18900642  0.08314738  0.33590848  1
  O2-  O481  1  0.16752080  0.08422280  0.66676472  1
  O2-  O482  1  0.18460989  0.07423554  0.99140392  1
  O2-  O483  1  0.16512030  0.45428947  0.35867949  1
  O2-  O484  1  0.17010975  0.33020855  0.65823332  1
  O2-  O485  1  0.15515485  0.34450754  0.98299610  1
  O2-  O486  1  0.19248394  0.61036950  0.29286695  1
  O2-  O487  1  0.17354250  0.52221129  0.63099201  1
  O2-  O488  1  0.14641680  0.59896488  0.99386833  1
  O2-  O489  1  0.16513311  0.81572057  0.31486632  1
  O2-  O490  1  0.16924245  0.83850375  0.65269516  1
  O2-  O491  1  0.19183560  0.83164235  0.97455862  1
  O2-  O492  1  0.42956077  0.10964137  0.31341649  1
  O2-  O493  1  0.36275161  0.05389102  0.63396027  1
  O2-  O494  1  0.43314725  0.08398161  0.98273847  1
  O2-  O495  1  0.41883838  0.33287156  0.32937724  1
  O2-  O496  1  0.41144342  0.32267896  0.65392286  1
  O2-  O497  1  0.43136353  0.32608759  0.97659357  1
  O2-  O498  1  0.37002045  0.54238420  0.30753517  1
  O2-  O499  1  0.41387174  0.55582416  0.64910067  1
  O2-  O500  1  0.41339305  0.56606963  0.96901074  1
  O2-  O501  1  0.42065701  0.83364213  0.31526446  1
  O2-  O502  1  0.43052739  0.84733852  0.64295530  1
  O2-  O503  1  0.41429969  0.85228673  0.99169047  1
  O2-  O504  1  0.68335595  0.11391980  0.31216649  1
  O2-  O505  1  0.66928962  0.08621237  0.64673225  1
  O2-  O506  1  0.63769061  0.12767058  1.03144709  1
  O2-  O507  1  0.65147985  0.29263998  0.31331786  1
  O2-  O508  1  0.66585557  0.33883521  0.64968622  1
  O2-  O509  1  0.68841914  0.33253092  0.97684713  1
  O2-  O510  1  0.66074157  0.57184708  0.30407128  1
  O2-  O511  1  0.66461565  0.58637822  0.64358017  1
  O2-  O512  1  0.67861941  0.57644106  0.99220911  1
  O2-  O513  1  0.61402353  0.78908652  0.29268669  1
  O2-  O514  1  0.65033359  0.82259777  0.63984960  1
  O2-  O515  1  0.64211284  0.82229055  0.98780893  1
  O2-  O516  1  0.94574041  0.11993283  0.31076361  1
  O2-  O517  1  0.93476532  0.09599634  0.63832776  1
  O2-  O518  1  0.86163611  0.06465164  1.00834851  1
  O2-  O519  1  0.98001451  0.33986013  0.31254279  1
  O2-  O520  1  0.91524120  0.34882325  0.63482404  1
  O2-  O521  1  0.89805723  0.30103733  0.97141558  1
  O2-  O522  1  0.92036906  0.59863467  0.31643855  1
  O2-  O523  1  0.90559849  0.58890875  0.64069719  1
  O2-  O524  1  0.91620172  0.58952928  0.98079182  1
  O2-  O525  1  0.85478677  0.82508012  0.30490194  1
  O2-  O526  1  0.91966219  0.83935296  0.64342895  1
  O2-  O527  1  0.91212627  0.82752477  0.96672313  1
  O2-  O528  1  0.05324455  0.17722365  0.00638185  1
  O2-  O529  1  0.10416672  0.15513427  0.36318005  1
  O2-  O530  1  0.08792866  0.16708332  0.69290001  1
  O2-  O531  1  0.06069811  0.41599446  0.02023188  1
  O2-  O532  1  0.00407803  0.41718315  0.34802809  1
  O2-  O533  1  0.05906715  0.35905984  0.70364748  1
  O2-  O534  1  0.06523070  0.68114641  0.07350123  1
  O2-  O535  1  0.07986290  0.62099408  0.36032419  1
  O2-  O536  1  0.04701523  0.70077107  0.70923725  1
  O2-  O537  1  0.08030095  0.90032374  -0.00703976  1
  O2-  O538  1  0.16102576  0.93783909  0.38276300  1
  O2-  O539  1  0.08658203  0.92495865  0.69104557  1
  O2-  O540  1  0.34527949  0.16281084  0.02148310  1
  O2-  O541  1  0.35895859  0.18645983  0.36456513  1
  O2-  O542  1  0.32641429  0.16209896  0.69429867  1
  O2-  O543  1  0.34282065  0.41161152  -0.00231675  1
  O2-  O544  1  0.34708464  0.41769620  0.38395367  1
  O2-  O545  1  0.32117934  0.40296965  0.69328481  1
  O2-  O546  1  0.31384591  0.68069831  0.04291456  1
  O2-  O547  1  0.33850409  0.67104675  0.35448227  1
  O2-  O548  1  0.31798587  0.62975493  0.69348119  1
  O2-  O549  1  0.33477766  0.92936868  0.03275580  1
  O2-  O550  1  0.31060589  0.88194988  0.35290141  1
  O2-  O551  1  0.33052418  0.90834684  0.69664692  1
  O2-  O552  1  0.60536672  0.15978196  -0.01766048  1
  O2-  O553  1  0.60559680  0.20757260  0.32907250  1
  O2-  O554  1  0.58940484  0.16774411  0.69294987  1
  O2-  O555  1  0.59395584  0.39736702  0.02024898  1
  O2-  O556  1  0.57683783  0.40798719  0.34774156  1
  O2-  O557  1  0.57831481  0.41769870  0.68740287  1
  O2-  O558  1  0.57744615  0.66239091  0.01038167  1
  O2-  O559  1  0.54990452  0.62867986  0.34563827  1
  O2-  O560  1  0.57705100  0.65945935  0.68922494  1
  O2-  O561  1  0.57164806  0.96909880  0.03272198  1
  O2-  O562  1  0.58230417  0.94459351  0.36412173  1
  O2-  O563  1  0.58453115  0.91512000  0.68499283  1
  O2-  O564  1  0.76071024  0.12327930  -0.04182669  1
  O2-  O565  1  0.84810904  0.18483198  0.35806348  1
  O2-  O566  1  0.90304938  0.21130707  0.69259479  1
  O2-  O567  1  0.83519921  0.43792003  0.03117281  1
  O2-  O568  1  0.86085087  0.43876348  0.34854200  1
  O2-  O569  1  0.83295091  0.42579961  0.68509533  1
  O2-  O570  1  0.84577224  0.67115029  0.02075825  1
  O2-  O571  1  0.82450304  0.67004540  0.35203202  1
  O2-  O572  1  0.82476240  0.66819671  0.68456919  1
  O2-  O573  1  0.81866021  0.89819189  0.00687379  1
  O2-  O574  1  0.93930214  0.97315170  0.36398160  1
  O2-  O575  1  0.83071854  0.92028921  0.66469817  1
