# generated using pymatgen
data_H2O
_symmetry_space_group_name_H-M   'P 1'
_cell_length_a   17.99922094
_cell_length_b   18.00378861
_cell_length_c   22.01267635
_cell_angle_alpha   89.98960131
_cell_angle_beta   90.00822474
_cell_angle_gamma   119.99743138
_symmetry_Int_Tables_number   1
_chemical_formula_structural   H2O
_chemical_formula_sum   'H384 O192'
_cell_volume   6177.77839065
_cell_formula_units_Z   192
loop_
 _symmetry_equiv_pos_site_id
 _symmetry_equiv_pos_as_xyz
  1  'x, y, z'
loop_
 _atom_type_symbol
 _atom_type_oxidation_number
  H+  1.0
  O2-  -2.0
loop_
 _atom_site_type_symbol
 _atom_site_label
 _atom_site_symmetry_multiplicity
 _atom_site_fract_x
 _atom_site_fract_y
 _atom_site_fract_z
 _atom_site_occupancy
  H+  H0  1  0.61522698  0.73800283  0.81429788  1
  H+  H1  1  0.35153277  0.74734704  0.64674834  1
  H+  H2  1  0.14526830  0.52370757  0.32659036  1
  H+  H3  1  0.76922593  0.12301135  0.49505630  1
  H+  H4  1  0.81720132  0.34740777  0.37101316  1
  H+  H5  1  0.61594124  0.23978460  0.33788264  1
  H+  H6  1  0.41908936  0.33693175  0.23519612  1
  H+  H7  1  0.71097665  0.60600119  0.84980497  1
  H+  H8  1  0.64966573  0.29516972  0.69374864  1
  H+  H9  1  0.41634932  0.10609411  0.24297014  1
  H+  H10  1  0.39286703  0.36833653  1.02953012  1
  H+  H11  1  0.44615350  0.56946833  0.35119561  1
  H+  H12  1  0.84933621  0.46542829  0.82561116  1
  H+  H13  1  0.96802248  0.35630632  0.65971818  1
  H+  H14  1  0.62315626  0.89303152  0.71475135  1
  H+  H15  1  0.49501593  0.62773792  0.65537963  1
  H+  H16  1  0.61063222  0.37992119  0.81319819  1
  H+  H17  1  0.73206956  0.61980530  0.64602806  1
  H+  H18  1  0.32150057  0.91346402  0.77381319  1
  H+  H19  1  0.39374097  0.28067728  0.66341972  1
  H+  H20  1  0.22756223  0.59981641  0.49835461  1
  H+  H21  1  0.61805398  0.62840835  0.48576005  1
  H+  H22  1  0.27742815  0.12619606  0.01100286  1
  H+  H23  1  0.86171546  0.23528511  0.17366491  1
  H+  H24  1  0.87008991  -0.03081286  0.15653591  1
  H+  H25  1  0.37045409  0.64263596  0.01070810  1
  H+  H26  1  0.11920767  -0.00916383  0.16554504  1
  H+  H27  1  0.62622502  0.98799231  0.17227192  1
  H+  H28  1  0.22439440  0.58712170  0.65847464  1
  H+  H29  1  0.85823976  0.73203391  0.48299290  1
  H+  H30  1  0.73113142  0.85751124  -0.02509657  1
  H+  H31  1  0.13303599  0.73117136  0.66324870  1
  H+  H32  1  0.27481159  0.65376391  0.16023270  1
  H+  H33  1  0.38438106  0.52614295  -0.00331853  1
  H+  H34  1  0.13271683  0.85205873  0.66068673  1
  H+  H35  1  0.20530001  0.84727485  0.50087755  1
  H+  H36  1  0.80109048  0.40799720  0.67659741  1
  H+  H37  1  0.38554882  0.61912613  0.84408545  1
  H+  H38  1  0.07987771  0.15732366  0.88736461  1
  H+  H39  1  0.38111675  0.86090139  -0.00778034  1
  H+  H40  1  0.38029906  0.24541072  0.82379786  1
  H+  H41  1  0.28185171  0.39065607  0.66775335  1
  H+  H42  1  0.51030129  0.39923567  0.34427730  1
  H+  H43  1  0.87466005  0.98262759  0.34208281  1
  H+  H44  1  0.83176860  0.91603065  0.06118818  1
  H+  H45  1  0.87146479  0.51926821  0.99794875  1
  H+  H46  1  0.12102632  0.95952661  0.66718122  1
  H+  H47  1  0.53096809  0.40059352  0.66555739  1
  H+  H48  1  0.57135585  0.42456356  0.43363503  1
  H+  H49  1  0.88820314  0.09958809  0.16796238  1
  H+  H50  1  0.93093126  0.11051865  0.77336845  1
  H+  H51  1  0.39177472  0.12102421  0.35495321  1
  H+  H52  1  0.48560894  0.12322761  0.35655029  1
  H+  H53  1  0.27621666  0.13701625  0.32943879  1
  H+  H54  1  0.02001780  0.45484831  0.13383339  1
  H+  H55  1  0.22634530  0.86053940  0.66074177  1
  H+  H56  1  0.88009613  0.23003938  0.34749382  1
  H+  H57  1  0.63164583  0.42585704  0.66104101  1
  H+  H58  1  0.66071942  0.87009016  0.33003797  1
  H+  H59  1  0.35759068  0.71225978  0.48237674  1
  H+  H60  1  0.66462517  0.60947397  0.30800196  1
  H+  H61  1  0.12951452  0.35007081  0.32741494  1
  H+  H62  1  1.03534388  0.38967146  0.33548321  1
  H+  H63  1  0.85970845  0.14703280  0.68158446  1
  H+  H64  1  0.12420342  0.34168138  0.98859187  1
  H+  H65  1  0.57299416  0.06193143  0.19523349  1
  H+  H66  1  -0.01965433  0.10371181  0.16853958  1
  H+  H67  1  0.87701378  0.14048848  0.33987181  1
  H+  H68  1  0.64360966  0.79034506  0.66939706  1
  H+  H69  1  0.24155633  0.09546337  0.65376166  1
  H+  H70  1  0.26525376  0.63649485  0.82607018  1
  H+  H71  1  -0.02797331  0.85502478  0.65322386  1
  H+  H72  1  0.11720716  0.12354143  0.16622768  1
  H+  H73  1  0.12259126  0.13166235  0.33346097  1
  H+  H74  1  0.12372812  0.76046895  0.83989885  1
  H+  H75  1  0.63739771  0.54222004  0.65770369  1
  H+  H76  1  0.73111051  0.11709146  0.66043483  1
  H+  H77  1  0.24977209  0.37336382  0.16082665  1
  H+  H78  1  0.88925880  0.76496959  0.64457321  1
  H+  H79  1  0.38620311  0.87456930  0.17835368  1
  H+  H80  1  0.01836742  0.62373602  0.34709104  1
  H+  H81  1  0.47269247  0.86664142  0.49570429  1
  H+  H82  1  0.37745850  0.27138533  0.50460191  1
  H+  H83  1  0.62122614  0.05190371  0.24993920  1
  H+  H84  1  0.17198364  0.13068893  1.00493164  1
  H+  H85  1  0.07696862  0.41301498  0.76548431  1
  H+  H86  1  0.24641437  0.63809484  0.99110432  1
  H+  H87  1  0.56527927  0.12678157  0.74658654  1
  H+  H88  1  0.48989674  0.37509948  0.81713311  1
  H+  H89  1  0.86003008  0.60743457  0.83904106  1
  H+  H90  1  0.85794804  0.22269324  1.00443208  1
  H+  H91  1  0.11658628  0.35091115  0.17732857  1
  H+  H92  1  0.36919260  0.14579098  0.16384493  1
  H+  H93  1  0.62165316  0.88001515  0.81159509  1
  H+  H94  1  0.89413858  0.85934064  0.17133443  1
  H+  H95  1  0.50886530  0.61744648  0.49347406  1
  H+  H96  1  0.73423886  0.87493963  0.82024238  1
  H+  H97  1  0.19325376  0.05716737  0.81706355  1
  H+  H98  1  0.63211998  0.37736346  0.17266988  1
  H+  H99  1  0.01787932  0.38388040  0.82578621  1
  H+  H100  1  0.63504643  0.15811791  0.49982967  1
  H+  H101  1  0.63097576  0.51824967  0.50439362  1
  H+  H102  1  0.31869119  0.41532067  0.06692188  1
  H+  H103  1  0.40657759  0.07302053  0.43446094  1
  H+  H104  1  0.37313813  0.01827097  0.84564300  1
  H+  H105  1  0.33246676  0.90807369  0.24165798  1
  H+  H106  1  0.10976916  0.47196315  0.66783777  1
  H+  H107  1  0.72114411  0.12134530  0.99617726  1
  H+  H108  1  0.66078585  0.08735236  0.93721596  1
  H+  H109  1  0.79016063  0.89103992  0.33790708  1
  H+  H110  1  0.09278247  0.86160008  0.82753850  1
  H+  H111  1  0.88520169  0.09853048  0.50855958  1
  H+  H112  1  0.77694968  0.40755763  0.49591967  1
  H+  H113  1  0.76126312  0.08245602  0.14579947  1
  H+  H114  1  0.58495641  0.68043229  0.72790437  1
  H+  H115  1  0.19406707  0.26777691  0.62115216  1
  H+  H116  1  0.51093379  0.91788676  0.68633195  1
  H+  H117  1  0.98479242  0.11135870  0.32277504  1
  H+  H118  1  0.42894631  0.82641401  0.39632108  1
  H+  H119  1  -0.00593882  0.15026101  0.68343235  1
  H+  H120  1  0.55580123  0.17228005  0.48817890  1
  H+  H121  1  0.33322502  0.94867971  0.47595215  1
  H+  H122  1  0.88186995  0.36068788  0.99573858  1
  H+  H123  1  0.71942326  0.10629536  0.84147099  1
  H+  H124  1  0.38471521  0.11352652  0.84584415  1
  H+  H125  1  0.88715045  0.51347079  0.32547676  1
  H+  H126  1  0.35411643  0.97996690  0.34654665  1
  H+  H127  1  0.37249685  0.14735905  0.68119147  1
  H+  H128  1  0.33414827  0.36585771  0.15665641  1
  H+  H129  1  0.10789190  0.21183235  0.16348363  1
  H+  H130  1  0.00853088  0.08715716  -0.01201202  1
  H+  H131  1  0.87435305  0.00750571  0.68434955  1
  H+  H132  1  0.11452828  0.23204106  0.48533882  1
  H+  H133  1  0.86524357  0.89053221  0.00217394  1
  H+  H134  1  0.53929786  0.39833574  0.03421153  1
  H+  H135  1  0.54325350  0.37634031  0.17106275  1
  H+  H136  1  0.87486702  0.86674522  0.82744429  1
  H+  H137  1  0.18472686  0.06443820  0.59318331  1
  H+  H138  1  0.10843825  0.63075898  0.35621901  1
  H+  H139  1  1.00789768  0.12426719  0.97268313  1
  H+  H140  1  0.92692465  0.56471920  0.58914319  1
  H+  H141  1  0.64072549  0.27823819  0.00910370  1
  H+  H142  1  0.95809831  0.61686491  0.52674547  1
  H+  H143  1  0.12428994  0.25605512  0.32371882  1
  H+  H144  1  0.14364357  0.62752482  0.17532585  1
  H+  H145  1  0.10622036  0.38224958  0.66791329  1
  H+  H146  1  0.40005456  0.52223233  0.50482838  1
  H+  H147  1  0.64355389  0.76882395  0.97177261  1
  H+  H148  1  0.77222824  0.64220435  0.48235466  1
  H+  H149  1  0.27661600  0.39352892  0.82010363  1
  H+  H150  1  0.37550182  0.23762301  0.15146801  1
  H+  H151  1  0.41038195  0.53243085  0.65126383  1
  H+  H152  1  0.14883158  0.32147865  0.23569740  1
  H+  H153  1  0.14776942  0.60799101  0.65399755  1
  H+  H154  1  0.92195466  0.88460558  0.33045656  1
  H+  H155  1  0.37073198  0.75411261  0.15896751  1
  H+  H156  1  0.34843163  0.97519469  0.68517196  1
  H+  H157  1  0.38998531  0.53339598  0.83938918  1
  H+  H158  1  0.74328166  0.13607055  0.31821135  1
  H+  H159  1  1.02859928  0.14008057  0.48875546  1
  H+  H160  1  0.36197945  0.39046586  0.50001262  1
  H+  H161  1  0.86340379  0.37567415  0.16597567  1
  H+  H162  1  0.13358743  0.09408350  0.84153781  1
  H+  H163  1  0.47199965  0.09629400  0.67487287  1
  H+  H164  1  0.87632607  0.86364454  0.50342928  1
  H+  H165  1  0.26383367  0.88826090  0.00696523  1
  H+  H166  1  0.77374833  0.37997232  0.01287333  1
  H+  H167  1  -0.11131253  0.77664288  -0.00596047  1
  H+  H168  1  0.89311042  0.60548082  0.17572435  1
  H+  H169  1  0.25730416  0.35834918  0.32800669  1
  H+  H170  1  0.91033374  0.38051637  0.31503835  1
  H+  H171  1  0.38149000  0.01701230  0.99945320  1
  H+  H172  1  0.25870429  0.13852749  0.48960669  1
  H+  H173  1  0.86180976  -0.02549915  0.49110904  1
  H+  H174  1  0.98623873  0.86686580  0.17440218  1
  H+  H175  1  0.65296303  0.29834105  0.50752970  1
  H+  H176  1  0.52600719  0.65046805  0.81944658  1
  H+  H177  1  0.13786388  0.27515913  0.83341113  1
  H+  H178  1  0.13246454  0.67193653  0.01530144  1
  H+  H179  1  0.51779716  0.38422192  0.49557729  1
  H+  H180  1  -0.00462525  0.60774126  0.68105639  1
  H+  H181  1  0.60794874  0.98821937  0.01156308  1
  H+  H182  1  0.63913819  0.79157372  0.17013724  1
  H+  H183  1  0.38085777  0.77343990  0.83554426  1
  H+  H184  1  0.36840974  0.39799576  0.81571781  1
  H+  H185  1  0.87677259  0.72522281  0.16817737  1
  H+  H186  1  0.71374458  0.98355931  0.49197481  1
  H+  H187  1  0.37150133  0.12400615  0.01146631  1
  H+  H188  1  0.85423751  0.13676836  0.82549131  1
  H+  H189  1  0.37830431  0.59588606  0.32961840  1
  H+  H190  1  0.37961227  0.02706868  0.19686464  1
  H+  H191  1  0.52775833  0.64058027  0.00199335  1
  H+  H192  1  0.62458556  0.65908542  0.66811600  1
  H+  H193  1  0.52078394  0.65266748  0.15548503  1
  H+  H194  1  0.86125341  0.23791039  0.67576617  1
  H+  H195  1  0.47003094  0.85986119  0.83017730  1
  H+  H196  1  0.63109179  0.08367934  0.66461617  1
  H+  H197  1  0.08946745  0.15893543  0.39396709  1
  H+  H198  1  0.77873233  -0.11004441  0.71366562  1
  H+  H199  1  0.60083716  0.18145283  0.68714269  1
  H+  H200  1  0.83718829  0.12460393  -0.00543939  1
  H+  H201  1  0.56174204  0.65467677  0.31889072  1
  H+  H202  1  0.09314810  0.08656681  0.68237555  1
  H+  H203  1  0.08779930  0.10048802  0.65117238  1
  H+  H204  1  0.02950743  0.63832031  0.17130194  1
  H+  H205  1  0.15910820  0.83135216  0.56510769  1
  H+  H206  1  0.63508045  0.37847056  0.50017177  1
  H+  H207  1  0.86526413  0.49355267  0.50575196  1
  H+  H208  1  0.43302496  0.35757661  0.87617707  1
  H+  H209  1  0.11329379  0.98164588  0.00749264  1
  H+  H210  1  0.12538942  0.26609317  0.66516583  1
  H+  H211  1  0.21283741  0.85011400  0.84055680  1
  H+  H212  1  0.76020875  0.48793642  0.61888123  1
  H+  H213  1  0.94782910  0.60920480  0.84864713  1
  H+  H214  1  0.34467797  0.13501041  0.48200352  1
  H+  H215  1  0.11567086  0.47566245  0.48783788  1
  H+  H216  1  0.73534659  0.35080083  0.17472231  1
  H+  H217  1  0.68595882  0.84491208  0.26511909  1
  H+  H218  1  0.65239162  0.52242150  0.19074033  1
  H+  H219  1  0.34357620  0.44777170  0.33195682  1
  H+  H220  1  0.73612886  0.61219693  0.18852749  1
  H+  H221  1  0.27747899  0.39954811  0.49630223  1
  H+  H222  1  0.89389066  0.38102564  0.50827559  1
  H+  H223  1  0.61587215  0.28313702  0.66939051  1
  H+  H224  1  0.37177883  0.90334963  0.68297981  1
  H+  H225  1  0.62759314  0.03757213  0.51377364  1
  H+  H226  1  0.83043816  0.03409086  0.63473200  1
  H+  H227  1  0.08427608  0.61541373  0.81957547  1
  H+  H228  1  0.64717330  0.53126427  1.01056406  1
  H+  H229  1  0.15505803  0.23618324  0.01620108  1
  H+  H230  1  0.37320921  0.71527198  0.34371405  1
  H+  H231  1  0.84402360  0.73039281  0.82418381  1
  H+  H232  1  0.39955759  0.28419722  1.02428985  1
  H+  H233  1  0.37371279  0.73476579  0.00782255  1
  H+  H234  1  0.27317919  0.38604828  1.00249615  1
  H+  H235  1  0.39419134  0.37000277  0.65947254  1
  H+  H236  1  0.45372410  0.40661837  0.18109361  1
  H+  H237  1  0.61083509  0.14072085  0.01302633  1
  H+  H238  1  0.52166387  0.13840933  1.01492321  1
  H+  H239  1  0.27747091  0.63149597  0.33457408  1
  H+  H240  1  0.14858271  0.54072185  0.16885457  1
  H+  H241  1  0.38509288  0.51086333  0.17401437  1
  H+  H242  1  0.13634744  0.11673179  0.50684581  1
  H+  H243  1  0.64391778  0.26056066  0.17794665  1
  H+  H244  1  -0.04446189  0.85193488  0.83247133  1
  H+  H245  1  0.02209605  0.38871883  0.48884394  1
  H+  H246  1  0.88357036  0.27669653  0.84200980  1
  H+  H247  1  0.83845238  0.00121266  0.97601266  1
  H+  H248  1  0.64916906  0.37054071  1.00947741  1
  H+  H249  1  0.62912571  0.26702606  0.82607557  1
  H+  H250  1  0.63200071  0.51249095  0.84908225  1
  H+  H251  1  0.12863992  0.51923637  0.83816596  1
  H+  H252  1  0.08852581  0.94679012  0.83301915  1
  H+  H253  1  0.71903416  0.35494173  0.82353182  1
  H+  H254  1  0.64291676  0.74192414  0.33506249  1
  H+  H255  1  0.35449690  0.88540528  0.83165108  1
  H+  H256  1  0.09756261  0.44189575  -0.00744438  1
  H+  H257  1  0.13319683  0.36206319  0.83145138  1
  H+  H258  1  0.01564798  0.11889469  0.83241053  1
  H+  H259  1  0.15306788  0.79412481  0.15735718  1
  H+  H260  1  0.51655475  0.13850907  0.16881472  1
  H+  H261  1  0.71841317  0.36927943  0.33171829  1
  H+  H262  1  0.78257203  0.61808156  0.32898759  1
  H+  H263  1  0.13356772  0.87508236  -0.00515791  1
  H+  H264  1  0.00215011  0.36419200  0.00043820  1
  H+  H265  1  0.21749187  0.11277199  0.17182359  1
  H+  H266  1  0.33747399  0.17663321  0.73676627  1
  H+  H267  1  0.90555022  0.51419444  0.69609075  1
  H+  H268  1  0.88433737  0.36605808  0.83887867  1
  H+  H269  1  0.29094502  0.16364562  0.83876074  1
  H+  H270  1  0.86163123  0.64192655  1.01117617  1
  H+  H271  1  0.61646604  0.63989502  0.00730075  1
  H+  H272  1  0.04770264  0.65356040  0.44724201  1
  H+  H273  1  0.91060444  0.33275032  0.93295509  1
  H+  H274  1  0.12955459  0.36687155  0.49626216  1
  H+  H275  1  0.66171867  0.14839084  0.31895815  1
  H+  H276  1  0.57608027  0.15682115  0.11039905  1
  H+  H277  1  0.14898706  0.90420945  0.32125887  1
  H+  H278  1  0.55141069  0.88442649  0.36110005  1
  H+  H279  1  0.52549479  0.89698157  0.01867668  1
  H+  H280  1  0.38727875  0.26766047  0.31904878  1
  H+  H281  1  0.36252584  0.75588944  0.67992060  1
  H+  H282  1  0.07734840  0.72322730  0.50003006  1
  H+  H283  1  0.11684562  0.74864195  1.02284140  1
  H+  H284  1  0.15275515  0.88249942  0.15103991  1
  H+  H285  1  0.57783762  0.69137378  0.09550523  1
  H+  H286  1  0.36262659  0.60616299  0.67545369  1
  H+  H287  1  0.85848451  0.63381488  0.60037951  1
  H+  H288  1  0.33815105  0.42630194  0.72837879  1
  H+  H289  1  0.72717962  0.88099604  0.50966473  1
  H+  H290  1  0.15857017  0.83525513  0.93739629  1
  H+  H291  1  0.09042481  0.67561401  0.11232139  1
  H+  H292  1  0.16426443  0.32869565  0.92724316  1
  H+  H293  1  0.06198405  0.90528901  0.33066267  1
  H+  H294  1  0.40082985  0.84870475  0.33341990  1
  H+  H295  1  0.92241250  0.08153506  0.26463209  1
  H+  H296  1  0.06048073  0.16756718  0.73471044  1
  H+  H297  1  0.82401627  0.14599734  0.09623828  1
  H+  H298  1  0.32824011  0.64613764  0.42941111  1
  H+  H299  1  0.88701327  0.60393419  0.32581919  1
  H+  H300  1  0.63197797  0.95844611  0.10417057  1
  H+  H301  1  0.02132961  0.89340920  0.00405936  1
  H+  H302  1  0.32765166  0.65290267  0.77045403  1
  H+  H303  1  0.28885474  0.53784931  0.71568767  1
  H+  H304  1  0.12800403  0.17693032  0.07793234  1
  H+  H305  1  0.44343815  0.59279367  0.56118235  1
  H+  H306  1  0.66275647  0.58542296  0.56069942  1
  H+  H307  1  0.83639730  0.42588400  0.41231094  1
  H+  H308  1  0.80851011  0.66724003  0.76740142  1
  H+  H309  1  0.90876088  0.83484853  0.56219558  1
  H+  H310  1  0.83990182  0.65915616  0.38891010  1
  H+  H311  1  0.84244448  0.66868520  0.10866869  1
  H+  H312  1  0.82344775  0.13408303  0.43418106  1
  H+  H313  1  0.13048074  0.02331442  0.50609047  1
  H+  H314  1  0.60994695  0.42748179  0.08408954  1
  H+  H315  1  0.41023473  0.07749613  0.93924270  1
  H+  H316  1  0.30007389  0.88566351  0.42105836  1
  H+  H317  1  0.66831890  0.09111267  0.57479341  1
  H+  H318  1  0.70097277  0.39820329  0.58763173  1
  H+  H319  1  0.08537299  0.92969552  0.10480799  1
  H+  H320  1  0.61756001  0.90737495  0.41533925  1
  H+  H321  1  0.41171930  0.07801574  0.61676933  1
  H+  H322  1  0.31838879  0.90828241  0.06727389  1
  H+  H323  1  0.60705360  0.18623678  0.39822741  1
  H+  H324  1  0.17425367  0.09052710  0.25710654  1
  H+  H325  1  0.41607405  0.83549107  0.93364441  1
  H+  H326  1  0.66804509  0.57947345  0.94652864  1
  H+  H327  1  0.46518534  0.88121981  0.62397042  1
  H+  H328  1  0.87158357  0.47063135  0.16645540  1
  H+  H329  1  0.82368270  0.17258740  0.77111873  1
  H+  H330  1  0.16816290  0.56814290  0.55742558  1
  H+  H331  1  0.46130403  0.86156998  0.20385766  1
  H+  H332  1  1.01680208  0.89704975  0.49850884  1
  H+  H333  1  0.17168993  0.58782565  0.26995716  1
  H+  H334  1  0.15929409  0.03210062  0.31756428  1
  H+  H335  1  0.88263351  0.57128884  0.93745582  1
  H+  H336  1  0.42246994  0.56265417  0.23495536  1
  H+  H337  1  0.94295409  0.85215524  0.26935496  1
  H+  H338  1  0.88039545  0.00992172  0.80326296  1
  H+  H339  1  0.08849241  0.41593345  0.39778960  1
  H+  H340  1  0.51382879  0.12193352  0.83555897  1
  H+  H341  1  0.27744693  0.89932879  0.17842367  1
  H+  H342  1  0.87432142  0.62435275  0.66821168  1
  H+  H343  1  0.60321991  0.12054798  0.83466295  1
  H+  H344  1  0.67105327  0.33290867  0.26880376  1
  H+  H345  1  0.63450791  0.01451621  0.83794355  1
  H+  H346  1  0.33962544  0.68226865  0.09843540  1
  H+  H347  1  0.78053825  0.88231490  0.15750737  1
  H+  H348  1  0.95145582  0.32243524  0.16756055  1
  H+  H349  1  0.58955154  0.42657968  0.75760574  1
  H+  H350  1  0.58995494  0.66220077  0.42562969  1
  H+  H351  1  0.77778112  0.64931078  0.01531755  1
  H+  H352  1  0.43274806  0.07045557  0.50535311  1
  H+  H353  1  0.92839114  0.07704866  0.56511181  1
  H+  H354  1  0.37409858  0.34979864  0.31839154  1
  H+  H355  1  0.16077001  0.58738707  0.89352628  1
  H+  H356  1  0.14978963  0.56980571  1.00218844  1
  H+  H357  1  0.67159821  0.89293161  0.17259638  1
  H+  H358  1  0.50103061  0.40547335  0.93908773  1
  H+  H359  1  0.91957713  0.57319494  0.23585530  1
  H+  H360  1  0.15794961  0.33440102  0.55534703  1
  H+  H361  1  0.41282969  0.32936328  0.56532170  1
  H+  H362  1  0.32488053  0.17248565  0.39367012  1
  H+  H363  1  0.01336510  0.61715887  0.77419318  1
  H+  H364  1  0.41458850  0.58612090  0.93720152  1
  H+  H365  1  0.60432774  0.48495047  0.34278103  1
  H+  H366  1  0.84007098  0.41126648  0.06900485  1
  H+  H367  1  0.82792790  0.91707711  0.43078595  1
  H+  H368  1  0.88386371  0.36686734  0.66741591  1
  H+  H369  1  0.67674803  0.83878563  0.88287289  1
  H+  H370  1  0.67737370  0.86748741  0.62254457  1
  H+  H371  1  0.90977001  0.83203458  0.93215087  1
  H+  H372  1  0.91712163  0.34203469  0.56446526  1
  H+  H373  1  0.10446112  0.89480958  0.49994456  1
  H+  H374  1  0.83930821  0.41209499  0.76277596  1
  H+  H375  1  0.11776120  0.67811482  0.72420219  1
  H+  H376  1  0.47853212  0.43139258  0.94031834  1
  H+  H377  1  0.07654300  0.90347823  0.72816050  1
  H+  H378  1  0.91655094  0.32267659  0.26309150  1
  H+  H379  1  0.87258702  0.06014863  0.91731452  1
  H+  H380  1  0.06221884  0.41582602  0.09181926  1
  H+  H381  1  0.34191864  0.16204948  0.07762923  1
  H+  H382  1  0.38075032  0.85661650  0.47787614  1
  H+  H383  1  0.18654904  0.08838731  0.94109206  1
  O2-  O384  1  0.08418045  0.15420156  0.14539133  1
  O2-  O385  1  0.08835869  0.17053110  0.47279042  1
  O2-  O386  1  0.08022571  0.14971335  0.84340083  1
  O2-  O387  1  0.05632665  0.42878793  0.13535897  1
  O2-  O388  1  0.08167141  0.41326767  0.47177978  1
  O2-  O389  1  0.07909176  0.41312174  0.81090298  1
  O2-  O390  1  0.09126345  0.67148952  0.15810091  1
  O2-  O391  1  0.03926672  0.66145031  0.49116111  1
  O2-  O392  1  0.05714176  0.64927423  0.80589276  1
  O2-  O393  1  0.09109472  0.92764768  0.14939276  1
  O2-  O394  1  0.07924564  0.93088467  0.48871143  1
  O2-  O395  1  0.06208244  0.89141827  0.81163162  1
  O2-  O396  1  0.34460206  0.17622584  0.13964401  1
  O2-  O397  1  0.31989330  0.17183678  0.47285196  1
  O2-  O398  1  0.34490891  0.18076767  0.81743269  1
  O2-  O399  1  0.30890706  0.40054829  0.14291648  1
  O2-  O400  1  0.34052534  0.43060223  0.49090084  1
  O2-  O401  1  0.33628804  0.42801893  0.80411634  1
  O2-  O402  1  0.33675128  0.68768050  0.14457289  1
  O2-  O403  1  0.32581729  0.65032496  0.47426878  1
  O2-  O404  1  0.32707510  0.66660987  0.81421890  1
  O2-  O405  1  0.33812841  0.92798527  0.19621482  1
  O2-  O406  1  0.30812342  0.88676896  0.46624561  1
  O2-  O407  1  0.32056405  0.91335184  0.81955323  1
  O2-  O408  1  0.57605961  0.15688316  0.15590511  1
  O2-  O409  1  0.61631188  0.19663784  0.47881673  1
  O2-  O410  1  0.57139432  0.14762025  0.81611953  1
  O2-  O411  1  0.60414751  0.41157460  0.16006769  1
  O2-  O412  1  0.57775610  0.41629786  0.47975766  1
  O2-  O413  1  0.58171065  0.41496720  0.80233540  1
  O2-  O414  1  0.56802575  0.70534817  0.13715698  1
  O2-  O415  1  0.58483112  0.65697640  0.47080744  1
  O2-  O416  1  0.58131261  0.67888031  0.79762439  1
  O2-  O417  1  0.66400724  0.97745649  0.14355762  1
  O2-  O418  1  0.65586683  0.93344690  0.49925591  1
  O2-  O419  1  0.58396068  0.90828292  0.79821366  1
  O2-  O420  1  0.81877188  0.13538654  0.14112979  1
  O2-  O421  1  0.80766734  0.10609266  0.47515109  1
  O2-  O422  1  0.82363484  0.16855169  0.81679076  1
  O2-  O423  1  0.83988485  0.41051315  0.14900811  1
  O2-  O424  1  0.83894123  0.43713774  0.48380713  1
  O2-  O425  1  0.82984113  0.40676510  0.81031045  1
  O2-  O426  1  0.84562570  0.66424695  0.15368283  1
  O2-  O427  1  0.83094280  0.67319031  0.46584483  1
  O2-  O428  1  0.81567842  0.66819312  0.81123346  1
  O2-  O429  1  0.83982938  0.90995880  0.13919490  1
  O2-  O430  1  0.82089585  0.91547996  0.47683203  1
  O2-  O431  1  0.83578030  0.92739313  0.79352186  1
  O2-  O432  1  0.15976678  0.08215241  0.18897843  1
  O2-  O433  1  0.16753270  0.08688871  0.52017717  1
  O2-  O434  1  0.16675783  0.06491149  0.85344767  1
  O2-  O435  1  0.14968314  0.32393996  0.18921725  1
  O2-  O436  1  0.16215664  0.33682918  0.51089590  1
  O2-  O437  1  0.16853432  0.33606575  0.84554080  1
  O2-  O438  1  0.17998548  0.59919072  0.18566483  1
  O2-  O439  1  0.16622236  0.56636819  0.51273061  1
  O2-  O440  1  0.15522894  0.58152988  0.84867219  1
  O2-  O441  1  0.18918997  0.85487181  0.14569009  1
  O2-  O442  1  0.14962715  0.83078245  0.52056916  1
  O2-  O443  1  0.15199556  0.81985405  0.85538138  1
  O2-  O444  1  0.40986571  0.09332923  0.19961820  1
  O2-  O445  1  0.38541053  0.06049102  0.47905343  1
  O2-  O446  1  0.40762244  0.07775224  0.86278841  1
  O2-  O447  1  0.42414994  0.34483196  0.18809290  1
  O2-  O448  1  0.41135792  0.33162587  0.52020727  1
  O2-  O449  1  0.42583644  0.34739482  0.83232282  1
  O2-  O450  1  0.42897346  0.56651386  0.19051186  1
  O2-  O451  1  0.44283991  0.58598022  0.51590856  1
  O2-  O452  1  0.41874773  0.59151784  0.85781577  1
  O2-  O453  1  0.41723585  0.84106170  0.17237448  1
  O2-  O454  1  0.41873323  0.83039962  0.47495384  1
  O2-  O455  1  0.41287255  0.83444720  0.84965519  1
  O2-  O456  1  0.57593743  0.01707415  0.21920149  1
  O2-  O457  1  0.66358594  0.09646715  0.52800343  1
  O2-  O458  1  0.65883566  0.07237181  0.85627996  1
  O2-  O459  1  0.67634420  0.32160290  0.19225215  1
  O2-  O460  1  0.67492876  0.35922672  0.51857677  1
  O2-  O461  1  0.65646731  0.32948965  0.83180618  1
  O2-  O462  1  0.67443246  0.58373270  0.20006483  1
  O2-  O463  1  0.66289641  0.58076146  0.51566464  1
  O2-  O464  1  0.65743977  0.56735437  0.87148191  1
  O2-  O465  1  0.68375803  0.84798632  0.18880665  1
  O2-  O466  1  0.67469357  0.87343862  0.53263409  1
  O2-  O467  1  0.67355114  0.84477673  0.83607950  1
  O2-  O468  1  0.92059765  0.07341431  0.18602213  1
  O2-  O469  1  0.92712237  0.07939254  0.52069011  1
  O2-  O470  1  0.92009873  0.08297592  0.81315586  1
  O2-  O471  1  0.89541945  0.29662213  0.18794871  1
  O2-  O472  1  0.92268361  0.34831801  0.51965569  1
  O2-  O473  1  0.91708615  0.33759954  0.85556378  1
  O2-  O474  1  0.92247707  0.57338211  0.18967577  1
  O2-  O475  1  0.90419656  0.57927845  0.55373532  1
  O2-  O476  1  0.88583335  0.57419976  0.85616122  1
  O2-  O477  1  0.92569784  0.83212332  0.18924289  1
  O2-  O478  1  0.91003021  0.83655443  0.51654640  1
  O2-  O479  1  0.89612312  0.83064875  0.84762953  1
  O2-  O480  1  0.18239071  0.09395923  0.30429782  1
  O2-  O481  1  0.19677108  0.04473241  0.63241830  1
  O2-  O482  1  0.18903481  0.08719162  0.98561021  1
  O2-  O483  1  0.15243117  0.31614129  0.30655806  1
  O2-  O484  1  0.17539525  0.30540787  0.63902007  1
  O2-  O485  1  0.16415507  0.32370019  0.97225242  1
  O2-  O486  1  0.17404371  0.58555002  0.31474258  1
  O2-  O487  1  0.16666556  0.56664307  0.64071839  1
  O2-  O488  1  0.18662223  0.61484440  0.97389480  1
  O2-  O489  1  0.33376855  0.87567461  0.30380091  1
  O2-  O490  1  0.16734470  0.82688339  0.64347325  1
  O2-  O491  1  0.16683692  0.84627065  0.98170412  1
  O2-  O492  1  0.42179825  0.08739018  0.36529700  1
  O2-  O493  1  0.41180308  0.08074632  0.66092658  1
  O2-  O494  1  0.41141730  0.07834573  0.98503869  1
  O2-  O495  1  0.41342293  0.32763037  0.30311961  1
  O2-  O496  1  0.42402729  0.33939068  0.64489357  1
  O2-  O497  1  0.42758528  0.34179176  1.04161216  1
  O2-  O498  1  0.40604970  0.56018539  0.31849674  1
  O2-  O499  1  0.43466965  0.59269060  0.63747097  1
  O2-  O500  1  0.41385122  0.58710493  0.98258788  1
  O2-  O501  1  0.43618439  0.82443751  0.35165141  1
  O2-  O502  1  0.46798659  0.91753016  0.65763399  1
  O2-  O503  1  0.41330299  0.83243310  0.97873997  1
  O2-  O504  1  0.69713958  0.13367872  0.29268209  1
  O2-  O505  1  0.67458909  0.07755057  0.64121479  1
  O2-  O506  1  0.65997613  0.09340804  0.98195903  1
  O2-  O507  1  0.66154842  0.33342578  0.31339124  1
  O2-  O508  1  0.71755373  0.42863039  0.62803099  1
  O2-  O509  1  0.67708228  0.33803343  0.99492724  1
  O2-  O510  1  0.68083920  0.56515539  0.30282783  1
  O2-  O511  1  0.67053736  0.60138022  0.63993710  1
  O2-  O512  1  0.67247430  0.58947521  0.99172339  1
  O2-  O513  1  0.69006318  0.84116255  0.31054168  1
  O2-  O514  1  0.67629523  0.85509598  0.66638591  1
  O2-  O515  1  0.67830698  0.82472545  0.95045203  1
  O2-  O516  1  0.92327068  0.08558036  0.31010566  1
  O2-  O517  1  0.88544248  0.05646520  0.65570540  1
  O2-  O518  1  0.83637110  0.04806748  0.95285916  1
  O2-  O519  1  0.92971978  0.33938740  0.30689068  1
  O2-  O520  1  0.90700104  0.32814057  0.64756813  1
  O2-  O521  1  0.91143878  0.32895867  0.97851944  1
  O2-  O522  1  0.91873711  0.57179296  0.30918573  1
  O2-  O523  1  0.93724690  0.58249066  0.69874135  1
  O2-  O524  1  0.89165744  0.57760095  0.98190970  1
  O2-  O525  1  0.96055942  0.86667989  0.31239030  1
  O2-  O526  1  0.91211656  0.82678933  0.63812428  1
  O2-  O527  1  0.91878255  0.83689087  0.97668556  1
  O2-  O528  1  0.16338333  0.19373745  0.03914290  1
  O2-  O529  1  0.08754901  0.15784795  0.34866065  1
  O2-  O530  1  0.03764557  0.19596861  0.70930652  1
  O2-  O531  1  0.06486628  0.39024033  0.01675369  1
  O2-  O532  1  0.09461799  0.41698148  0.35186642  1
  O2-  O533  1  0.07923071  0.41201013  0.68635513  1
  O2-  O534  1  0.09829870  0.69034026  0.03874576  1
  O2-  O535  1  0.07181363  0.65264698  0.37173150  1
  O2-  O536  1  0.11235845  0.67112089  0.67994767  1
  O2-  O537  1  0.08091328  0.92109760  0.02129081  1
  O2-  O538  1  0.12511508  0.93615923  0.34037828  1
  O2-  O539  1  0.07969421  0.90048871  0.68345074  1
  O2-  O540  1  0.33985395  0.15560592  0.02845585  1
  O2-  O541  1  0.33578155  0.16750220  0.34969903  1
  O2-  O542  1  0.34126474  0.17832660  0.69172757  1
  O2-  O543  1  0.33018345  0.41985116  0.02205465  1
  O2-  O544  1  0.31791610  0.38624639  0.34197486  1
  O2-  O545  1  0.34128100  0.42630122  0.68266300  1
  O2-  O546  1  0.34132800  0.67505810  0.02564878  1
  O2-  O547  1  0.33742749  0.65163063  0.34936658  1
  O2-  O548  1  0.31199028  0.59656993  0.70135566  1
  O2-  O549  1  0.32485534  0.91448347  0.02316869  1
  O2-  O550  1  0.30568773  0.91934205  0.34668733  1
  O2-  O551  1  0.32488788  0.91405287  0.69698164  1
  O2-  O552  1  0.57972374  0.16790310  0.03280608  1
  O2-  O553  1  0.58993907  0.17859840  0.35493601  1
  O2-  O554  1  0.56479228  0.12178437  0.70009944  1
  O2-  O555  1  0.60288605  0.42885116  0.03896407  1
  O2-  O556  1  0.55674029  0.44274431  0.36994688  1
  O2-  O557  1  0.58992887  0.43926159  0.68173535  1
  O2-  O558  1  0.58838022  0.67514411  0.01494246  1
  O2-  O559  1  0.60947895  0.67928150  0.34739024  1
  O2-  O560  1  0.58962457  0.68524459  0.68124082  1
  O2-  O561  1  0.58449972  0.93280548  0.03339051  1
  O2-  O562  1  0.61323686  0.91357847  0.37138917  1
  O2-  O563  1  0.59483125  0.92460030  0.73196862  1
  O2-  O564  1  0.82374771  0.16294848  0.01999921  1
  O2-  O565  1  0.84793030  0.16929132  0.35993324  1
  O2-  O566  1  0.82937985  0.17689816  0.69468601  1
  O2-  O567  1  0.83784567  0.40965116  0.02384541  1
  O2-  O568  1  0.82934166  0.40637093  0.36790355  1
  O2-  O569  1  0.85518855  0.42104480  0.69622129  1
  O2-  O570  1  0.83976686  0.68014748  0.02748141  1
  O2-  O571  1  0.84313840  0.64944853  0.34456590  1
  O2-  O572  1  0.84163808  0.64323390  0.64147287  1
  O2-  O573  1  0.83108559  0.91720223  0.01564152  1
  O2-  O574  1  0.84723815  0.92324700  0.35895888  1
  O2-  O575  1  0.83997636  0.92084554  0.72647574  1
