# generated using pymatgen
data_H2O
_symmetry_space_group_name_H-M   'P 1'
_cell_length_a   17.98742735
_cell_length_b   17.97127135
_cell_length_c   21.97961551
_cell_angle_alpha   89.96249010
_cell_angle_beta   90.01951436
_cell_angle_gamma   120.00052529
_symmetry_Int_Tables_number   1
_chemical_formula_structural   H2O
_chemical_formula_sum   'H384 O192'
_cell_volume   6153.13133895
_cell_formula_units_Z   192
loop_
 _symmetry_equiv_pos_site_id
 _symmetry_equiv_pos_as_xyz
  1  'x, y, z'
loop_
 _atom_type_symbol
 _atom_type_oxidation_number
  H+  1.0
  O2-  -2.0
loop_
 _atom_site_type_symbol
 _atom_site_label
 _atom_site_symmetry_multiplicity
 _atom_site_fract_x
 _atom_site_fract_y
 _atom_site_fract_z
 _atom_site_occupancy
  H+  H0  1  0.36413703  0.13561929  0.16300215  1
  H+  H1  1  0.88376873  0.50841026  0.66075505  1
  H+  H2  1  0.73539180  0.12314478  0.17867810  1
  H+  H3  1  0.10540155  0.13941554  0.50584243  1
  H+  H4  1  0.88748725  0.59903089  0.66021782  1
  H+  H5  1  0.24035529  0.38591093  0.83511854  1
  H+  H6  1  0.86713855  0.70757380  0.00172214  1
  H+  H7  1  0.59126489  0.72557803  0.82394482  1
  H+  H8  1  0.93643969  0.33444566  0.24294391  1
  H+  H9  1  0.38236852  0.72900070  0.15580057  1
  H+  H10  1  0.38532035  0.85816278  0.32261457  1
  H+  H11  1  0.50909371  0.64218389  0.33866648  1
  H+  H12  1  0.90270044  0.61168869  0.50694320  1
  H+  H13  1  0.13931166  0.52266471  0.33144329  1
  H+  H14  1  0.88115763  0.74206207  0.49952829  1
  H+  H15  1  0.69419542  0.56718367  0.90179172  1
  H+  H16  1  0.58755647  0.64395293  0.50000262  1
  H+  H17  1  0.46902478  0.84836899  0.84529123  1
  H+  H18  1  0.51973892  0.24481955  0.10372893  1
  H+  H19  1  0.86140583  0.47001906  0.82684695  1
  H+  H20  1  0.48336076  0.60533569  0.16637927  1
  H+  H21  1  0.24109782  0.86771337  0.67923729  1
  H+  H22  1  0.83070453  0.17365081  0.77152025  1
  H+  H23  1  0.11820472  0.22918074  0.16392168  1
  H+  H24  1  0.62803060  0.48537392  0.66866917  1
  H+  H25  1  0.83131477  0.40322423  0.77184579  1
  H+  H26  1  0.42028599  0.13123651  0.50320800  1
  H+  H27  1  0.14862486  0.76509589  0.83848864  1
  H+  H28  1  0.73579518  0.60306238  0.99356589  1
  H+  H29  1  0.05659016  0.39753930  0.01644197  1
  H+  H30  1  0.97345161  0.83664688  0.98369652  1
  H+  H31  1  0.64307715  0.52306264  0.33669522  1
  H+  H32  1  0.12214797  0.84470201  0.32631040  1
  H+  H33  1  0.07784068  0.12051549  0.66884951  1
  H+  H34  1  0.60138677  0.48022443  0.16245937  1
  H+  H35  1  0.78784115  0.64671800  0.68201981  1
  H+  H36  1  0.39267201  0.03615200  0.66863643  1
  H+  H37  1  0.08635712  0.43570984  0.41843039  1
  H+  H38  1  0.02581362  0.61618509  0.48994389  1
  H+  H39  1  0.89759760  0.51293124  0.32876466  1
  H+  H40  1  0.24251309  0.62784526  0.99419587  1
  H+  H41  1  0.28648466  0.39809273  0.01033279  1
  H+  H42  1  0.88016991  0.20433299  0.50720311  1
  H+  H43  1  0.32433375  0.81317461  0.64166599  1
  H+  H44  1  -0.00121951  0.16483472  0.50075558  1
  H+  H45  1  0.87479422  0.26056882  0.84860222  1
  H+  H46  1  0.36314907  0.47645027  0.33725679  1
  H+  H47  1  0.89231403  0.86943088  0.66335642  1
  H+  H48  1  0.53603176  0.75936617  0.20534470  1
  H+  H49  1  0.63711365  0.10262591  0.17035296  1
  H+  H50  1  1.00188289  0.84069941  0.16946538  1
  H+  H51  1  0.64549058  0.36628805  0.66231992  1
  H+  H52  1  0.37454939  0.26728801  0.17365978  1
  H+  H53  1  0.85057110  0.97384402  0.67640556  1
  H+  H54  1  0.34648225  0.51750467  0.85957389  1
  H+  H55  1  0.87633921  0.99290585  0.16274083  1
  H+  H56  1  0.41465950  0.59075753  0.93567840  1
  H+  H57  1  0.90620704  0.52010731  0.17087213  1
  H+  H58  1  0.64376918  0.61414927  0.16902555  1
  H+  H59  1  0.33898115  0.72216072  0.82811105  1
  H+  H60  1  0.54301735  0.38276992  0.50498701  1
  H+  H61  1  0.61709545  0.47574235  0.00779014  1
  H+  H62  1  0.91915299  0.26730562  1.00334352  1
  H+  H63  1  0.14274508  0.74311135  0.68265473  1
  H+  H64  1  0.14188270  0.14403006  0.83437748  1
  H+  H65  1  0.74169027  0.52858756  0.86526221  1
  H+  H66  1  0.51596832  0.39747217  0.81942117  1
  H+  H67  1  0.85253882  0.88368663  0.32134013  1
  H+  H68  1  0.60902233  0.21089137  0.82318595  1
  H+  H69  1  0.62900383  0.22251734  0.50298138  1
  H+  H70  1  0.27788856  0.87738965  0.82625638  1
  H+  H71  1  0.10156907  0.50883644  0.66230207  1
  H+  H72  1  0.72607674  0.85580364  0.69122415  1
  H+  H73  1  0.12276923  0.37735546  0.79630438  1
  H+  H74  1  0.10981843  0.45332709  0.10939888  1
  H+  H75  1  0.12622100  0.88165771  0.14949927  1
  H+  H76  1  0.37256735  0.48030679  0.68686558  1
  H+  H77  1  0.14240022  0.98492364  0.31076237  1
  H+  H78  1  0.86834129  0.37729201  0.34589766  1
  H+  H79  1  0.75304876  0.35978711  1.05270365  1
  H+  H80  1  0.88453551  0.11266696  0.84156481  1
  H+  H81  1  0.46882420  0.09039303  0.17050929  1
  H+  H82  1  0.63372670  0.87240337  0.51113594  1
  H+  H83  1  0.87476183  0.77435525  0.32666763  1
  H+  H84  1  0.65271267  0.11064877  0.50892130  1
  H+  H85  1  0.22507477  0.37293360  0.33436008  1
  H+  H86  1  0.60546093  0.71623271  0.14882396  1
  H+  H87  1  0.09208515  0.67080912  0.07122060  1
  H+  H88  1  0.73473176  0.09686658  0.51249604  1
  H+  H89  1  0.34862382  0.60621353  0.84631536  1
  H+  H90  1  0.12278802  0.70989665  0.16501310  1
  H+  H91  1  0.81445001  0.66022704  0.83031354  1
  H+  H92  1  0.35550843  0.39372065  0.48716569  1
  H+  H93  1  0.62234756  0.35405565  0.82291123  1
  H+  H94  1  1.03820930  0.62494017  0.82982383  1
  H+  H95  1  0.61791722  0.22506962  0.35165429  1
  H+  H96  1  0.56634146  0.13000525  0.08779834  1
  H+  H97  1  0.63982183  0.78880755  0.50995493  1
  H+  H98  1  0.61825257  0.89128082  0.95489198  1
  H+  H99  1  0.37331129  0.52775586  0.50596032  1
  H+  H100  1  0.49116972  0.91031465  0.02440007  1
  H+  H101  1  0.70089740  0.27679247  0.16846486  1
  H+  H102  1  0.10616935  0.97038937  -0.00721555  1
  H+  H103  1  0.21444832  0.37434281  0.51891346  1
  H+  H104  1  0.77365000  0.37132437  0.68025373  1
  H+  H105  1  0.38942560  0.77150525  0.32163702  1
  H+  H106  1  0.85287768  0.99400426  1.00788470  1
  H+  H107  1  0.08762359  0.91168843  0.05252320  1
  H+  H108  1  0.49885582  0.54242335  0.71031426  1
  H+  H109  1  0.49858196  0.11642165  0.51133708  1
  H+  H110  1  0.37312393  0.73598744  1.00189379  1
  H+  H111  1  0.61601542  0.13915411  -0.00549732  1
  H+  H112  1  0.56766744  0.26579524  0.10200373  1
  H+  H113  1  0.00645532  0.87089749  0.33429425  1
  H+  H114  1  0.38873191  0.61678723  0.32009818  1
  H+  H115  1  0.63082894  0.37860425  0.51379170  1
  H+  H116  1  0.03050407  0.62598999  0.16332634  1
  H+  H117  1  0.13535201  0.49385401  0.01348445  1
  H+  H118  1  0.36965062  0.15692069  0.67971361  1
  H+  H119  1  0.88853885  1.02562944  0.84255981  1
  H+  H120  1  0.85210138  0.35455461  0.68384143  1
  H+  H121  1  0.48100162  0.82496465  0.96932740  1
  H+  H122  1  0.93308199  0.40161424  0.00273767  1
  H+  H123  1  0.36384681  0.25901021  0.33078901  1
  H+  H124  1  0.92157694  0.63277680  0.83580206  1
  H+  H125  1  0.52348469  0.14500583  0.67601483  1
  H+  H126  1  0.49758864  0.64053362  0.82995611  1
  H+  H127  1  0.24642881  0.61120889  0.67358640  1
  H+  H128  1  0.98278272  0.76618946  0.21469709  1
  H+  H129  1  0.12829029  0.75279864  0.49567160  1
  H+  H130  1  0.77023965  0.91023866  0.50422768  1
  H+  H131  1  0.77532311  0.13424883  0.34872983  1
  H+  H132  1  0.02709530  0.62331123  0.33604999  1
  H+  H133  1  0.73824725  0.35459611  0.51623314  1
  H+  H134  1  0.36737000  0.88197159  0.98692169  1
  H+  H135  1  0.36470099  0.12925044  0.35014904  1
  H+  H136  1  0.35315500  0.64217421  0.48187455  1
  H+  H137  1  0.77214304  0.89109109  0.82653413  1
  H+  H138  1  0.39520826  0.37899679  0.99008542  1
  H+  H139  1  0.89615584  0.75457789  0.83055255  1
  H+  H140  1  0.35509043  0.96665830  0.17460079  1
  H+  H141  1  0.88755706  0.11709630  0.32824598  1
  H+  H142  1  0.88976816  0.60001690  0.17064082  1
  H+  H143  1  0.36852606  0.64282271  0.00418807  1
  H+  H144  1  0.72723248  0.60430657  0.17222373  1
  H+  H145  1  0.48754770  0.87210478  0.17361709  1
  H+  H146  1  0.12002202  0.57024830  0.16360850  1
  H+  H147  1  0.57154662  0.91386940  0.77853451  1
  H+  H148  1  0.16312497  0.34643936  0.27548403  1
  H+  H149  1  0.09220035  0.04605504  0.49962040  1
  H+  H150  1  0.64037161  0.02597541  0.33219295  1
  H+  H151  1  0.39737677  1.02431273  0.33393444  1
  H+  H152  1  0.72107327  0.10080437  0.98981969  1
  H+  H153  1  0.05707944  0.37895831  0.67529818  1
  H+  H154  1  0.70797036  0.35679769  0.97126261  1
  H+  H155  1  0.60488557  0.86026938  -0.01880396  1
  H+  H156  1  0.87211450  0.46710010  0.49979719  1
  H+  H157  1  0.60790163  0.89195024  0.69455323  1
  H+  H158  1  0.63176053  0.60361254  0.67172379  1
  H+  H159  1  0.87315316  0.13039309  0.01101996  1
  H+  H160  1  0.13703983  0.10579057  0.16846859  1
  H+  H161  1  0.93272331  0.09902798  0.26986569  1
  H+  H162  1  1.00310739  0.38738811  0.83413363  1
  H+  H163  1  0.86428599  1.03315727  0.50429339  1
  H+  H164  1  1.00044286  0.37559242  0.18585217  1
  H+  H165  1  0.12788416  0.64873794  0.01208529  1
  H+  H166  1  0.27288701  0.13045818  0.15796046  1
  H+  H167  1  0.15996267  0.28394642  -0.00040369  1
  H+  H168  1  0.62901741  0.98452175  0.16751834  1
  H+  H169  1  0.24979860  0.86033970  0.34363313  1
  H+  H170  1  0.36324105  0.47731287  0.16718720  1
  H+  H171  1  0.80199839  0.64829502  0.50548835  1
  H+  H172  1  0.10319009  0.26165927  0.34916708  1
  H+  H173  1  0.65723780  0.51967587  0.51900597  1
  H+  H174  1  0.88594667  0.08802309  0.59910603  1
  H+  H175  1  0.58406940  0.16290971  0.73415541  1
  H+  H176  1  0.86612486  0.16198044  0.66793981  1
  H+  H177  1  0.64808800  0.60751395  -0.01372774  1
  H+  H178  1  0.95808274  0.96838599  -0.01693479  1
  H+  H179  1  0.39675131  0.40807017  0.68293883  1
  H+  H180  1  0.98119563  0.35714154  0.52516660  1
  H+  H181  1  0.45919345  0.60973798  0.66013973  1
  H+  H182  1  0.84066295  0.92400506  0.73943446  1
  H+  H183  1  0.16149647  0.55753098  0.26307146  1
  H+  H184  1  0.14956983  0.34213369  0.69678704  1
  H+  H185  1  0.52146185  0.11907020  0.82539733  1
  H+  H186  1  0.70543984  0.31661019  0.18343281  1
  H+  H187  1  0.23051454  0.07400389  0.31478972  1
  H+  H188  1  0.38145699  0.27771169  0.48168726  1
  H+  H189  1  0.61157970  0.88902342  0.34407038  1
  H+  H190  1  0.40361857  0.91933309  0.68566307  1
  H+  H191  1  0.00593415  0.15794308  0.34633698  1
  H+  H192  1  0.12818500  0.75759070  0.32622213  1
  H+  H193  1  0.35613414  0.73162360  0.47870377  1
  H+  H194  1  0.12060404  0.63197091  0.33272466  1
  H+  H195  1  0.47183528  0.10769926  -0.01296304  1
  H+  H196  1  0.99139360  0.12398521  0.17509697  1
  H+  H197  1  0.74735277  0.39686341  0.06247683  1
  H+  H198  1  0.35231880  0.38250222  0.16706625  1
  H+  H199  1  0.52951969  0.32996729  0.26926156  1
  H+  H200  1  0.91900796  0.85090485  0.56724923  1
  H+  H201  1  0.48036297  0.37398006  0.98799166  1
  H+  H202  1  0.90179254  0.12455203  0.17908683  1
  H+  H203  1  0.22704250  0.85045426  0.17609151  1
  H+  H204  1  0.00648531  0.13470578  -0.00868658  1
  H+  H205  1  0.96583098  0.97601790  1.01666241  1
  H+  H206  1  0.36530564  0.87189971  0.83159987  1
  H+  H207  1  0.89988243  0.38912744  0.16357879  1
  H+  H208  1  0.45832954  0.36113106  0.17557697  1
  H+  H209  1  0.86346641  0.89017808  0.83109722  1
  H+  H210  1  0.34384210  0.10837033  0.00292959  1
  H+  H211  1  0.31959387  0.42236391  0.43312988  1
  H+  H212  1  0.52392642  0.89066660  0.34106545  1
  H+  H213  1  0.66574309  0.83060700  0.78539351  1
  H+  H214  1  0.89254154  0.78028091  0.65910608  1
  H+  H215  1  0.62958262  1.00621251  0.84198479  1
  H+  H216  1  0.76458100  0.12643371  0.82702153  1
  H+  H217  1  0.22824406  0.37256967  0.18304896  1
  H+  H218  1  0.08137851  0.48446796  0.82655428  1
  H+  H219  1  0.29124620  0.82321027  0.38801742  1
  H+  H220  1  0.61554744  0.47160835  0.82197732  1
  H+  H221  1  1.01898782  0.87299916  0.81340295  1
  H+  H222  1  0.27847680  0.63595349  0.32744257  1
  H+  H223  1  0.60236148  0.84721132  0.17618617  1
  H+  H224  1  0.36377619  -0.01325281  0.49902523  1
  H+  H225  1  0.46561977  0.86349524  0.50639790  1
  H+  H226  1  0.49783488  0.64085933  0.49647277  1
  H+  H227  1  0.37758123  0.86639281  0.50572452  1
  H+  H228  1  0.63715320  0.11655090  0.66077192  1
  H+  H229  1  0.44181534  0.34881054  0.43443977  1
  H+  H230  1  0.63581720  0.71793887  -0.01347489  1
  H+  H231  1  0.37475175  0.37907131  0.84733512  1
  H+  H232  1  0.10652748  0.86989723  0.81602373  1
  H+  H233  1  0.87233060  0.70443331  0.15731573  1
  H+  H234  1  0.79751738  0.89902283  0.16863107  1
  H+  H235  1  0.17336366  0.59925294  0.93878520  1
  H+  H236  1  0.76761327  0.64599461  0.34563999  1
  H+  H237  1  0.49649186  0.38043413  0.64798725  1
  H+  H238  1  0.98378065  0.36442919  0.34190974  1
  H+  H239  1  0.63324393  0.09839331  0.83701105  1
  H+  H240  1  0.58179254  0.99807787  0.01719698  1
  H+  H241  1  0.60701449  0.97388927  0.49877911  1
  H+  H242  1  0.07332741  0.20934244  0.67045615  1
  H+  H243  1  0.73462302  0.85684897  0.96915262  1
  H+  H244  1  0.20885978  0.84710176  0.50533166  1
  H+  H245  1  0.14123851  0.77695814  0.99095283  1
  H+  H246  1  0.63743084  0.27233743  0.66751298  1
  H+  H247  1  0.89805566  0.27078816  0.33722887  1
  H+  H248  1  0.14826162  0.15466456  0.30409632  1
  H+  H249  1  0.40012857  0.61759737  0.16781731  1
  H+  H250  1  0.94723909  0.10782155  0.65712642  1
  H+  H251  1  0.13197242  0.38688482  0.52189012  1
  H+  H252  1  0.10736686  0.55721375  0.49623158  1
  H+  H253  1  0.99948659  0.62976312  0.98929363  1
  H+  H254  1  0.60327051  0.38154960  0.00473151  1
  H+  H255  1  0.86948261  0.37626482  0.50307221  1
  H+  H256  1  0.21235223  0.09668753  0.98654851  1
  H+  H257  1  0.42585948  0.83393919  0.23138093  1
  H+  H258  1  0.10337778  0.86616945  0.48731804  1
  H+  H259  1  0.03209624  0.88279612  0.66416084  1
  H+  H260  1  0.11613203  0.40157092  0.35950710  1
  H+  H261  1  0.11738437  0.11405440  0.32022118  1
  H+  H262  1  0.73155626  0.35740138  0.33525569  1
  H+  H263  1  0.48570346  0.11298894  0.33853774  1
  H+  H264  1  0.39602411  0.01219198  0.83754722  1
  H+  H265  1  0.12006582  0.01961439  0.65789441  1
  H+  H266  1  0.62678564  0.39071097  0.36221381  1
  H+  H267  1  0.09313036  0.25488775  0.50714955  1
  H+  H268  1  0.72109145  0.86075674  0.32203121  1
  H+  H269  1  0.13275960  0.11235169  -0.01148502  1
  H+  H270  1  0.14076799  0.86535597  0.98276484  1
  H+  H271  1  0.25910835  0.16433672  0.82732054  1
  H+  H272  1  0.83847256  0.16057730  0.10733809  1
  H+  H273  1  0.39792966  0.53453467  0.99641404  1
  H+  H274  1  0.14761529  0.85932552  0.66945951  1
  H+  H275  1  0.60657062  0.74090844  0.34393892  1
  H+  H276  1  0.87772969  0.23198485  0.16192942  1
  H+  H277  1  0.16193984  0.37508243  0.99865424  1
  H+  H278  1  0.38655204  0.01442325  0.98225202  1
  H+  H279  1  0.31388489  0.14925615  0.53274957  1
  H+  H280  1  0.33080886  0.70247805  0.66998748  1
  H+  H281  1  0.66405432  0.07524697  0.92797812  1
  H+  H282  1  -0.02298349  0.88153335  0.50757709  1
  H+  H283  1  1.01966352  0.14768216  0.82425105  1
  H+  H284  1  0.36927442  0.60942148  0.66225426  1
  H+  H285  1  0.36084430  0.26008318  0.82508181  1
  H+  H286  1  0.17188736  0.10806840  0.89260698  1
  H+  H287  1  0.61859633  0.13584731  0.34773946  1
  H+  H288  1  0.91578685  0.44226077  0.06165094  1
  H+  H289  1  0.06765538  0.89753431  0.39397359  1
  H+  H290  1  0.53265811  0.03493010  0.10188794  1
  H+  H291  1  0.25554356  0.38553896  0.90604996  1
  H+  H292  1  0.33627406  0.66985764  0.38851515  1
  H+  H293  1  0.12339374  0.28880260  0.79366458  1
  H+  H294  1  0.67592824  0.60235649  0.48347907  1
  H+  H295  1  0.41892405  0.35244607  0.89832230  1
  H+  H296  1  0.60728989  0.22393169  -0.00484466  1
  H+  H297  1  0.85921389  0.68315524  0.73443406  1
  H+  H298  1  0.55398170  0.62947486  0.74710995  1
  H+  H299  1  0.94369451  0.10417955  0.93270747  1
  H+  H300  1  0.40084275  0.58877176  0.56526574  1
  H+  H301  1  0.43375568  0.35828865  0.59082271  1
  H+  H302  1  0.35054092  0.67024486  0.09631331  1
  H+  H303  1  0.59402428  0.66373380  0.08673054  1
  H+  H304  1  0.86534872  0.92122381  0.50327809  1
  H+  H305  1  0.35417104  0.92454487  0.74394547  1
  H+  H306  1  0.13454526  0.08036892  0.60108870  1
  H+  H307  1  0.60967236  0.87691815  0.83043168  1
  H+  H308  1  0.57058323  0.41568031  0.10504448  1
  H+  H309  1  0.34254307  0.42708726  0.07099471  1
  H+  H310  1  0.14434939  0.33934723  0.62202020  1
  H+  H311  1  0.56402936  0.67542228  0.40700575  1
  H+  H312  1  0.83932078  0.40714583  0.40520406  1
  H+  H313  1  0.19783374  0.63000442  0.83007153  1
  H+  H314  1  0.16011495  0.81972964  0.23090461  1
  H+  H315  1  0.42264906  0.07666522  0.89350367  1
  H+  H316  1  0.32385369  0.92499049  0.44110850  1
  H+  H317  1  0.08448120  0.64417395  0.42945161  1
  H+  H318  1  0.09846618  0.17832681  0.09916115  1
  H+  H319  1  0.33211238  0.19573436  0.76317802  1
  H+  H320  1  0.13788924  0.55881134  0.59862485  1
  H+  H321  1  0.06407756  0.16216209  0.75967099  1
  H+  H322  1  0.94216057  0.59382756  0.89492037  1
  H+  H323  1  0.85395171  0.97266132  0.32912049  1
  H+  H324  1  0.58465159  0.42099919  0.72474498  1
  H+  H325  1  0.92134827  0.57245857  0.56657693  1
  H+  H326  1  0.81897186  0.38883367  0.13419942  1
  H+  H327  1  0.57889267  0.93582936  0.10631700  1
  H+  H328  1  0.37563666  0.24739683  0.67187764  1
  H+  H329  1  0.61383616  0.98284091  0.68723727  1
  H+  H330  1  0.64629657  0.32501255  0.91409141  1
  H+  H331  1  0.10897527  0.66375433  0.73887623  1
  H+  H332  1  0.16915940  0.06187569  0.22006178  1
  H+  H333  1  0.05979301  0.20368383  0.41695864  1
  H+  H334  1  0.87153157  0.34767425  0.85559606  1
  H+  H335  1  0.04403372  0.42224152  0.73383337  1
  H+  H336  1  0.08655345  0.90859779  0.72529762  1
  H+  H337  1  0.23873209  0.14890366  0.49795689  1
  H+  H338  1  0.91086803  0.30315739  0.57770152  1
  H+  H339  1  0.66521981  0.07561486  0.60817450  1
  H+  H340  1  0.36324539  0.88219875  0.16870811  1
  H+  H341  1  0.64700088  0.33024829  0.29090932  1
  H+  H342  1  0.81059167  0.94490243  0.06856412  1
  H+  H343  1  0.67810351  0.32459048  0.57667085  1
  H+  H344  1  0.39134107  0.31904160  0.27186061  1
  H+  H345  1  0.86956120  0.62029735  0.00370827  1
  H+  H346  1  0.14442775  0.38011993  0.18275597  1
  H+  H347  1  0.83825767  0.15323197  0.40638770  1
  H+  H348  1  0.71441456  0.35807195  0.82874220  1
  H+  H349  1  0.93552652  0.31408142  0.93884331  1
  H+  H350  1  0.40854267  0.81955616  0.90529761  1
  H+  H351  1  0.18482976  0.20482950  0.04220128  1
  H+  H352  1  0.61001685  0.42926334  0.42065797  1
  H+  H353  1  0.57449178  0.91609056  0.43879394  1
  H+  H354  1  0.31753237  0.13976590  0.06304735  1
  H+  H355  1  0.67348613  0.08904490  0.27421981  1
  H+  H356  1  0.57498798  0.35795045  0.20636616  1
  H+  H357  1  0.42024346  0.09149877  0.60720538  1
  H+  H358  1  0.92636582  0.57085770  0.26842406  1
  H+  H359  1  0.27911604  0.88306679  -0.01287107  1
  H+  H360  1  0.91684053  0.82319729  0.26346244  1
  H+  H361  1  0.35146862  0.38107697  0.34042603  1
  H+  H362  1  0.66748085  0.57689483  0.27489926  1
  H+  H363  1  0.63695686  0.76710045  0.68808101  1
  H+  H364  1  0.16993326  0.82869071  0.89440223  1
  H+  H365  1  0.12296865  0.63399663  0.66881829  1
  H+  H366  1  0.38326157  0.80685640  0.59179202  1
  H+  H367  1  0.90737549  0.80910987  0.92825841  1
  H+  H368  1  0.12031858  -0.03142602  0.14817119  1
  H+  H369  1  0.64261988  0.82083051  0.27162937  1
  H+  H370  1  0.96778069  0.90304489  0.87256621  1
  H+  H371  1  0.67738044  0.60018530  0.60931482  1
  H+  H372  1  0.59554958  0.16463767  0.44178796  1
  H+  H373  1  0.42761762  0.58863887  0.26340401  1
  H+  H374  1  0.30315691  0.65972694  0.76862245  1
  H+  H375  1  0.83418372  0.64711863  0.09708877  1
  H+  H376  1  0.42702884  0.08683410  0.23610106  1
  H+  H377  1  0.92962514  0.53326448  0.98407715  1
  H+  H378  1  0.83586153  0.68236837  0.40142560  1
  H+  H379  1  0.79517148  1.05543010  0.03852860  1
  H+  H380  1  0.31735886  0.14711410  0.40507257  1
  H+  H381  1  0.53833569  0.63886745  -0.00501544  1
  H+  H382  1  0.13947764  0.96451943  0.47663692  1
  H+  H383  1  0.68907552  0.81373816  0.90660715  1
  O2-  O384  1  0.08873693  0.17067039  0.14658603  1
  O2-  O385  1  0.06058172  0.19650023  0.48635741  1
  O2-  O386  1  0.07695015  0.17936394  0.80361127  1
  O2-  O387  1  0.10003588  0.44975684  0.15545970  1
  O2-  O388  1  0.08091802  0.43423931  0.49405213  1
  O2-  O389  1  0.05791866  0.42493861  0.81197808  1
  O2-  O390  1  0.09122411  0.64939822  0.14906143  1
  O2-  O391  1  0.08618520  0.64068930  0.47487610  1
  O2-  O392  1  0.10171710  0.65232897  0.81532881  1
  O2-  O393  1  0.09251382  0.90776857  0.13308751  1
  O2-  O394  1  0.08565226  0.91018377  0.47412189  1
  O2-  O395  1  0.07817237  0.89868666  0.79648339  1
  O2-  O396  1  0.33493908  0.16580734  0.14621497  1
  O2-  O397  1  0.30159864  0.16846209  0.49444124  1
  O2-  O398  1  0.32688201  0.19808480  0.80973226  1
  O2-  O399  1  0.32600971  0.41715137  0.15225614  1
  O2-  O400  1  0.32126531  0.42161434  0.47869883  1
  O2-  O401  1  0.28636772  0.40689860  0.86697141  1
  O2-  O402  1  0.35979887  0.66935497  0.14108887  1
  O2-  O403  1  0.33043412  0.67410846  0.45912356  1
  O2-  O404  1  0.29631985  0.66235390  0.81366319  1
  O2-  O405  1  0.32496817  0.90606516  0.16098957  1
  O2-  O406  1  0.32689200  0.92590586  0.48608439  1
  O2-  O407  1  0.33929991  0.90555821  0.81292386  1
  O2-  O408  1  0.55132309  0.09023212  0.12334471  1
  O2-  O409  1  0.59695661  0.16164460  0.48745910  1
  O2-  O410  1  0.58384551  0.15079418  0.80912223  1
  O2-  O411  1  0.56264478  0.41894251  0.14962988  1
  O2-  O412  1  0.60601001  0.41666390  0.50308973  1
  O2-  O413  1  0.57440139  0.41597773  0.80248803  1
  O2-  O414  1  0.58855273  0.65876322  0.13242290  1
  O2-  O415  1  0.55994396  0.67235333  0.48018978  1
  O2-  O416  1  0.55585334  0.66240727  0.81355956  1
  O2-  O417  1  0.59482326  0.92645032  0.14863345  1
  O2-  O418  1  0.56987067  0.91322664  0.48396985  1
  O2-  O419  1  0.57283770  0.90781211  0.82437240  1
  O2-  O420  1  0.84161086  0.16984151  0.15238051  1
  O2-  O421  1  0.84917274  0.14378342  0.48990114  1
  O2-  O422  1  0.82720966  0.16337233  0.81584149  1
  O2-  O423  1  0.88101427  0.42424048  0.13885414  1
  O2-  O424  1  0.83922687  0.40529153  0.48656417  1
  O2-  O425  1  0.82578445  0.40812493  0.81746284  1
  O2-  O426  1  0.83220886  0.64497320  0.14287701  1
  O2-  O427  1  0.85891630  0.68155674  0.48623367  1
  O2-  O428  1  0.87344586  0.69377067  0.81437355  1
  O2-  O429  1  0.84368498  0.93649556  0.14128143  1
  O2-  O430  1  0.83251338  0.95021010  0.49225726  1
  O2-  O431  1  0.83548278  0.92425020  0.81543555  1
  O2-  O432  1  0.16642579  0.07202317  0.17526671  1
  O2-  O433  1  0.13276199  0.10319818  0.51486441  1
  O2-  O434  1  0.18012147  0.12164909  0.84790086  1
  O2-  O435  1  0.16754002  0.34456770  0.19923636  1
  O2-  O436  1  0.15630866  0.34943580  0.53673177  1
  O2-  O437  1  0.15781256  0.35149260  0.78340187  1
  O2-  O438  1  0.14912468  0.53818408  0.17907024  1
  O2-  O439  1  0.12790642  0.52301782  0.51964486  1
  O2-  O440  1  0.13518004  0.60126057  0.84509799  1
  O2-  O441  1  0.16276821  0.81707130  0.18577133  1
  O2-  O442  1  0.14586594  0.81269105  0.50792411  1
  O2-  O443  1  0.17247093  0.82636639  0.84844262  1
  O2-  O444  1  0.41555270  0.07955417  0.19190580  1
  O2-  O445  1  0.43582908  0.09263940  0.52333296  1
  O2-  O446  1  0.42880398  0.07405706  0.84838357  1
  O2-  O447  1  0.39849236  0.32641973  0.19175080  1
  O2-  O448  1  0.42504394  0.33978428  0.47748594  1
  O2-  O449  1  0.41285544  0.35430100  0.85171249  1
  O2-  O450  1  0.42748186  0.58493560  0.18756230  1
  O2-  O451  1  0.40327229  0.58905636  0.51932944  1
  O2-  O452  1  0.38367543  0.58143650  0.86127892  1
  O2-  O453  1  0.42665924  0.83438215  0.18600360  1
  O2-  O454  1  0.40296701  0.83017212  0.51706662  1
  O2-  O455  1  0.40678238  0.81807440  0.85843472  1
  O2-  O456  1  0.67574141  0.08931023  0.19504751  1
  O2-  O457  1  0.67388156  0.07228781  0.52425228  1
  O2-  O458  1  0.66460622  0.06992548  0.85409342  1
  O2-  O459  1  0.56845236  0.32193025  0.24271662  1
  O2-  O460  1  0.67700024  0.32299049  0.53061049  1
  O2-  O461  1  0.65236697  0.32486124  0.84046294  1
  O2-  O462  1  0.66763329  0.58024174  0.18819633  1
  O2-  O463  1  0.68360011  0.58396677  0.52357880  1
  O2-  O464  1  0.70904581  0.55787252  0.85898705  1
  O2-  O465  1  0.59764005  0.79539240  0.19819059  1
  O2-  O466  1  0.67077777  0.84854105  0.52406403  1
  O2-  O467  1  0.66204371  0.83332606  0.83004921  1
  O2-  O468  1  0.93245062  0.09508492  0.19485812  1
  O2-  O469  1  0.89654400  0.10395887  0.51772719  1
  O2-  O470  1  0.91989871  0.08773340  0.85611371  1
  O2-  O471  1  0.93948682  0.33615368  0.19727939  1
  O2-  O472  1  0.92028264  0.31073540  0.53292299  1
  O2-  O473  1  0.90491843  0.31954094  0.86762326  1
  O2-  O474  1  0.92763966  0.57888187  0.18775540  1
  O2-  O475  1  0.92472600  0.57362619  0.52054685  1
  O2-  O476  1  0.94248643  0.59290304  0.84885723  1
  O2-  O477  1  0.95443391  0.79380106  0.19468973  1
  O2-  O478  1  0.91697744  0.85474008  0.52156441  1
  O2-  O479  1  0.92208588  0.85005194  0.85495321  1
  O2-  O480  1  0.18899271  0.03119517  0.28626385  1
  O2-  O481  1  0.13361889  0.07849134  0.64565663  1
  O2-  O482  1  0.15423075  0.07710670  0.96709484  1
  O2-  O483  1  0.16305971  0.34694138  0.32154670  1
  O2-  O484  1  0.11243636  0.31724670  0.66057474  1
  O2-  O485  1  0.19009662  0.34485654  0.98125213  1
  O2-  O486  1  0.17168725  0.57602598  0.30613909  1
  O2-  O487  1  0.14223258  0.56904047  0.64321777  1
  O2-  O488  1  0.17821508  0.59602954  0.98295314  1
  O2-  O489  1  0.15812065  0.81962044  0.31221440  1
  O2-  O490  1  0.18177714  0.82871675  0.66522660  1
  O2-  O491  1  0.16959994  0.83279252  0.96861849  1
  O2-  O492  1  0.42498419  0.08473348  0.32224632  1
  O2-  O493  1  0.41814130  0.09570221  0.65192765  1
  O2-  O494  1  0.41263422  0.07751685  0.97054852  1
  O2-  O495  1  0.39079217  0.31967302  0.31728361  1
  O2-  O496  1  0.43439659  0.35160503  0.63468697  1
  O2-  O497  1  0.42308470  0.35054757  0.96871679  1
  O2-  O498  1  0.42411184  0.58892105  0.30941382  1
  O2-  O499  1  0.40230024  0.58622416  0.64038478  1
  O2-  O500  1  0.42837838  0.59472829  0.98017357  1
  O2-  O501  1  0.42177386  0.83429483  0.30944081  1
  O2-  O502  1  0.36843280  0.79740794  0.63627340  1
  O2-  O503  1  0.42757957  0.82475304  0.97715491  1
  O2-  O504  1  0.67387443  0.08790979  0.31971571  1
  O2-  O505  1  0.66434357  0.08130295  0.65273941  1
  O2-  O506  1  0.66288431  0.08145721  0.97386046  1
  O2-  O507  1  0.66754678  0.32593428  0.33230152  1
  O2-  O508  1  0.67369761  0.33262799  0.65069251  1
  O2-  O509  1  0.64736695  0.32604878  0.96027200  1
  O2-  O510  1  0.66844906  0.58209859  0.31963239  1
  O2-  O511  1  0.67698273  0.59252959  0.65364892  1
  O2-  O512  1  0.67660596  0.57347578  0.97489524  1
  O2-  O513  1  0.65488341  0.82778153  0.31619071  1
  O2-  O514  1  0.66261888  0.82774743  0.69788789  1
  O2-  O515  1  0.70591177  0.80211238  0.94692843  1
  O2-  O516  1  0.92829608  0.09675367  0.31588888  1
  O2-  O517  1  0.88536429  0.08403117  0.64413884  1
  O2-  O518  1  0.94653628  0.11012252  0.97803843  1
  O2-  O519  1  0.92732966  0.33020270  0.32038261  1
  O2-  O520  1  0.86656170  0.27000394  0.65301600  1
  O2-  O521  1  0.95751114  0.32006273  0.98169893  1
  O2-  O522  1  0.93261059  0.57247718  0.31329114  1
  O2-  O523  1  0.91111100  0.56548167  0.64118751  1
  O2-  O524  1  0.94184883  0.59170919  0.97014886  1
  O2-  O525  1  0.90936552  0.83405304  0.30653056  1
  O2-  O526  1  0.92119755  0.84059327  0.64334987  1
  O2-  O527  1  0.91272199  0.79738219  0.97241004  1
  O2-  O528  1  0.12643834  0.19130681  0.03204775  1
  O2-  O529  1  0.06198135  0.20329193  0.37014010  1
  O2-  O530  1  0.04401154  0.14806566  0.68415662  1
  O2-  O531  1  0.11300779  0.43742047  0.03498089  1
  O2-  O532  1  0.08386763  0.43051570  0.37207014  1
  O2-  O533  1  0.04222004  0.42250828  0.68860442  1
  O2-  O534  1  0.09593490  0.67789879  0.02599622  1
  O2-  O535  1  0.08922824  0.65877490  0.35136001  1
  O2-  O536  1  0.10912277  0.67517286  0.69412140  1
  O2-  O537  1  0.08401686  0.91002768  0.00727654  1
  O2-  O538  1  0.06739364  0.89347457  0.34896618  1
  O2-  O539  1  0.09249347  0.91187954  0.67892383  1
  O2-  O540  1  0.30233378  0.12419866  0.01998046  1
  O2-  O541  1  0.32574890  0.15194207  0.36087925  1
  O2-  O542  1  0.34350049  0.19142782  0.69278985  1
  O2-  O543  1  0.34747208  0.43193179  0.02590755  1
  O2-  O544  1  0.32730103  0.41829639  0.35504925  1
  O2-  O545  1  0.39337910  0.44866444  0.71153432  1
  O2-  O546  1  0.33693429  0.67218900  0.01820453  1
  O2-  O547  1  0.33941913  0.66877267  0.34180915  1
  O2-  O548  1  0.30537954  0.64506870  0.69100900  1
  O2-  O549  1  0.34051776  0.91573445  -0.00088286  1
  O2-  O550  1  0.30617924  0.87604416  0.36585825  1
  O2-  O551  1  0.36005367  0.93408441  0.69764416  1
  O2-  O552  1  0.58269716  0.16499693  0.01201501  1
  O2-  O553  1  0.58605858  0.16267560  0.36517699  1
  O2-  O554  1  0.58485250  0.17301169  0.68891886  1
  O2-  O555  1  0.58121742  0.41607246  0.02461398  1
  O2-  O556  1  0.59945279  0.42384321  0.37641346  1
  O2-  O557  1  0.59287861  0.42283007  0.67955721  1
  O2-  O558  1  0.59880209  0.66236730  0.00937888  1
  O2-  O559  1  0.56860417  0.67826890  0.36079148  1
  O2-  O560  1  0.54669491  0.60295157  0.70451561  1
  O2-  O561  1  0.53886274  0.95956985  0.04779512  1
  O2-  O562  1  0.58336124  0.92173505  0.35821416  1
  O2-  O563  1  0.57774096  0.92360113  0.70431157  1
  O2-  O564  1  0.81956343  0.11915649  0.03332018  1
  O2-  O565  1  0.83702877  0.16218450  0.36200259  1
  O2-  O566  1  0.86511123  0.20965164  0.69222484  1
  O2-  O567  1  0.92588541  0.44952897  0.01731277  1
  O2-  O568  1  0.83698550  0.40688839  0.35985661  1
  O2-  O569  1  0.83317999  0.39574016  0.69700622  1
  O2-  O570  1  0.83631160  0.64665930  0.02002929  1
  O2-  O571  1  0.82902685  0.68643049  0.35735199  1
  O2-  O572  1  0.85062331  0.67621899  0.68938808  1
  O2-  O573  1  0.79659422  0.95921970  0.02767252  1
  O2-  O574  1  0.81713370  0.91011086  0.33336443  1
  O2-  O575  1  0.83572948  0.91708726  0.69358586  1
