# generated using pymatgen
data_H2O
_symmetry_space_group_name_H-M   'P 1'
_cell_length_a   17.98980001
_cell_length_b   17.99023193
_cell_length_c   22.00653441
_cell_angle_alpha   89.99082600
_cell_angle_beta   90.02131370
_cell_angle_gamma   120.00178804
_symmetry_Int_Tables_number   1
_chemical_formula_structural   H2O
_chemical_formula_sum   'H384 O192'
_cell_volume   6167.90291111
_cell_formula_units_Z   192
loop_
 _symmetry_equiv_pos_site_id
 _symmetry_equiv_pos_as_xyz
  1  'x, y, z'
loop_
 _atom_type_symbol
 _atom_type_oxidation_number
  H+  1.0
  O2-  -2.0
loop_
 _atom_site_type_symbol
 _atom_site_label
 _atom_site_symmetry_multiplicity
 _atom_site_fract_x
 _atom_site_fract_y
 _atom_site_fract_z
 _atom_site_occupancy
  H+  H0  1  0.63393927  0.62823985  0.50189794  1
  H+  H1  1  0.73359268  0.34703695  0.99045982  1
  H+  H2  1  0.31285287  0.91962297  0.43849553  1
  H+  H3  1  0.11547352  0.13244708  0.16433628  1
  H+  H4  1  0.73870677  0.37960936  0.65544655  1
  H+  H5  1  1.00690093  0.87754230  0.34908383  1
  H+  H6  1  0.82834741  0.18034146  0.31009200  1
  H+  H7  1  0.61917720  0.73091793  0.33460835  1
  H+  H8  1  0.90588571  0.29235125  0.35579406  1
  H+  H9  1  0.45638835  0.38136446  0.17363442  1
  H+  H10  1  0.88320658  0.23533540  0.99999610  1
  H+  H11  1  0.78037342  0.13500477  0.14397518  1
  H+  H12  1  0.92319439  0.08866055  0.89116654  1
  H+  H13  1  0.60074687  0.63361461  0.82710902  1
  H+  H14  1  0.88437120  0.53024330  0.33325282  1
  H+  H15  1  0.87324432  0.14261387  0.99589931  1
  H+  H16  1  0.58840547  0.42084341  0.15879109  1
  H+  H17  1  0.37506064  0.11563402  0.33532872  1
  H+  H18  1  0.13130832  1.01966637  0.84060159  1
  H+  H19  1  0.59108628  0.89036883  0.16167048  1
  H+  H20  1  1.02942120  0.91039221  0.99776130  1
  H+  H21  1  0.54896791  0.69833156  0.47810728  1
  H+  H22  1  0.72283050  0.10823737  0.50401728  1
  H+  H23  1  0.11949512  0.39598795  0.15037278  1
  H+  H24  1  0.87553386  0.27713131  0.50438596  1
  H+  H25  1  0.12738110  0.77363452  0.32912492  1
  H+  H26  1  0.53023286  0.14833912  0.14311726  1
  H+  H27  1  0.74247395  0.63776277  0.33289114  1
  H+  H28  1  0.60445801  0.38426739  0.49654668  1
  H+  H29  1  0.89089423  0.76742333  0.51154612  1
  H+  H30  1  0.62008911  0.12902916  0.49981463  1
  H+  H31  1  0.76854061  0.63380824  0.49162641  1
  H+  H32  1  1.01370774  0.86576262  0.49774318  1
  H+  H33  1  1.00207439  0.39613448  0.97688274  1
  H+  H34  1  0.32566207  0.66171694  0.77135949  1
  H+  H35  1  0.80916994  0.10491081  0.66591567  1
  H+  H36  1  0.86230125  0.45632194  0.00668873  1
  H+  H37  1  0.87759126  0.74787049  0.35006985  1
  H+  H38  1  0.31685167  0.16723946  0.76025760  1
  H+  H39  1  0.10343621  0.36983573  0.66651784  1
  H+  H40  1  0.87568837  0.48287417  0.67582392  1
  H+  H41  1  0.42125340  0.84421486  0.39934403  1
  H+  H42  1  0.44352596  0.83977436  0.16524064  1
  H+  H43  1  0.33133996  0.47977176  0.16309293  1
  H+  H44  1  0.02139312  0.14647612  0.34677292  1
  H+  H45  1  0.46752581  0.35792031  0.51017098  1
  H+  H46  1  0.86937778  0.37291638  0.00485186  1
  H+  H47  1  -0.02332071  0.14264436  0.66962214  1
  H+  H48  1  0.12465775  0.85790085  0.83319136  1
  H+  H49  1  0.72780081  0.63714901  0.17808037  1
  H+  H50  1  0.12379941  0.60975597  0.51560171  1
  H+  H51  1  0.24870738  0.63940025  0.48634687  1
  H+  H52  1  0.69753949  0.59237234  0.95672690  1
  H+  H53  1  0.35221018  -0.02628842  0.34460236  1
  H+  H54  1  0.84780153  0.15672215  0.75966469  1
  H+  H55  1  0.50946057  0.36823080  0.33938056  1
  H+  H56  1  0.57576051  0.15791615  0.40540730  1
  H+  H57  1  0.58997974  0.18045920  0.08502590  1
  H+  H58  1  0.42508638  0.66578990  0.51594402  1
  H+  H59  1  0.88890365  0.59591583  0.82392002  1
  H+  H60  1  0.35090223  -0.03069522  0.15743107  1
  H+  H61  1  0.35480261  0.88595807  0.34935775  1
  H+  H62  1  0.72311045  0.10374474  0.36243555  1
  H+  H63  1  0.63941795  0.78461606  0.84605272  1
  H+  H64  1  0.87904106  0.88865192  0.34547071  1
  H+  H65  1  0.58743547  0.64923248  0.17328512  1
  H+  H66  1  0.10334708  0.34415542  0.29468708  1
  H+  H67  1  0.25840555  0.37159832  0.49568452  1
  H+  H68  1  0.39354505  0.79421703  0.48434561  1
  H+  H69  1  0.25098786  0.38105344  0.16025559  1
  H+  H70  1  0.73222205  0.11391163  0.83217528  1
  H+  H71  1  0.10364881  0.71432247  0.82024019  1
  H+  H72  1  0.84210580  0.74037482  0.99192142  1
  H+  H73  1  0.11985706  -0.02288013  0.15748646  1
  H+  H74  1  0.10028257  0.38188980  0.50783732  1
  H+  H75  1  0.66038842  0.84874752  0.60435652  1
  H+  H76  1  0.56886748  0.40128792  0.39743073  1
  H+  H77  1  0.36674996  0.38968211  0.82420502  1
  H+  H78  1  0.22312321  0.35939641  0.66040994  1
  H+  H79  1  0.13035800  0.25943170  0.16527409  1
  H+  H80  1  1.10468724  0.62575875  0.82277439  1
  H+  H81  1  0.63306121  0.55755424  0.17484315  1
  H+  H82  1  0.88292477  0.61635493  0.51768943  1
  H+  H83  1  0.11832276  0.22743955  0.82928473  1
  H+  H84  1  0.11662025  0.85699591  -0.01631142  1
  H+  H85  1  0.84073313  0.96636487  0.68635751  1
  H+  H86  1  0.87247816  0.72666043  0.17060422  1
  H+  H87  1  0.64311713  0.86234246  0.32852593  1
  H+  H88  1  0.63834523  0.38180171  0.01115692  1
  H+  H89  1  0.11805470  0.25109799  0.49946360  1
  H+  H90  1  0.89329305  0.87502044  0.66463809  1
  H+  H91  1  0.78845816  0.88988159  0.34034538  1
  H+  H92  1  0.13313802  0.11012867  0.84046733  1
  H+  H93  1  0.58502708  0.67484274  0.73766138  1
  H+  H94  1  0.67069988  0.25833682  0.18614436  1
  H+  H95  1  0.88012010  0.79009193  0.84476734  1
  H+  H96  1  0.37768777  0.61145975  0.83983655  1
  H+  H97  1  0.85303590  0.25985837  0.64395474  1
  H+  H98  1  0.64659858  0.54168072  0.64826226  1
  H+  H99  1  0.39340742  0.00918486  0.83078015  1
  H+  H100  1  1.01489208  0.89025013  0.82656810  1
  H+  H101  1  0.35125231  0.71437613  1.01174174  1
  H+  H102  1  0.75439664  0.89044217  0.01497266  1
  H+  H103  1  0.87186341  0.22607541  0.81466301  1
  H+  H104  1  0.37081696  0.35494599  0.32813639  1
  H+  H105  1  0.78133446  0.88072418  0.17556440  1
  H+  H106  1  0.90222139  0.27258742  0.16467649  1
  H+  H107  1  0.01814722  0.63955889  0.50323091  1
  H+  H108  1  0.37202464  0.26200035  0.82366135  1
  H+  H109  1  0.35913790  -0.10232435  0.48821920  1
  H+  H110  1  1.02116529  0.63273295  0.99928892  1
  H+  H111  1  0.34354235  0.86572018  0.67588423  1
  H+  H112  1  0.97487012  0.61787602  0.33158514  1
  H+  H113  1  0.86824292  0.15065786  0.49386559  1
  H+  H114  1  0.21717257  0.09742714  0.32711716  1
  H+  H115  1  0.38216079  0.77038849  0.84281952  1
  H+  H116  1  0.13730592  0.51494483  0.66373005  1
  H+  H117  1  0.31397222  0.40115257  0.39577146  1
  H+  H118  1  0.89138690  0.78518391  0.66270106  1
  H+  H119  1  0.48397241  0.60862241  0.32407296  1
  H+  H120  1  0.64485580  0.65288820  -0.03724646  1
  H+  H121  1  0.62486394  0.78521160  0.66091467  1
  H+  H122  1  0.90338555  0.36142010  0.16995371  1
  H+  H123  1  0.65903952  0.80817993  0.50498620  1
  H+  H124  1  0.63998977  0.02726435  0.83874319  1
  H+  H125  1  0.36663965  0.35853152  0.66041551  1
  H+  H126  1  0.60261037  0.61051366  0.96466060  1
  H+  H127  1  0.73464990  0.63097825  0.65586856  1
  H+  H128  1  0.12910292  0.51242287  0.15927377  1
  H+  H129  1  0.14757677  0.41398700  0.97196618  1
  H+  H130  1  1.02424942  0.62799939  0.16829639  1
  H+  H131  1  0.10204458  0.87995819  0.34584272  1
  H+  H132  1  1.01268283  0.36771665  0.66762680  1
  H+  H133  1  0.89654032  0.35795119  0.83394050  1
  H+  H134  1  0.42222558  0.62559105  0.17847608  1
  H+  H135  1  0.08273577  0.18958697  0.40506638  1
  H+  H136  1  0.65576390  0.28815376  0.65622385  1
  H+  H137  1  0.87340221  0.47124681  0.82701586  1
  H+  H138  1  0.62745614  0.64613821  0.34068201  1
  H+  H139  1  0.62182743  0.22667107  0.81965785  1
  H+  H140  1  0.12866384  0.11434309  0.66516467  1
  H+  H141  1  0.60017571  0.47134321  0.49562595  1
  H+  H142  1  0.86393367  0.63347061  0.17884783  1
  H+  H143  1  0.87083002  0.65267521  0.34519188  1
  H+  H144  1  0.61815049  0.64923707  0.67694402  1
  H+  H145  1  0.12227389  0.16292503  -0.01261108  1
  H+  H146  1  0.52877415  0.87657199  0.35157435  1
  H+  H147  1  0.85729874  0.39515457  0.49766534  1
  H+  H148  1  0.91700200  0.57937811  0.23910675  1
  H+  H149  1  0.63219738  0.35516037  0.33075647  1
  H+  H150  1  0.87506236  0.57775971  1.00995648  1
  H+  H151  1  0.51466942  0.53318962  0.53917972  1
  H+  H152  1  0.14159403  0.13665318  0.51467267  1
  H+  H153  1  0.45524951  0.10105209  0.21867208  1
  H+  H154  1  0.46589886  0.85019942  0.99635882  1
  H+  H155  1  0.12861639  0.00886478  0.32893484  1
  H+  H156  1  0.23784385  0.62791216  0.33125142  1
  H+  H157  1  0.73631169  0.87231531  0.84287105  1
  H+  H158  1  0.11682756  0.38196350  0.81958343  1
  H+  H159  1  0.11052188  0.98034621  0.67516236  1
  H+  H160  1  0.21678246  0.86163195  0.32605650  1
  H+  H161  1  0.46076332  0.86440994  0.66729140  1
  H+  H162  1  0.20934722  0.42518303  0.53561684  1
  H+  H163  1  0.89410115  0.89574151  0.99016655  1
  H+  H164  1  0.07428942  0.67323912  0.40679399  1
  H+  H165  1  0.12915179  0.85546910  0.17118653  1
  H+  H166  1  0.89885227  0.85990675  0.18083603  1
  H+  H167  1  0.02833505  0.38957427  0.15323653  1
  H+  H168  1  0.11249368  0.63856501  0.00181016  1
  H+  H169  1  0.22017045  0.39290724  -0.00550484  1
  H+  H170  1  0.35845441  0.44491294  0.49091432  1
  H+  H171  1  0.12451536  -0.01768886  1.00221723  1
  H+  H172  1  0.72370294  0.36855112  0.50167705  1
  H+  H173  1  0.02983600  0.16208501  0.49973671  1
  H+  H174  1  0.78621408  0.61692962  0.02960177  1
  H+  H175  1  0.63829796  0.26263874  0.98549924  1
  H+  H176  1  0.11123679  0.86871433  0.49481296  1
  H+  H177  1  0.66753862  0.49595265  -0.03181137  1
  H+  H178  1  0.65179827  0.37136157  0.84305512  1
  H+  H179  1  0.89136491  0.04675428  0.50493276  1
  H+  H180  1  0.89069680  0.01852851  0.33197537  1
  H+  H181  1  0.88933415  0.52060154  0.17821982  1
  H+  H182  1  0.64536214  0.12400473  0.14183639  1
  H+  H183  1  0.21460250  0.85650146  0.83647676  1
  H+  H184  1  0.37116343  0.61178024  0.99427815  1
  H+  H185  1  0.88332139  0.52826085  0.51862766  1
  H+  H186  1  0.22563228  0.60372761  0.16494826  1
  H+  H187  1  0.40914475  0.58393008  0.89935699  1
  H+  H188  1  0.78405641  0.38353292  0.82616677  1
  H+  H189  1  0.79515265  0.37404120  0.17194789  1
  H+  H190  1  0.66681943  0.84198919  0.93145430  1
  H+  H191  1  0.62257329  0.78640482  0.99416908  1
  H+  H192  1  0.73336076  0.12111693  -0.01073401  1
  H+  H193  1  0.42928016  0.56640492  0.61390075  1
  H+  H194  1  0.12512095  0.86082058  0.65792182  1
  H+  H195  1  0.36103354  0.25832190  0.65611140  1
  H+  H196  1  0.89379732  0.11694028  0.83136535  1
  H+  H197  1  0.16371462  0.06915299  0.23558747  1
  H+  H198  1  0.63904747  0.88750587  0.51245830  1
  H+  H199  1  0.36257351  0.13680379  0.49618955  1
  H+  H200  1  0.36412483  0.23661814  0.17119236  1
  H+  H201  1  0.13100225  0.51491035  0.82778935  1
  H+  H202  1  0.61796536  0.96417113  0.35502072  1
  H+  H203  1  0.63391426  0.10335086  0.35511110  1
  H+  H204  1  1.00747584  0.38072105  0.50445155  1
  H+  H205  1  0.35891215  0.22194499  0.49558536  1
  H+  H206  1  0.63853869  0.27039955  0.33723780  1
  H+  H207  1  0.50220542  0.36496386  0.80305491  1
  H+  H208  1  0.61654337  0.17667828  0.72782636  1
  H+  H209  1  0.51868907  0.13148946  0.34473100  1
  H+  H210  1  0.39065550  0.64379386  0.53989729  1
  H+  H211  1  0.35845950  0.06323539  0.96450227  1
  H+  H212  1  0.20332121  0.84348393  0.66088416  1
  H+  H213  1  0.11650801  0.75786879  -0.01796304  1
  H+  H214  1  0.52189703  0.12896639  0.99332113  1
  H+  H215  1  0.02732466  0.13912660  0.82569988  1
  H+  H216  1  0.62444918  0.40582598  0.65054426  1
  H+  H217  1  0.32887530  0.94707989  0.67332281  1
  H+  H218  1  0.11368492  0.64958073  0.35106549  1
  H+  H219  1  0.61428098  0.89332722  0.83513507  1
  H+  H220  1  0.67277995  0.85039139  0.12800761  1
  H+  H221  1  0.61077160  0.89548508  0.00332284  1
  H+  H222  1  0.92543064  0.59276502  0.61096372  1
  H+  H223  1  0.58403815  0.13825548  0.66117079  1
  H+  H224  1  -0.01035120  0.38377833  0.35493220  1
  H+  H225  1  0.61347167  0.13215743  -0.00455814  1
  H+  H226  1  0.34488321  0.13339013  0.66768965  1
  H+  H227  1  0.33563767  0.38096293  1.02808383  1
  H+  H228  1  0.52353954  0.89081800  0.83654927  1
  H+  H229  1  0.25859325  0.88241813  0.15912654  1
  H+  H230  1  0.36518543  0.47956248  0.82698373  1
  H+  H231  1  0.12265935  0.52008490  0.51682156  1
  H+  H232  1  0.63292388  0.02976430  0.14708165  1
  H+  H233  1  0.87568145  0.35589207  0.65918641  1
  H+  H234  1  0.11202286  0.22730833  0.67381040  1
  H+  H235  1  0.46639761  0.57767250  0.51514351  1
  H+  H236  1  0.35258831  0.22267238  0.34136673  1
  H+  H237  1  0.48126126  0.61073026  0.67350168  1
  H+  H238  1  0.02080079  0.89244516  0.67421634  1
  H+  H239  1  0.16990159  0.33645995  0.59712353  1
  H+  H240  1  0.39313679  0.52210927  0.32363954  1
  H+  H241  1  0.87250026  0.13095049  0.33865450  1
  H+  H242  1  0.26526815  0.63119503  0.83065723  1
  H+  H243  1  0.89019155  1.02166196  0.18038831  1
  H+  H244  1  0.91829658  0.02681734  0.97293251  1
  H+  H245  1  0.83981885  0.41822588  0.73227596  1
  H+  H246  1  0.38176209  0.52894644  0.99727305  1
  H+  H247  1  0.15194264  0.54724687  0.35626062  1
  H+  H248  1  0.71239753  0.15472907  0.65892195  1
  H+  H249  1  0.11813474  0.27162517  0.32819431  1
  H+  H250  1  0.26173376  0.38581086  0.33386337  1
  H+  H251  1  0.37120323  0.34568259  0.50406293  1
  H+  H252  1  -0.01493609  0.35696709  0.83182636  1
  H+  H253  1  0.49439413  0.65082736  0.01723509  1
  H+  H254  1  0.36776681  0.95904777  0.00228877  1
  H+  H255  1  0.43272613  0.07825333  0.67651229  1
  H+  H256  1  0.85069674  0.96927727  0.82765644  1
  H+  H257  1  0.13409953  0.41223709  0.36684790  1
  H+  H258  1  0.37908482  0.63485772  0.32487375  1
  H+  H259  1  0.61754606  0.34959595  0.17836224  1
  H+  H260  1  0.11432549  0.24864766  0.98430368  1
  H+  H261  1  0.61603127  0.50702237  0.80845956  1
  H+  H262  1  0.36704257  0.47399852  0.67747943  1
  H+  H263  1  0.26900552  0.62667461  0.67825862  1
  H+  H264  1  0.36109455  0.63235582  0.67998390  1
  H+  H265  1  0.65275927  0.37538078  0.15547001  1
  H+  H266  1  0.23142501  0.12114128  -0.00715693  1
  H+  H267  1  0.37052345  0.23571083  1.01091467  1
  H+  H268  1  0.88719578  0.74758383  -0.00605601  1
  H+  H269  1  0.50214762  0.13710407  0.51831639  1
  H+  H270  1  0.34952522  0.87333855  0.82929399  1
  H+  H271  1  0.48653164  0.09689553  0.82812948  1
  H+  H272  1  0.61574846  0.77291317  0.17142629  1
  H+  H273  1  0.22150446  0.12093641  0.51328984  1
  H+  H274  1  0.83040664  0.65297817  0.85593073  1
  H+  H275  1  0.78091424  0.92343949  0.49491963  1
  H+  H276  1  0.51729110  0.64226733  0.83010369  1
  H+  H277  1  0.38011131  0.15487933  0.02088511  1
  H+  H278  1  0.47266822  0.37973292  0.98131641  1
  H+  H279  1  0.26262990  0.13724278  0.82271457  1
  H+  H280  1  0.74843398  0.63076423  0.81846369  1
  H+  H281  1  -0.01226491  0.86175350  0.17523304  1
  H+  H282  1  0.37556442  0.84662770  -0.00206405  1
  H+  H283  1  0.36320334  0.36833320  0.17700545  1
  H+  H284  1  0.22870570  0.10985253  0.17934299  1
  H+  H285  1  0.10922855  0.72633500  0.50091392  1
  H+  H286  1  0.59553828  0.89466307  0.67402906  1
  H+  H287  1  0.02739473  0.13287620  0.16413816  1
  H+  H288  1  0.72426038  0.07925047  0.25033497  1
  H+  H289  1  0.37269055  0.06325471  0.27767892  1
  H+  H290  1  0.42512397  0.06740320  0.91646166  1
  H+  H291  1  0.31625916  0.89758502  0.76811740  1
  H+  H292  1  0.93450003  0.33989505  0.92694562  1
  H+  H293  1  0.56973352  0.34635105  0.76911607  1
  H+  H294  1  0.08899220  0.42942914  0.42325966  1
  H+  H295  1  0.32665807  0.16436862  0.40249507  1
  H+  H296  1  0.20826525  0.58459708  1.00872794  1
  H+  H297  1  0.59821717  0.68735673  0.42161848  1
  H+  H298  1  0.17071306  0.34617998  0.89713908  1
  H+  H299  1  0.83108170  0.90993234  0.11384110  1
  H+  H300  1  0.68289339  0.61227580  0.27341266  1
  H+  H301  1  0.40753876  0.82524900  0.90376252  1
  H+  H302  1  0.86581217  0.39825703  0.35511868  1
  H+  H303  1  0.25016904  0.67135782  0.42136547  1
  H+  H304  1  0.32672004  0.90537515  0.06263440  1
  H+  H305  1  0.39343130  0.78049389  0.34221692  1
  H+  H306  1  0.34058526  0.17769500  0.11271539  1
  H+  H307  1  0.83200822  0.43176707  0.43963634  1
  H+  H308  1  0.54607211  0.67317500  0.11763094  1
  H+  H309  1  0.60790474  0.98190567  0.00537031  1
  H+  H310  1  0.65982892  0.59754096  0.56402713  1
  H+  H311  1  0.11218756  0.71789276  0.16537386  1
  H+  H312  1  0.90551216  0.57072016  0.94177040  1
  H+  H313  1  0.08342897  0.17072739  0.73566830  1
  H+  H314  1  0.39999544  0.32810042  0.26821859  1
  H+  H315  1  0.41223839  0.08425163  0.60716504  1
  H+  H316  1  0.98742311  0.12570751  0.97800247  1
  H+  H317  1  0.91857172  0.10796341  0.56567142  1
  H+  H318  1  0.14277694  0.54713883  0.89437823  1
  H+  H319  1  0.15688481  0.82798179  0.23288822  1
  H+  H320  1  0.83858893  0.40849267  0.10582871  1
  H+  H321  1  0.25537286  0.13560070  0.66781578  1
  H+  H322  1  0.87372673  0.64908458  0.67973819  1
  H+  H323  1  0.42469741  0.32445413  0.88027358  1
  H+  H324  1  0.62425792  0.22183846  0.49421007  1
  H+  H325  1  0.17269422  0.08743334  0.93260839  1
  H+  H326  1  0.77312623  0.39157485  0.34840256  1
  H+  H327  1  0.85106626  0.16764631  0.09356598  1
  H+  H328  1  0.88937591  0.11023498  0.17333962  1
  H+  H329  1  0.83663247  0.91413939  0.74607562  1
  H+  H330  1  0.82316130  0.98298837  0.03714956  1
  H+  H331  1  0.92953841  0.88853168  0.92481179  1
  H+  H332  1  0.59814987  0.92896546  0.44858917  1
  H+  H333  1  0.69787871  0.31192844  0.24836593  1
  H+  H334  1  0.16711412  0.58090982  0.60930749  1
  H+  H335  1  0.32829317  0.64882383  0.06945139  1
  H+  H336  1  0.07649120  0.91754156  0.76760475  1
  H+  H337  1  0.39734366  0.12470053  0.17575075  1
  H+  H338  1  0.91906892  0.08095524  0.27244531  1
  H+  H339  1  0.92525265  0.83671557  0.28515530  1
  H+  H340  1  0.08751328  0.91883642  0.09677615  1
  H+  H341  1  0.83546307  0.67517858  0.73525136  1
  H+  H342  1  0.49186315  0.88155014  0.48712693  1
  H+  H343  1  0.02348480  0.63567900  0.71406581  1
  H+  H344  1  0.48075567  0.19931075  0.55359691  1
  H+  H345  1  0.83609333  0.17467155  0.43327283  1
  H+  H346  1  0.81666665  0.61633192  0.09621257  1
  H+  H347  1  0.14556768  0.82523384  0.91808500  1
  H+  H348  1  0.56612313  0.44599889  0.09770225  1
  H+  H349  1  0.58397369  0.65991825  0.02984724  1
  H+  H350  1  0.65442857  0.54555884  0.87295795  1
  H+  H351  1  0.16062403  0.09149290  0.60271308  1
  H+  H352  1  0.72520002  0.12145708  0.25193208  1
  H+  H353  1  0.67619231  0.09035321  0.92885099  1
  H+  H354  1  0.08081514  0.40369240  0.75844138  1
  H+  H355  1  0.35673903  0.83655340  0.16196627  1
  H+  H356  1  0.38333753  0.35914645  0.95504354  1
  H+  H357  1  0.56472391  0.91454494  0.09893512  1
  H+  H358  1  0.07519527  0.89976334  0.42992750  1
  H+  H359  1  0.68426814  0.46675216  0.05010236  1
  H+  H360  1  0.90203648  0.33258309  0.56618405  1
  H+  H361  1  0.66829881  0.33707491  0.56156501  1
  H+  H362  1  0.67620214  0.33210723  0.89942558  1
  H+  H363  1  0.39695325  0.32571686  0.59398104  1
  H+  H364  1  0.33227819  0.41103164  0.73491857  1
  H+  H365  1  0.37743365  0.77098788  0.66710014  1
  H+  H366  1  0.92528002  0.83411580  0.56774462  1
  H+  H367  1  0.98000324  0.60674218  0.83716694  1
  H+  H368  1  0.13229440  0.61340141  0.16487388  1
  H+  H369  1  0.31690123  0.42843732  0.07939976  1
  H+  H370  1  0.62771495  0.14076676  0.81986048  1
  H+  H371  1  0.34313977  0.65875280  0.38391538  1
  H+  H372  1  0.22200842  0.86109374  0.51026739  1
  H+  H373  1  0.15683787  0.82924393  0.56956088  1
  H+  H374  1  0.84191951  0.94451956  0.43611664  1
  H+  H375  1  0.57227152  0.42582996  0.69853158  1
  H+  H376  1  0.57006538  0.92173751  0.73509255  1
  H+  H377  1  0.63325877  0.01522446  0.51353101  1
  H+  H378  1  0.83574454  0.66900557  0.43629221  1
  H+  H379  1  0.15832109  0.32184953  0.22380836  1
  H+  H380  1  0.23068316  0.36533596  0.83848481  1
  H+  H381  1  0.87082178  0.87651185  0.83699704  1
  H+  H382  1  0.67661044  0.84283201  0.26670912  1
  H+  H383  1  0.72082084  0.11804184  0.59566059  1
  O2-  O384  1  0.08696706  0.16358361  0.14827898  1
  O2-  O385  1  0.09049367  0.19173209  0.48428658  1
  O2-  O386  1  0.08953751  0.16792538  0.81240893  1
  O2-  O387  1  0.08970248  0.42706463  0.13790060  1
  O2-  O388  1  0.07021848  0.41307719  0.49304777  1
  O2-  O389  1  0.08370883  0.40908523  0.80396678  1
  O2-  O390  1  0.08434302  0.65651336  0.15270863  1
  O2-  O391  1  0.07677287  0.66534232  0.48537887  1
  O2-  O392  1  0.07187940  0.65333900  0.80709473  1
  O2-  O393  1  0.08804323  0.91632735  0.14180824  1
  O2-  O394  1  0.07629035  0.89591640  0.47847580  1
  O2-  O395  1  0.07642169  0.91506874  0.81342694  1
  O2-  O396  1  0.34339364  0.17611335  0.15762288  1
  O2-  O397  1  0.32872482  0.16173598  0.47985157  1
  O2-  O398  1  0.32146828  0.17289043  0.80514414  1
  O2-  O399  1  0.31462851  0.42055630  0.14877083  1
  O2-  O400  1  0.31720275  0.38811716  0.47440367  1
  O2-  O401  1  0.33504826  0.41913408  0.81080533  1
  O2-  O402  1  0.32179190  0.62297488  0.14307250  1
  O2-  O403  1  0.28978805  0.67590874  0.45399716  1
  O2-  O404  1  0.32653642  0.66261836  0.81723128  1
  O2-  O405  1  0.31704124  0.91173967  0.13974184  1
  O2-  O406  1  0.31837842  0.91956639  0.48337091  1
  O2-  O407  1  0.31877401  0.90312562  0.81383975  1
  O2-  O408  1  0.59062403  0.18376035  0.13030569  1
  O2-  O409  1  0.58909647  0.15992112  0.48336842  1
  O2-  O410  1  0.59700311  0.16916919  0.80066508  1
  O2-  O411  1  0.55951520  0.45030256  0.14176731  1
  O2-  O412  1  0.56833873  0.40975856  0.48430707  1
  O2-  O413  1  0.56252149  0.39314445  0.78452739  1
  O2-  O414  1  0.55090708  0.67446959  0.16286228  1
  O2-  O415  1  0.59964296  0.69425860  0.46869407  1
  O2-  O416  1  0.57854830  0.67241095  0.81654870  1
  O2-  O417  1  0.56098580  0.91837595  0.14402968  1
  O2-  O418  1  0.58756271  0.92699006  0.49264018  1
  O2-  O419  1  0.58375862  0.92426723  0.82167124  1
  O2-  O420  1  0.84449780  0.16209996  0.13844997  1
  O2-  O421  1  0.83294769  0.17628677  0.47781936  1
  O2-  O422  1  0.83730088  0.16395927  0.80267907  1
  O2-  O423  1  0.84861756  0.41841669  0.14999161  1
  O2-  O424  1  0.82912705  0.42890632  0.48554090  1
  O2-  O425  1  0.84347128  0.41185836  0.80959562  1
  O2-  O426  1  0.83388837  0.66352122  0.16158373  1
  O2-  O427  1  0.83019609  0.66164283  0.48247388  1
  O2-  O428  1  0.81293181  0.66565889  0.81714317  1
  O2-  O429  1  0.83991718  0.91059776  0.15863391  1
  O2-  O430  1  0.84121748  0.95768393  0.47979200  1
  O2-  O431  1  0.81876979  0.90748479  0.81816691  1
  O2-  O432  1  0.16699218  0.07498290  0.18917665  1
  O2-  O433  1  0.16544782  0.10229712  0.53267916  1
  O2-  O434  1  0.16403974  0.08030083  0.85594575  1
  O2-  O435  1  0.15838970  0.32278842  0.17887006  1
  O2-  O436  1  0.18080037  0.36317341  0.52950205  1
  O2-  O437  1  0.16980169  0.33433291  0.85245109  1
  O2-  O438  1  0.16257507  0.57727555  0.17627143  1
  O2-  O439  1  0.15625510  0.58119146  0.52996069  1
  O2-  O440  1  0.15459060  0.56982984  0.85115249  1
  O2-  O441  1  0.15890665  0.82529331  0.18738671  1
  O2-  O442  1  0.15930455  0.82787236  0.52290999  1
  O2-  O443  1  0.15250714  0.82532161  0.84967996  1
  O2-  O444  1  0.42473941  0.08785462  0.17997015  1
  O2-  O445  1  0.45404826  0.13904158  0.54182464  1
  O2-  O446  1  0.42986258  0.06783231  0.84817597  1
  O2-  O447  1  0.39819670  0.34133431  0.18945804  1
  O2-  O448  1  0.40634455  0.32345652  0.52534683  1
  O2-  O449  1  0.41336055  0.32671237  0.83685095  1
  O2-  O450  1  0.36016528  0.58279178  0.17676781  1
  O2-  O451  1  0.45779185  0.52916456  0.54010962  1
  O2-  O452  1  0.41030156  0.58232202  0.85402526  1
  O2-  O453  1  0.38205226  0.80081630  0.17248109  1
  O2-  O454  1  0.42699567  0.85513829  0.47380675  1
  O2-  O455  1  0.41066850  0.83063481  0.85832701  1
  O2-  O456  1  0.67579056  0.09108304  0.14005813  1
  O2-  O457  1  0.66811198  0.08206106  0.52703483  1
  O2-  O458  1  0.67389622  0.09016356  0.85039973  1
  O2-  O459  1  0.72000317  0.29736911  0.21152760  1
  O2-  O460  1  0.66262724  0.33263262  0.51634115  1
  O2-  O461  1  0.67719163  0.33594110  0.85339706  1
  O2-  O462  1  0.66690523  0.61688841  0.19005097  1
  O2-  O463  1  0.64247003  0.58233149  0.52027671  1
  O2-  O464  1  0.64264378  0.56101544  0.83177586  1
  O2-  O465  1  0.65964615  0.83747110  0.17107202  1
  O2-  O466  1  0.67987540  0.86360756  0.52537773  1
  O2-  O467  1  0.67121860  0.84407078  0.86181471  1
  O2-  O468  1  0.91937523  0.08246212  0.19379013  1
  O2-  O469  1  0.92421413  0.10964405  0.52106711  1
  O2-  O470  1  0.92622430  0.08886465  0.84589463  1
  O2-  O471  1  0.93609655  0.33213839  0.18020016  1
  O2-  O472  1  0.90479722  0.33755487  0.52058000  1
  O2-  O473  1  0.92443526  0.32516147  0.84817991  1
  O2-  O474  1  0.91726421  0.58115797  0.19341857  1
  O2-  O475  1  0.91357478  0.58794133  0.53590658  1
  O2-  O476  1  0.91734017  0.57578389  0.85183527  1
  O2-  O477  1  0.92896727  0.82884544  0.19324130  1
  O2-  O478  1  0.92913124  0.82843447  0.52291284  1
  O2-  O479  1  0.91261254  0.85158688  0.85372864  1
  O2-  O480  1  0.16098711  0.06443759  0.30681809  1
  O2-  O481  1  0.16127820  0.08679761  0.64924409  1
  O2-  O482  1  0.17172503  0.09028625  0.97828098  1
  O2-  O483  1  0.14868226  0.33232617  0.30632928  1
  O2-  O484  1  0.16412404  0.32670923  0.64386102  1
  O2-  O485  1  0.16598833  0.36918451  0.97120888  1
  O2-  O486  1  0.17921883  0.60943128  0.34690397  1
  O2-  O487  1  0.17221035  0.57660455  0.65401631  1
  O2-  O488  1  0.14413897  0.55491858  1.00891045  1
  O2-  O489  1  0.15644036  0.83233393  0.31041273  1
  O2-  O490  1  0.14773875  0.82533889  0.64008237  1
  O2-  O491  1  0.14173526  0.82216734  0.96530614  1
  O2-  O492  1  0.40207256  0.08207911  0.31670084  1
  O2-  O493  1  0.38579283  0.06521359  0.64859741  1
  O2-  O494  1  0.41508809  0.06873182  0.96320557  1
  O2-  O495  1  0.39968295  0.32302250  0.31327881  1
  O2-  O496  1  0.39131364  0.32206565  0.64099104  1
  O2-  O497  1  0.41781871  0.33312345  0.96652624  1
  O2-  O498  1  0.42524424  0.58051944  0.30643219  1
  O2-  O499  1  0.42055105  0.57431849  0.65709679  1
  O2-  O500  1  0.40899462  0.58759118  0.97962982  1
  O2-  O501  1  0.41984148  0.84228317  0.35322149  1
  O2-  O502  1  0.39958944  0.83056034  0.65276003  1
  O2-  O503  1  0.40567681  0.81499817  0.98223832  1
  O2-  O504  1  0.66052999  0.06726066  0.36131773  1
  O2-  O505  1  0.75291743  0.14539430  0.63440787  1
  O2-  O506  1  0.67304857  0.08995186  0.97433846  1
  O2-  O507  1  0.67022040  0.33010239  0.32132573  1
  O2-  O508  1  0.67815217  0.34719564  0.64009725  1
  O2-  O509  1  0.67353846  0.32526876  0.97401371  1
  O2-  O510  1  0.68172245  0.60841590  0.31811448  1
  O2-  O511  1  0.67497147  0.60544947  0.64016364  1
  O2-  O512  1  0.70091505  0.54428583  0.93897679  1
  O2-  O513  1  0.67704062  0.83572148  0.31062198  1
  O2-  O514  1  0.64926037  0.84562240  0.64886555  1
  O2-  O515  1  0.66346183  0.84430299  0.97859133  1
  O2-  O516  1  0.91747176  0.08112941  0.31789619  1
  O2-  O517  1  0.92629143  0.14091694  0.64769105  1
  O2-  O518  1  0.92380161  0.08371295  0.96896466  1
  O2-  O519  1  0.92748096  0.35277485  0.34556196  1
  O2-  O520  1  0.89897229  0.32057253  0.64122279  1
  O2-  O521  1  0.94191201  0.34820519  0.97197324  1
  O2-  O522  1  0.91504512  0.58895758  0.31492532  1
  O2-  O523  1  0.92620155  0.59100007  0.65748414  1
  O2-  O524  1  0.91315439  0.56382689  0.98539236  1
  O2-  O525  1  0.92317885  0.83884759  0.32971197  1
  O2-  O526  1  0.92210701  0.84412825  0.64595901  1
  O2-  O527  1  0.94622272  0.91867109  0.96553263  1
  O2-  O528  1  0.08324706  0.18630515  -0.00868106  1
  O2-  O529  1  0.08051151  0.18955846  0.35980491  1
  O2-  O530  1  0.07665243  0.16740570  0.69023612  1
  O2-  O531  1  0.11681594  0.48936660  -0.03960751  1
  O2-  O532  1  0.09988803  0.43888530  0.37765025  1
  O2-  O533  1  0.07239221  0.39891666  0.68291181  1
  O2-  O534  1  0.08389924  0.67344370  0.00307612  1
  O2-  O535  1  0.07613247  0.67432078  0.36125797  1
  O2-  O536  1  0.01896788  0.63227473  0.66924129  1
  O2-  O537  1  0.08638581  0.92041294  0.01311155  1
  O2-  O538  1  0.07376399  0.90910156  0.36571946  1
  O2-  O539  1  0.08097667  0.92050760  0.69126134  1
  O2-  O540  1  0.34292630  0.17846213  0.03042622  1
  O2-  O541  1  0.32665766  0.16225312  0.35706656  1
  O2-  O542  1  0.31954164  0.16923283  0.68028496  1
  O2-  O543  1  0.32158683  0.42624977  0.03264217  1
  O2-  O544  1  0.32005702  0.40917702  0.35076789  1
  O2-  O545  1  0.33323968  0.41097864  0.68913342  1
  O2-  O546  1  0.32105532  0.65227339  0.02431099  1
  O2-  O547  1  0.34931861  0.66696050  0.33955499  1
  O2-  O548  1  0.32974715  0.66045972  0.69536020  1
  O2-  O549  1  0.33221405  0.90040640  0.01788575  1
  O2-  O550  1  0.31775863  0.91247109  0.35612872  1
  O2-  O551  1  0.30647171  0.89063415  0.69264656  1
  O2-  O552  1  0.58182590  0.16290984  0.00794162  1
  O2-  O553  1  0.57815788  0.16108938  0.35995032  1
  O2-  O554  1  0.63155672  0.18502564  0.68287295  1
  O2-  O555  1  0.62936879  0.42870955  0.02930715  1
  O2-  O556  1  0.56958663  0.39284640  0.35327260  1
  O2-  O557  1  0.59255245  0.43725218  0.65633145  1
  O2-  O558  1  0.55109127  0.68810197  0.03944907  1
  O2-  O559  1  0.59037092  0.67257425  0.35354651  1
  O2-  O560  1  0.58065086  0.67122342  0.69237896  1
  O2-  O561  1  0.57728495  0.92155417  0.02003832  1
  O2-  O562  1  0.59123402  0.90036687  0.35976008  1
  O2-  O563  1  0.56351537  0.92261417  0.69070882  1
  O2-  O564  1  0.84628200  0.17463568  0.01266800  1
  O2-  O565  1  0.84438620  0.16737049  0.34934776  1
  O2-  O566  1  0.85265357  0.09517078  0.68867016  1
  O2-  O567  1  0.83165342  0.39514905  0.02017218  1
  O2-  O568  1  0.83279629  0.42824482  0.36459332  1
  O2-  O569  1  0.83903012  0.42102946  0.68677290  1
  O2-  O570  1  0.79877996  0.58191701  0.05684298  1
  O2-  O571  1  0.84325404  0.68296508  0.36413144  1
  O2-  O572  1  0.83844987  0.67548310  0.69051956  1
  O2-  O573  1  0.81007855  0.92336844  0.03858475  1
  O2-  O574  1  0.84786235  0.92337527  0.35600000  1
  O2-  O575  1  0.85484253  0.92406977  0.70164033  1
