# generated using pymatgen
data_H2O
_symmetry_space_group_name_H-M   'P 1'
_cell_length_a   17.97188408
_cell_length_b   17.97438349
_cell_length_c   21.97896209
_cell_angle_alpha   90.02427887
_cell_angle_beta   89.92953747
_cell_angle_gamma   119.99398745
_symmetry_Int_Tables_number   1
_chemical_formula_structural   H2O
_chemical_formula_sum   'H384 O192'
_cell_volume   6149.09770320
_cell_formula_units_Z   192
loop_
 _symmetry_equiv_pos_site_id
 _symmetry_equiv_pos_as_xyz
  1  'x, y, z'
loop_
 _atom_type_symbol
 _atom_type_oxidation_number
  H+  1.0
  O2-  -2.0
loop_
 _atom_site_type_symbol
 _atom_site_label
 _atom_site_symmetry_multiplicity
 _atom_site_fract_x
 _atom_site_fract_y
 _atom_site_fract_z
 _atom_site_occupancy
  H+  H0  1  0.41166953  0.85340977  0.85730748  1
  H+  H1  1  0.48381839  0.63414027  0.63562375  1
  H+  H2  1  0.09251434  0.66921564  0.07972502  1
  H+  H3  1  0.59891513  0.21424282  0.16114900  1
  H+  H4  1  0.13804178  0.13095670  0.83679459  1
  H+  H5  1  0.23813235  0.61225039  0.86122842  1
  H+  H6  1  0.68629683  0.86670384  0.56084328  1
  H+  H7  1  0.23810325  0.36192449  0.90358669  1
  H+  H8  1  0.37126430  0.72233364  0.84430858  1
  H+  H9  1  0.37178843  0.12771786  0.33400094  1
  H+  H10  1  0.28956642  0.64620178  0.34850340  1
  H+  H11  1  0.99113767  0.84639982  0.98406709  1
  H+  H12  1  0.40039572  0.01117657  0.30348558  1
  H+  H13  1  0.39321818  0.36887016  0.82389327  1
  H+  H14  1  0.26419328  0.13921705  1.00243649  1
  H+  H15  1  0.62370761  0.39702554  0.66944370  1
  H+  H16  1  0.61271392  0.45065215  0.49982720  1
  H+  H17  1  0.12376597  0.88532030  0.33265637  1
  H+  H18  1  0.28338087  0.38777891  0.81829142  1
  H+  H19  1  0.88777178  0.11742075  0.64290035  1
  H+  H20  1  0.42041899  0.32062276  0.91295379  1
  H+  H21  1  0.62807991  0.01290205  0.16908818  1
  H+  H22  1  0.59406380  0.12333245  0.16190264  1
  H+  H23  1  0.24800472  0.37816598  0.19439671  1
  H+  H24  1  0.11203745  0.98697564  0.47695026  1
  H+  H25  1  0.59436664  0.22303158  0.83125213  1
  H+  H26  1  0.52858506  0.11977981  0.31895027  1
  H+  H27  1  0.37914114  0.03948300  0.65759315  1
  H+  H28  1  0.62930028  0.89044815  0.83502789  1
  H+  H29  1  0.71758266  0.84801941  0.16920827  1
  H+  H30  1  0.54289756  0.64586437  0.48369041  1
  H+  H31  1  0.36324688  0.26596858  0.17644907  1
  H+  H32  1  -0.03351314  0.04733884  0.38505754  1
  H+  H33  1  0.62414127  0.09548548  -0.01228423  1
  H+  H34  1  0.35119710  0.13774175  0.15261122  1
  H+  H35  1  0.08312994  0.75001130  0.48046935  1
  H+  H36  1  0.35687879  0.35033220  0.19888468  1
  H+  H37  1  0.37415288  0.02142830  0.15875117  1
  H+  H38  1  0.37917893  0.51766482  0.20763092  1
  H+  H39  1  0.24173405  0.61773823  0.50242555  1
  H+  H40  1  0.11817261  0.23517205  0.66352447  1
  H+  H41  1  0.66358931  0.92256720  0.47412686  1
  H+  H42  1  0.88076353  0.26171226  0.48808443  1
  H+  H43  1  0.50278251  0.11606215  0.99160188  1
  H+  H44  1  0.10511327  0.89607522  0.48228511  1
  H+  H45  1  0.28878191  0.40001765  0.25694872  1
  H+  H46  1  0.33325499  0.15767292  0.42999233  1
  H+  H47  1  0.89792771  0.60631857  0.33070674  1
  H+  H48  1  0.45689176  0.97818176  0.86607175  1
  H+  H49  1  0.11853765  1.00868094  0.82154707  1
  H+  H50  1  0.02798574  0.89652807  0.15925648  1
  H+  H51  1  0.37889990  0.79424222  0.65821452  1
  H+  H52  1  0.15804330  0.77514180  0.31900058  1
  H+  H53  1  0.53281142  0.37634805  0.32832165  1
  H+  H54  1  0.08166123  0.36397163  0.02076920  1
  H+  H55  1  0.14384848  0.60096640  0.87230379  1
  H+  H56  1  0.11520262  0.70282760  0.85359145  1
  H+  H57  1  0.85679569  0.89010285  0.15786410  1
  H+  H58  1  -0.01478130  0.60084097  0.01654966  1
  H+  H59  1  0.86363103  0.76107419  0.50515769  1
  H+  H60  1  0.10913415  0.34920881  0.18084298  1
  H+  H61  1  0.38056517  0.60194208  0.84275129  1
  H+  H62  1  0.39439404  0.36847143  0.49553335  1
  H+  H63  1  0.88351844  0.39294631  0.49395455  1
  H+  H64  1  0.70532722  0.35333792  0.84665895  1
  H+  H65  1  0.62981048  0.12156104  0.65782063  1
  H+  H66  1  0.36297332  0.23654049  0.81056813  1
  H+  H67  1  0.26209737  0.13861147  0.15426665  1
  H+  H68  1  0.82257091  0.17705505  0.10446440  1
  H+  H69  1  0.90941776  0.08126101  0.58361032  1
  H+  H70  1  0.68642808  0.82117347  0.49877473  1
  H+  H71  1  0.01163600  0.90287423  0.66673634  1
  H+  H72  1  0.64730348  0.62523677  0.63512063  1
  H+  H73  1  0.15139006  0.61234483  0.33652976  1
  H+  H74  1  0.78440420  0.37754722  0.33884478  1
  H+  H75  1  0.13277458  0.48001526  0.85577168  1
  H+  H76  1  0.37726869  0.73608140  0.36364059  1
  H+  H77  1  0.88491054  0.10955667  0.83516797  1
  H+  H78  1  0.10987703  1.00130550  0.66579726  1
  H+  H79  1  0.43343738  0.56555927  0.29112338  1
  H+  H80  1  0.63612049  0.27412912  0.66406419  1
  H+  H81  1  0.46559114  0.10841430  0.16250333  1
  H+  H82  1  0.65846694  0.78970912  0.84393584  1
  H+  H83  1  0.12355986  0.24113819  0.82981737  1
  H+  H84  1  0.23145817  0.87124332  0.16309371  1
  H+  H85  1  0.47964428  0.99293246  0.89601654  1
  H+  H86  1  0.06383237  0.41043297  0.11657789  1
  H+  H87  1  -0.02458202  0.88264478  0.83084993  1
  H+  H88  1  0.88203244  0.51273127  0.50285131  1
  H+  H89  1  0.05823486  0.16725667  0.51824546  1
  H+  H90  1  0.75955529  0.61553994  0.48433118  1
  H+  H91  1  0.12175433  0.38695416  0.63759042  1
  H+  H92  1  0.12727881  0.47901851  0.35262301  1
  H+  H93  1  0.15477104  0.37677755  0.50199538  1
  H+  H94  1  0.36280418  0.14876077  0.65988568  1
  H+  H95  1  0.97684942  0.36165698  0.64787926  1
  H+  H96  1  0.13606713  0.12492306  0.65522308  1
  H+  H97  1  0.93556403  0.24787453  0.87867283  1
  H+  H98  1  0.74739443  0.36340343  0.50992770  1
  H+  H99  1  0.74262472  0.88183012  0.84279867  1
  H+  H100  1  0.37309610  0.02076659  0.98500844  1
  H+  H101  1  0.74458955  0.83840986  0.32743339  1
  H+  H102  1  0.63988022  0.52975018  0.83381975  1
  H+  H103  1  0.38841203  1.00895383  0.51126270  1
  H+  H104  1  0.68376265  0.02931851  0.32241555  1
  H+  H105  1  0.25167622  0.85759220  0.30991929  1
  H+  H106  1  0.86370578  0.22698437  0.66512038  1
  H+  H107  1  0.64834057  0.34297080  0.31934602  1
  H+  H108  1  0.86848807  0.64993643  0.66127340  1
  H+  H109  1  0.57154866  0.40006612  0.24413714  1
  H+  H110  1  0.19113527  0.59992498  0.59657535  1
  H+  H111  1  0.62471707  0.46052738  -0.02872564  1
  H+  H112  1  0.22429848  0.12081133  0.65476906  1
  H+  H113  1  0.63672003  0.35620306  0.89533169  1
  H+  H114  1  0.38686082  0.74532073  0.16986494  1
  H+  H115  1  0.23298861  0.11798534  0.49758527  1
  H+  H116  1  0.62589632  1.01910789  0.83805745  1
  H+  H117  1  0.87337481  -0.00863155  0.82261528  1
  H+  H118  1  0.35902646  0.22166336  0.48636992  1
  H+  H119  1  0.09059039  0.24170543  1.01534976  1
  H+  H120  1  0.77204255  0.37289129  0.03697614  1
  H+  H121  1  0.74779085  0.17813369  0.49977331  1
  H+  H122  1  0.61185319  0.36306187  0.51025200  1
  H+  H123  1  0.81608918  0.92701468  0.10581526  1
  H+  H124  1  0.35363909  0.37189438  -0.04269739  1
  H+  H125  1  0.72683597  0.53436397  0.17651758  1
  H+  H126  1  0.89602685  0.78929881  0.17078035  1
  H+  H127  1  0.86923247  0.36443859  1.02345629  1
  H+  H128  1  0.64434509  0.34824560  0.99689729  1
  H+  H129  1  0.98046256  0.12619460  0.84180400  1
  H+  H130  1  0.27974641  0.88804327  1.00243673  1
  H+  H131  1  0.61798365  0.71819368  0.01155691  1
  H+  H132  1  0.14953737  0.65124552  0.67075542  1
  H+  H133  1  0.83874164  0.67850360  0.72029716  1
  H+  H134  1  0.37294053  0.48596149  0.66912162  1
  H+  H135  1  0.14411563  1.02013186  0.31627685  1
  H+  H136  1  0.13561251  0.77840470  0.64555255  1
  H+  H137  1  0.14011957  0.76638669  1.00427270  1
  H+  H138  1  0.47803140  0.60143329  0.99611290  1
  H+  H139  1  0.28578881  0.82833602  0.11432985  1
  H+  H140  1  0.29094777  0.39812839  0.47416565  1
  H+  H141  1  0.73571075  0.87813634  0.65676589  1
  H+  H142  1  0.73755390  0.62898901  0.64805893  1
  H+  H143  1  0.35273624  0.45895091  -0.03676490  1
  H+  H144  1  0.12935692  0.51832725  0.18860742  1
  H+  H145  1  0.12615797  0.74027526  0.16503826  1
  H+  H146  1  0.45786609  0.11182722  0.83416893  1
  H+  H147  1  0.84369236  0.60782590  0.80168811  1
  H+  H148  1  0.86359170  0.62269020  0.01461444  1
  H+  H149  1  0.85629638  0.14064414  1.00508269  1
  H+  H150  1  0.38978735  0.26813385  0.97667794  1
  H+  H151  1  0.02698285  0.14793495  0.66314746  1
  H+  H152  1  0.89584124  0.51653841  0.32552628  1
  H+  H153  1  0.21859623  0.58370389  0.02600199  1
  H+  H154  1  0.59104985  0.43210181  0.75509039  1
  H+  H155  1  0.09643232  0.80063690  0.85598741  1
  H+  H156  1  0.88959085  0.87733843  0.65500492  1
  H+  H157  1  0.84870260  0.38343667  0.83931116  1
  H+  H158  1  0.87608956  0.72870064  0.34559113  1
  H+  H159  1  0.03652306  0.63486536  0.32991398  1
  H+  H160  1  0.86955727  -0.01136228  0.66292345  1
  H+  H161  1  0.64175720  0.60291580  -0.00564342  1
  H+  H162  1  0.18993919  0.34020836  0.58775394  1
  H+  H163  1  0.51970462  0.81542256  0.70496066  1
  H+  H164  1  0.10247024  0.25497416  0.18165227  1
  H+  H165  1  0.46988953  0.88042231  0.18418363  1
  H+  H166  1  0.40967328  0.37079082  0.33098754  1
  H+  H167  1  0.15555862  0.08611106  0.93611283  1
  H+  H168  1  0.88447664  0.70334440  0.82089051  1
  H+  H169  1  0.65061060  0.25444097  0.31973876  1
  H+  H170  1  0.85938306  0.47082730  0.67797466  1
  H+  H171  1  0.09548155  0.46154301  1.02037686  1
  H+  H172  1  0.86381734  0.46289410  0.03735037  1
  H+  H173  1  0.00751011  0.38416810  0.17786887  1
  H+  H174  1  0.03813921  0.65017816  0.16730964  1
  H+  H175  1  0.20890855  0.87442613  0.64357341  1
  H+  H176  1  0.60474386  0.87469731  0.16363105  1
  H+  H177  1  0.20644255  0.85976481  0.49573589  1
  H+  H178  1  0.90655833  0.06845908  0.46913828  1
  H+  H179  1  0.58626899  0.18546418  1.02702265  1
  H+  H180  1  0.11947165  0.92042522  0.81663604  1
  H+  H181  1  0.61292988  0.15703282  0.47880598  1
  H+  H182  1  0.77244813  0.14087899  0.65772636  1
  H+  H183  1  0.90083781  0.75563645  -0.01565057  1
  H+  H184  1  0.23365863  0.10653739  0.31905883  1
  H+  H185  1  0.13093566  1.02045897  -0.00811460  1
  H+  H186  1  0.62573761  0.48649341  0.66475363  1
  H+  H187  1  0.98767399  0.68755858  0.88044110  1
  H+  H188  1  0.16397470  0.37327797  0.86693875  1
  H+  H189  1  0.34781107  0.90343776  0.66429365  1
  H+  H190  1  0.76529037  0.13839453  0.00202433  1
  H+  H191  1  0.85386729  1.02114556  0.00768773  1
  H+  H192  1  0.93177599  0.08776564  0.21975974  1
  H+  H193  1  0.85634825  0.15991664  0.48123601  1
  H+  H194  1  0.38172291  0.48382544  0.47475771  1
  H+  H195  1  0.79007920  0.65438993  0.15892059  1
  H+  H196  1  0.83231370  0.84889624  0.44637965  1
  H+  H197  1  0.12019278  0.88623751  0.00920592  1
  H+  H198  1  0.62000295  0.07124172  0.32598471  1
  H+  H199  1  0.13198531  0.14929507  0.49616450  1
  H+  H200  1  0.15263550  0.52659574  0.64491999  1
  H+  H201  1  0.76062139  0.97651329  0.05928001  1
  H+  H202  1  0.28399007  0.64834268  0.67938901  1
  H+  H203  1  0.37777316  0.87288977  0.16898525  1
  H+  H204  1  0.33410047  0.99229665  0.81831862  1
  H+  H205  1  0.61003757  0.71069440  0.16405778  1
  H+  H206  1  0.64192303  0.60418984  0.49771937  1
  H+  H207  1  0.08587112  0.41576415  0.58356942  1
  H+  H208  1  0.62328237  0.74367474  0.62903605  1
  H+  H209  1  0.76327281  0.14196757  0.16250073  1
  H+  H210  1  0.08688125  0.12624895  0.17672057  1
  H+  H211  1  0.98078407  0.85441495  0.32742335  1
  H+  H212  1  0.35332691  0.14317703  0.81466103  1
  H+  H213  1  0.39438134  1.08317412  0.89194009  1
  H+  H214  1  0.87844369  0.53715003  0.84288012  1
  H+  H215  1  0.53432403  0.87639653  0.84101718  1
  H+  H216  1  0.61630550  0.34370585  0.18603349  1
  H+  H217  1  0.11782017  0.63008254  0.02295985  1
  H+  H218  1  1.01655466  0.38959584  0.50294242  1
  H+  H219  1  0.88875800  0.36234871  0.66276057  1
  H+  H220  1  0.14446296  0.61337991  0.18863989  1
  H+  H221  1  0.64103066  0.86845858  0.66198550  1
  H+  H222  1  0.59926096  0.13616141  0.82850978  1
  H+  H223  1  0.69910616  0.98653250  0.41789999  1
  H+  H224  1  0.20011669  0.85796713  0.83584707  1
  H+  H225  1  0.77280109  0.04313578  0.77763931  1
  H+  H226  1  0.08460721  0.11775992  0.02005272  1
  H+  H227  1  0.55079274  0.61633529  0.35028572  1
  H+  H228  1  0.48266279  0.36948759  0.82077802  1
  H+  H229  1  0.51693330  0.14104829  0.67298449  1
  H+  H230  1  0.85272016  0.99828710  0.20414562  1
  H+  H231  1  0.17039629  0.37643985  0.33296842  1
  H+  H232  1  0.38392194  0.58755785  1.00749372  1
  H+  H233  1  0.13513608  0.03070656  0.16895447  1
  H+  H234  1  0.79052458  0.96865056  0.35268284  1
  H+  H235  1  0.36898163  0.48025052  0.82248792  1
  H+  H236  1  0.11481068  0.48173627  0.50117701  1
  H+  H237  1  0.32720231  0.17172119  0.05955475  1
  H+  H238  1  0.47499285  0.59523936  0.19310650  1
  H+  H239  1  0.89561898  0.79050325  0.65361402  1
  H+  H240  1  0.43043580  0.84365607  0.45686960  1
  H+  H241  1  0.78651037  0.63216808  0.34084373  1
  H+  H242  1  0.66344267  0.60698653  0.32944909  1
  H+  H243  1  0.11775118  0.89636146  0.15816181  1
  H+  H244  1  0.36490067  0.71630335  0.49461037  1
  H+  H245  1  0.61666790  0.62562984  0.16478240  1
  H+  H246  1  0.63464985  0.65357496  0.82719109  1
  H+  H247  1  0.49887520  0.37429683  0.19405274  1
  H+  H248  1  -0.00310353  0.36077404  0.34694371  1
  H+  H249  1  -0.00711489  0.11393473  0.01874005  1
  H+  H250  1  0.86677579  0.89936769  0.81849418  1
  H+  H251  1  0.66441938  0.81153458  0.22968711  1
  H+  H252  1  0.33797361  0.87270622  0.47960694  1
  H+  H253  1  0.98858281  0.40793309  0.86601920  1
  H+  H254  1  0.53579370  0.37170959  -0.03500292  1
  H+  H255  1  0.23891176  0.36925990  0.65227500  1
  H+  H256  1  0.88960212  0.23751921  0.87988716  1
  H+  H257  1  0.61053851  0.39531498  0.81653754  1
  H+  H258  1  0.62765582  0.46349998  0.32737242  1
  H+  H259  1  0.97115855  0.61138810  0.65307730  1
  H+  H260  1  0.38214004  0.88453289  0.26454304  1
  H+  H261  1  0.92880852  0.59584580  0.23346902  1
  H+  H262  1  0.63356709  0.50718314  0.19090352  1
  H+  H263  1  0.47654771  0.35448874  0.50910089  1
  H+  H264  1  0.39648765  0.66250709  0.18154507  1
  H+  H265  1  0.87854729  0.27690092  0.18501789  1
  H+  H266  1  0.85227531  0.61476723  0.48979074  1
  H+  H267  1  0.63516403  0.71013563  0.33893234  1
  H+  H268  1  0.81240405  0.03291978  0.30018031  1
  H+  H269  1  0.39796563  0.61439189  0.49730631  1
  H+  H270  1  0.85834337  0.52852976  0.87420966  1
  H+  H271  1  0.15884903  0.62954727  0.50200396  1
  H+  H272  1  0.61530840  -0.03070456  1.00638282  1
  H+  H273  1  0.61177596  0.87757928  1.00949737  1
  H+  H274  1  0.69171526  0.26653532  0.52807746  1
  H+  H275  1  0.37696659  0.66213418  0.68957691  1
  H+  H276  1  0.72208676  0.87449666  1.01045728  1
  H+  H277  1  0.37208054  0.21684382  0.33935282  1
  H+  H278  1  0.96660960  0.35937351  1.01357787  1
  H+  H279  1  0.48038801  0.86213018  1.00301496  1
  H+  H280  1  0.58301308  0.22295330  0.46521995  1
  H+  H281  1  0.59824612  0.68406334  0.57163365  1
  H+  H282  1  0.46390734  0.88169320  0.65808584  1
  H+  H283  1  0.90910349  0.64123280  0.17725513  1
  H+  H284  1  0.47837040  0.09408646  0.50380651  1
  H+  H285  1  0.22686041  0.12983462  0.83329299  1
  H+  H286  1  0.37083250  0.26958999  0.64960141  1
  H+  H287  1  0.37870667  0.36886010  0.65155795  1
  H+  H288  1  0.33712902  0.63779266  0.09486703  1
  H+  H289  1  0.08924835  0.91860040  0.38883022  1
  H+  H290  1  0.42373929  0.08940882  0.59794235  1
  H+  H291  1  0.08406854  0.91741132  0.06430403  1
  H+  H292  1  0.09587248  0.41591003  0.79941466  1
  H+  H293  1  0.37281210  0.45314201  0.38368685  1
  H+  H294  1  0.38955272  0.61011972  0.61249577  1
  H+  H295  1  0.68208534  0.29364995  0.96960656  1
  H+  H296  1  0.84155900  0.93409569  0.72621090  1
  H+  H297  1  0.67492984  0.83399347  0.94543254  1
  H+  H298  1  0.84502362  0.67925566  0.09854744  1
  H+  H299  1  0.81571831  0.13328652  0.74603638  1
  H+  H300  1  0.40374080  0.33354601  0.58326751  1
  H+  H301  1  0.92300196  0.55110773  0.96113626  1
  H+  H302  1  0.83243046  0.51281475  0.16139020  1
  H+  H303  1  0.34265454  0.42490529  0.72863223  1
  H+  H304  1  0.31601764  0.91706595  0.42588222  1
  H+  H305  1  0.73159272  0.61518418  0.83505807  1
  H+  H306  1  0.57842548  0.14769035  0.38181833  1
  H+  H307  1  0.04039126  0.14162719  0.12249806  1
  H+  H308  1  0.82074644  0.00637678  0.50531998  1
  H+  H309  1  0.91609674  0.32581722  0.24752250  1
  H+  H310  1  0.33059298  0.17645720  0.72062225  1
  H+  H311  1  0.89657180  0.83680913  0.55246580  1
  H+  H312  1  0.91984581  0.34207367  0.55753234  1
  H+  H313  1  0.42982017  0.82374469  0.92206868  1
  H+  H314  1  0.39817965  0.88634285  0.33552759  1
  H+  H315  1  0.67195696  0.31975697  0.22874768  1
  H+  H316  1  0.83415581  0.65674045  0.41788599  1
  H+  H317  1  0.41252926  0.57096178  0.89913015  1
  H+  H318  1  0.68390369  0.13972573  0.55886542  1
  H+  H319  1  0.95928391  0.61389234  0.49977787  1
  H+  H320  1  0.37107676  0.11035262  0.98624835  1
  H+  H321  1  0.97137009  0.76227455  0.90690241  1
  H+  H322  1  0.17034835  0.08712742  0.55696019  1
  H+  H323  1  0.61695685  0.67538020  0.43569306  1
  H+  H324  1  0.56200319  0.93816151  0.33996228  1
  H+  H325  1  0.17661919  0.57304199  0.95980021  1
  H+  H326  1  0.87526972  0.38358285  0.34746652  1
  H+  H327  1  0.00448448  0.71977993  0.43613634  1
  H+  H328  1  0.92182876  0.84220948  0.23224037  1
  H+  H329  1  0.29275826  0.35629717  0.09580878  1
  H+  H330  1  0.69751530  0.57793892  0.26952076  1
  H+  H331  1  0.65390810  0.83613041  0.32368404  1
  H+  H332  1  0.57382107  0.16566434  0.73411097  1
  H+  H333  1  0.14815308  0.83377053  0.55751289  1
  H+  H334  1  0.74136343  0.42452047  0.15943360  1
  H+  H335  1  0.17819660  0.57900892  0.27849561  1
  H+  H336  1  0.92443535  0.37982565  0.92080968  1
  H+  H337  1  0.16941211  0.08730624  0.23005979  1
  H+  H338  1  0.18539860  0.72967052  0.71447154  1
  H+  H339  1  0.30154865  0.36667937  0.06242344  1
  H+  H340  1  0.90888382  0.57797520  0.59591296  1
  H+  H341  1  0.33953541  0.65765951  0.43500278  1
  H+  H342  1  0.08846221  0.18775629  0.76681390  1
  H+  H343  1  0.81060779  0.38553566  0.77432641  1
  H+  H344  1  0.87647224  0.23617854  0.39289652  1
  H+  H345  1  0.09709771  0.41927497  0.41238106  1
  H+  H346  1  0.16098645  0.29098659  0.49670036  1
  H+  H347  1  0.17875290  0.84757951  0.22754513  1
  H+  H348  1  0.77294611  0.38102509  0.67567567  1
  H+  H349  1  0.02647492  0.12760764  0.42601531  1
  H+  H350  1  0.91484890  0.83896207  0.88687165  1
  H+  H351  1  0.58564164  0.65383004  0.06808055  1
  H+  H352  1  0.57867621  0.90765929  0.40664216  1
  H+  H353  1  0.08290648  0.67734731  0.39071762  1
  H+  H354  1  0.33155577  0.67396073  0.78100350  1
  H+  H355  1  0.67594543  0.58570198  0.93194412  1
  H+  H356  1  0.57907769  0.90723712  0.10405991  1
  H+  H357  1  0.07658156  0.94271793  0.73128235  1
  H+  H358  1  0.41578086  0.07865486  0.25227451  1
  H+  H359  1  0.30830066  0.93094987  0.72011113  1
  H+  H360  1  0.62670476  0.69678971  0.76733534  1
  H+  H361  1  0.71197404  0.10441761  0.82871057  1
  H+  H362  1  0.39376982  0.86757682  0.99552965  1
  H+  H363  1  0.88716203  0.84893718  0.33489730  1
  H+  H364  1  0.32970905  0.90346390  0.81097583  1
  H+  H365  1  0.64769447  0.06239256  0.23034856  1
  H+  H366  1  0.43505919  0.85644943  0.53141606  1
  H+  H367  1  0.16647676  0.82061786  0.94238295  1
  H+  H368  1  0.41027775  0.31984128  0.27320452  1
  H+  H369  1  0.16339905  0.32712911  0.27336003  1
  H+  H370  1  0.87137839  0.26566931  1.00426054  1
  H+  H371  1  0.77719361  0.62767408  0.00588111  1
  H+  H372  1  0.43358153  0.57171912  0.54600851  1
  H+  H373  1  0.28393994  0.53785437  0.08336746  1
  H+  H374  1  0.12647914  0.30040432  0.95621817  1
  H+  H375  1  0.84316152  0.41907753  0.43517605  1
  H+  H376  1  0.66452321  0.07624066  0.92986245  1
  H+  H377  1  0.57386238  0.89496156  0.74621317  1
  H+  H378  1  0.67592158  0.57737861  0.55598572  1
  H+  H379  1  0.05245042  0.61888410  0.81704568  1
  H+  H380  1  0.33763634  0.92025960  0.06142680  1
  H+  H381  1  0.90142716  0.07679984  0.94256059  1
  H+  H382  1  0.63061582  0.03630476  0.63875270  1
  H+  H383  1  0.67657704  0.33100479  0.60418726  1
  O2-  O384  1  0.04605953  0.14701827  0.16736351  1
  O2-  O385  1  0.10234583  0.18435707  0.48700541  1
  O2-  O386  1  0.08721128  0.18300871  0.81190231  1
  O2-  O387  1  0.06902923  0.41378587  0.16149024  1
  O2-  O388  1  0.08690504  0.41863390  0.49742484  1
  O2-  O389  1  0.09793379  0.41708984  0.84369128  1
  O2-  O390  1  0.09905791  0.67814620  0.15272182  1
  O2-  O391  1  0.03739595  0.69729040  0.45649262  1
  O2-  O392  1  0.07557793  0.63962708  0.85757139  1
  O2-  O393  1  0.08692308  0.92536638  0.14089195  1
  O2-  O394  1  0.08118660  0.92772850  0.46044145  1
  O2-  O395  1  0.08701321  0.94745873  0.80307071  1
  O2-  O396  1  0.32329963  0.17078750  0.13850473  1
  O2-  O397  1  0.32750557  0.16041553  0.47504498  1
  O2-  O398  1  0.32545794  0.17463630  0.79707736  1
  O2-  O399  1  0.30689271  0.40828414  0.21324221  1
  O2-  O400  1  0.35159638  0.42366358  0.45919140  1
  O2-  O401  1  0.34174688  0.42143855  0.80043379  1
  O2-  O402  1  0.38896495  0.69698496  0.14988928  1
  O2-  O403  1  0.33905980  0.65455539  0.48285552  1
  O2-  O404  1  0.33193838  0.66466666  0.82545337  1
  O2-  O405  1  0.31465535  0.88789202  0.12847490  1
  O2-  O406  1  0.30986770  0.90736057  0.46968271  1
  O2-  O407  1  0.29713923  0.93167751  0.80063497  1
  O2-  O408  1  0.56378197  0.15362461  0.14757089  1
  O2-  O409  1  0.56693293  0.16329199  0.45683607  1
  O2-  O410  1  0.56639902  0.16395908  0.81373387  1
  O2-  O411  1  0.56262222  0.40162126  0.19939077  1
  O2-  O412  1  0.57738821  0.38775071  0.49497506  1
  O2-  O413  1  0.58602790  0.43103325  0.80152791  1
  O2-  O414  1  0.57969410  0.64795854  0.15124202  1
  O2-  O415  1  0.60671695  0.67519638  0.48092593  1
  O2-  O416  1  0.61685097  0.69433587  0.81091342  1
  O2-  O417  1  0.57856997  0.90906279  0.14945751  1
  O2-  O418  1  0.64886430  0.95693185  0.44474837  1
  O2-  O419  1  0.59014415  0.91222036  0.81906058  1
  O2-  O420  1  0.82322635  0.18059564  0.14912752  1
  O2-  O421  1  0.84066089  0.20226975  0.46690576  1
  O2-  O422  1  0.79980346  0.10418912  0.78724831  1
  O2-  O423  1  0.77277368  0.48563036  0.14613196  1
  O2-  O424  1  0.84613201  0.42162757  0.48059116  1
  O2-  O425  1  0.79437773  0.36540188  0.81664445  1
  O2-  O426  1  0.84947316  0.68831390  0.14374427  1
  O2-  O427  1  0.82385554  0.64693497  0.47073666  1
  O2-  O428  1  0.83551766  0.65747849  0.79776562  1
  O2-  O429  1  0.81667883  0.91185787  0.15088998  1
  O2-  O430  1  0.78360353  0.83478145  0.41868731  1
  O2-  O431  1  0.83947680  0.93327276  0.80312423  1
  O2-  O432  1  0.16400076  0.09109183  0.18411896  1
  O2-  O433  1  0.17030172  0.09097766  0.51210608  1
  O2-  O434  1  0.16707018  0.09851254  0.85053911  1
  O2-  O435  1  0.13895819  0.31705135  0.19296424  1
  O2-  O436  1  0.19315751  0.35243081  0.51069977  1
  O2-  O437  1  0.19157494  0.33743933  0.87091818  1
  O2-  O438  1  0.16671820  0.57727222  0.20523115  1
  O2-  O439  1  0.18122476  0.59495144  0.51948838  1
  O2-  O440  1  0.18111224  0.57593877  0.88197212  1
  O2-  O441  1  0.17114792  0.84664652  0.18260414  1
  O2-  O442  1  0.14629301  0.83374752  0.51100165  1
  O2-  O443  1  0.15628686  0.81215000  0.86233438  1
  O2-  O444  1  0.40212713  0.07972167  0.17555863  1
  O2-  O445  1  0.43773296  0.05332952  0.53415600  1
  O2-  O446  1  0.39572697  0.08518323  0.84568349  1
  O2-  O447  1  0.39193059  0.32102953  0.20018855  1
  O2-  O448  1  0.41393648  0.33343224  0.51914531  1
  O2-  O449  1  0.42121573  0.33449799  0.83503765  1
  O2-  O450  1  0.42229676  0.57887898  0.21728587  1
  O2-  O451  1  0.43463795  0.58588899  0.50311941  1
  O2-  O452  1  0.40819417  0.56813089  0.85407578  1
  O2-  O453  1  0.40960261  0.85336705  0.19825230  1
  O2-  O454  1  0.39755079  0.82484416  0.49740069  1
  O2-  O455  1  0.43515013  0.81892056  0.87325055  1
  O2-  O456  1  0.65234371  0.07249503  0.18615318  1
  O2-  O457  1  0.69435726  0.17166098  0.52019728  1
  O2-  O458  1  0.65521651  0.08153350  0.84882627  1
  O2-  O459  1  0.65836952  0.32286953  0.18513985  1
  O2-  O460  1  0.68950089  0.32110959  0.52779070  1
  O2-  O461  1  0.64284877  0.33268351  0.85617727  1
  O2-  O462  1  0.69148958  0.56090695  0.19251516  1
  O2-  O463  1  0.67056013  0.57081298  0.51033420  1
  O2-  O464  1  0.67302721  0.58880051  0.85254097  1
  O2-  O465  1  0.65627250  0.81248303  0.18488766  1
  O2-  O466  1  0.69941577  0.87640613  0.51660731  1
  O2-  O467  1  0.68390228  0.84953155  0.86104637  1
  O2-  O468  1  0.87614450  0.04358065  0.23594410  1
  O2-  O469  1  0.87195963  0.06364409  0.50701250  1
  O2-  O470  1  0.92026847  0.08900388  0.85594758  1
  O2-  O471  1  0.91292082  0.33522520  0.20384132  1
  O2-  O472  1  0.92926589  0.35028976  0.51334392  1
  O2-  O473  1  0.94149347  0.41445692  0.88321741  1
  O2-  O474  1  0.93293170  0.60368386  0.18843318  1
  O2-  O475  1  0.90259479  0.57442627  0.51915746  1
  O2-  O476  1  0.98666108  0.73964457  0.86892932  1
  O2-  O477  1  0.92488319  0.84912070  0.18740728  1
  O2-  O478  1  0.86751235  0.81651082  0.51308830  1
  O2-  O479  1  0.91427843  0.84799167  0.84251820  1
  O2-  O480  1  0.17477472  0.08074694  0.30230597  1
  O2-  O481  1  0.16268169  0.09010494  0.64090586  1
  O2-  O482  1  0.15537416  0.08244444  0.98099826  1
  O2-  O483  1  0.19807923  0.34886050  0.31115137  1
  O2-  O484  1  0.18102771  0.33570221  0.63318758  1
  O2-  O485  1  0.11311929  0.30164233  0.99909413  1
  O2-  O486  1  0.18270387  0.58193232  0.32483196  1
  O2-  O487  1  0.18897690  0.59069964  0.64164242  1
  O2-  O488  1  0.16360425  0.56798518  1.00429832  1
  O2-  O489  1  0.18899611  0.83669530  0.30666230  1
  O2-  O490  1  0.14987040  0.83492316  0.62853142  1
  O2-  O491  1  0.16864356  0.82612975  0.98731702  1
  O2-  O492  1  0.42377649  0.07417260  0.29714574  1
  O2-  O493  1  0.41575378  0.09972953  0.64240459  1
  O2-  O494  1  0.39842901  0.07987136  0.96615512  1
  O2-  O495  1  0.42444117  0.32699892  0.31813471  1
  O2-  O496  1  0.39988208  0.33116340  0.63191792  1
  O2-  O497  1  0.42517381  0.32631669  0.95823821  1
  O2-  O498  1  0.44272221  0.55687666  0.33558344  1
  O2-  O499  1  0.42036694  0.60082820  0.64541472  1
  O2-  O500  1  0.41819155  0.57255930  0.98000173  1
  O2-  O501  1  0.44693239  0.85453057  0.38478567  1
  O2-  O502  1  0.40553432  0.85295244  0.64096344  1
  O2-  O503  1  0.42119023  0.83262794  0.98492590  1
  O2-  O504  1  0.62639152  0.02122711  0.31181766  1
  O2-  O505  1  0.66386412  0.09867239  0.63583345  1
  O2-  O506  1  0.66443275  0.07405550  0.97505890  1
  O2-  O507  1  0.68411017  0.31661068  0.30874709  1
  O2-  O508  1  0.67153284  0.33450697  0.64934947  1
  O2-  O509  1  0.67471193  0.31578011  1.00831397  1
  O2-  O510  1  0.69684565  0.57858986  0.31534846  1
  O2-  O511  1  0.67850572  0.59307449  0.63070482  1
  O2-  O512  1  0.67490827  0.57663921  0.97685741  1
  O2-  O513  1  0.68164227  0.80578981  0.30703213  1
  O2-  O514  1  0.67613362  0.84924414  0.63893304  1
  O2-  O515  1  0.66546311  0.82640969  0.98986801  1
  O2-  O516  1  0.77417798  0.01013110  0.33678249  1
  O2-  O517  1  0.92032914  0.08893833  0.62844164  1
  O2-  O518  1  0.89904506  0.08224508  0.98700777  1
  O2-  O519  1  0.93367438  0.33249665  0.33397461  1
  O2-  O520  1  0.91334189  0.32833958  0.64436718  1
  O2-  O521  1  0.90343895  0.33250218  0.99790783  1
  O2-  O522  1  0.92698226  0.57800503  0.31138464  1
  O2-  O523  1  0.91058855  0.58332936  0.64165186  1
  O2-  O524  1  0.92228301  0.56465982  1.00405315  1
  O2-  O525  1  0.91793416  0.81953494  0.31677579  1
  O2-  O526  1  0.92513707  0.85199695  0.64004311  1
  O2-  O527  1  0.94187966  0.80454631  0.95812151  1
  O2-  O528  1  0.05114963  0.14176419  0.03896159  1
  O2-  O529  1  -0.03210294  0.09354685  0.40903339  1
  O2-  O530  1  0.08532416  0.17623697  0.68177212  1
  O2-  O531  1  0.05687883  0.40135205  0.03495536  1
  O2-  O532  1  0.09644566  0.41773678  0.36729492  1
  O2-  O533  1  0.08997001  0.41832679  0.62876255  1
  O2-  O534  1  0.08690491  0.66174540  0.03362363  1
  O2-  O535  1  0.09518788  0.66895498  0.34796606  1
  O2-  O536  1  0.13440258  0.69217767  0.69069644  1
  O2-  O537  1  0.08591213  0.91469628  0.01848516  1
  O2-  O538  1  0.08744457  0.91063004  0.34282865  1
  O2-  O539  1  0.07398319  0.94019229  0.68488114  1
  O2-  O540  1  0.32626953  0.16825929  0.01394776  1
  O2-  O541  1  0.34071345  0.15542118  0.35177593  1
  O2-  O542  1  0.32944993  0.17740058  0.67464620  1
  O2-  O543  1  0.31626953  0.39746322  -0.04734732  1
  O2-  O544  1  0.39379327  0.46312344  0.34050636  1
  O2-  O545  1  0.34302268  0.42506268  0.68193863  1
  O2-  O546  1  0.30722542  0.59225351  0.06158586  1
  O2-  O547  1  0.34716773  0.67294334  0.36844565  1
  O2-  O548  1  0.34083368  0.68771416  0.69910400  1
  O2-  O549  1  0.34109618  0.92475252  0.01422231  1
  O2-  O550  1  0.36658717  0.90133457  0.30429274  1
  O2-  O551  1  0.31509136  0.93308704  0.67520559  1
  O2-  O552  1  0.56089327  0.13016360  0.00605603  1
  O2-  O553  1  0.58751111  0.14329743  0.33732673  1
  O2-  O554  1  0.57736923  0.16665497  0.68864365  1
  O2-  O555  1  0.59980935  0.39811920  -0.03712104  1
  O2-  O556  1  0.59564391  0.40059845  0.32041209  1
  O2-  O557  1  0.59480942  0.42884014  0.68342202  1
  O2-  O558  1  0.58814812  0.65567941  0.02282244  1
  O2-  O559  1  0.61304792  0.65316673  0.36057621  1
  O2-  O560  1  0.58919368  0.68150536  0.61594362  1
  O2-  O561  1  0.58375135  0.91070348  0.02477055  1
  O2-  O562  1  0.53686170  0.88215900  0.36713991  1
  O2-  O563  1  0.55982655  0.87703504  0.70172302  1
  O2-  O564  1  0.82575475  0.17303556  0.01766189  1
  O2-  O565  1  0.89509664  0.24114910  0.34904816  1
  O2-  O566  1  0.83145155  0.16318150  0.67411486  1
  O2-  O567  1  0.83448457  0.40097287  0.04923565  1
  O2-  O568  1  0.84361167  0.41495569  0.35581257  1
  O2-  O569  1  0.83344902  0.41068838  0.69183177  1
  O2-  O570  1  0.83781032  0.65955206  0.02184146  1
  O2-  O571  1  0.84634569  0.66579942  0.36159740  1
  O2-  O572  1  0.84127823  0.68387500  0.67501427  1
  O2-  O573  1  0.79305753  0.95095068  0.04252769  1
  O2-  O574  1  0.82302630  0.88293438  0.36260479  1
  O2-  O575  1  0.83879877  0.92907805  0.68046217  1
