# generated using pymatgen
data_H2O
_symmetry_space_group_name_H-M   'P 1'
_cell_length_a   17.99297115
_cell_length_b   17.99753019
_cell_length_c   22.00105047
_cell_angle_alpha   89.99155368
_cell_angle_beta   90.00215215
_cell_angle_gamma   120.02468844
_symmetry_Int_Tables_number   1
_chemical_formula_structural   H2O
_chemical_formula_sum   'H384 O192'
_cell_volume   6168.53086400
_cell_formula_units_Z   192
loop_
 _symmetry_equiv_pos_site_id
 _symmetry_equiv_pos_as_xyz
  1  'x, y, z'
loop_
 _atom_type_symbol
 _atom_type_oxidation_number
  H+  1.0
  O2-  -2.0
loop_
 _atom_site_type_symbol
 _atom_site_label
 _atom_site_symmetry_multiplicity
 _atom_site_fract_x
 _atom_site_fract_y
 _atom_site_fract_z
 _atom_site_occupancy
  H+  H0  1  0.12808876  0.37240315  0.67457120  1
  H+  H1  1  0.91955062  1.00161397  0.65699706  1
  H+  H2  1  0.57348516  0.67759626  0.73865289  1
  H+  H3  1  0.76052159  0.54897217  0.11031639  1
  H+  H4  1  1.03501011  0.90000124  0.67657837  1
  H+  H5  1  0.38908487  0.74942498  -0.00061598  1
  H+  H6  1  0.37323950  0.26437845  0.50883285  1
  H+  H7  1  0.47268938  0.60611900  0.67229484  1
  H+  H8  1  1.01723303  0.12957096  0.67859647  1
  H+  H9  1  0.14579350  0.11925463  0.50615624  1
  H+  H10  1  0.62406899  1.00346962  0.33857325  1
  H+  H11  1  0.52789564  0.65150651  0.16140971  1
  H+  H12  1  0.77256762  0.39583118  0.32389059  1
  H+  H13  1  0.73476390  0.36952330  0.83286396  1
  H+  H14  1  0.64100355  0.78403200  0.84533165  1
  H+  H15  1  0.52440786  0.39355650  0.34562153  1
  H+  H16  1  0.35921537  0.46527963  0.99150564  1
  H+  H17  1  0.63227526  0.60327803  0.50868405  1
  H+  H18  1  0.73888368  0.39191845  0.13513528  1
  H+  H19  1  0.95971711  0.35760526  0.34872517  1
  H+  H20  1  0.88948225  0.61885500  0.34524864  1
  H+  H21  1  0.12385294  0.63566830  0.16934912  1
  H+  H22  1  0.11202025  0.27284687  0.67731452  1
  H+  H23  1  0.60984376  0.64879979  0.82818277  1
  H+  H24  1  0.99088731  0.88379322  0.17933839  1
  H+  H25  1  0.52969614  0.88717171  0.83762475  1
  H+  H26  1  0.93746802  0.32988447  0.59595735  1
  H+  H27  1  0.85964956  0.36820085  0.66495164  1
  H+  H28  1  0.99015641  0.60472168  0.63312249  1
  H+  H29  1  0.36212852  0.34695699  0.50719352  1
  H+  H30  1  0.10069863  0.42100352  0.40219402  1
  H+  H31  1  0.90039884  0.53519210  0.98877998  1
  H+  H32  1  0.85999119  0.88864483  0.48392148  1
  H+  H33  1  0.02544750  0.39067002  0.83737624  1
  H+  H34  1  0.77352641  0.87889369  0.00886157  1
  H+  H35  1  0.36059624  0.22798112  0.66522036  1
  H+  H36  1  1.01951357  0.64046271  0.35552238  1
  H+  H37  1  0.64025846  0.86723008  0.13939904  1
  H+  H38  1  0.86048762  0.22212076  0.17122279  1
  H+  H39  1  0.86345135  0.98026786  0.15705423  1
  H+  H40  1  0.22036169  0.34002593  0.35769390  1
  H+  H41  1  0.62030660  0.53690795  0.18209853  1
  H+  H42  1  0.89883844  0.23936689  0.67576253  1
  H+  H43  1  0.35717314  0.96558503  0.15840037  1
  H+  H44  1  0.77358701  0.88772512  0.67550802  1
  H+  H45  1  0.89590308  0.02314780  0.50332035  1
  H+  H46  1  0.26132636  0.12716352  0.33865930  1
  H+  H47  1  0.63138606  0.38392475  0.49745036  1
  H+  H48  1  0.83993910  0.57611440  0.64706539  1
  H+  H49  1  0.38685173  0.83733092  0.99857283  1
  H+  H50  1  0.52841755  0.39423503  0.83145969  1
  H+  H51  1  0.27414903  0.89372630  0.34543171  1
  H+  H52  1  0.38391551  0.35577267  0.98719846  1
  H+  H53  1  0.14646415  0.13040255  0.18246115  1
  H+  H54  1  0.37162593  0.13486434  0.49826333  1
  H+  H55  1  0.61034773  0.12441863  0.00626264  1
  H+  H56  1  0.12230084  0.48768918  0.68015023  1
  H+  H57  1  0.46892094  0.87337641  0.64779877  1
  H+  H58  1  0.84190291  0.91852433  0.06939350  1
  H+  H59  1  0.21983039  0.38101530  0.35245274  1
  H+  H60  1  0.37388683  0.27054068  0.16664600  1
  H+  H61  1  0.37976115  0.14949159  0.67347506  1
  H+  H62  1  0.76403323  0.35394365  0.66941930  1
  H+  H63  1  0.14681365  1.03041510  0.83792931  1
  H+  H64  1  0.11603350  0.26377195  0.84670833  1
  H+  H65  1  0.65273369  0.37864893  0.99720606  1
  H+  H66  1  0.78751876  0.36667631  0.49616554  1
  H+  H67  1  0.69003970  0.35927805  0.93763995  1
  H+  H68  1  0.13371816  0.37904567  0.08293981  1
  H+  H69  1  0.49811595  0.39658559  0.15869564  1
  H+  H70  1  1.00566143  0.65196527  0.16182508  1
  H+  H71  1  0.14135420  0.77440096  0.33559484  1
  H+  H72  1  0.52790582  0.87624836  0.00739001  1
  H+  H73  1  0.76699562  0.65610772  0.82131972  1
  H+  H74  1  0.12061837  0.00120797  0.16765572  1
  H+  H75  1  0.91299178  0.35391970  0.50234714  1
  H+  H76  1  0.46800813  0.10866423  0.99604443  1
  H+  H77  1  0.77511673  0.13892810  0.00781165  1
  H+  H78  1  0.11762422  0.52018527  0.44212404  1
  H+  H79  1  0.35186464  0.13196736  0.33703097  1
  H+  H80  1  0.78034705  0.12529885  0.34626609  1
  H+  H81  1  0.39998619  0.01134376  0.31980979  1
  H+  H82  1  0.86543837  0.98218163  0.32036877  1
  H+  H83  1  0.22834004  0.62670222  0.32051350  1
  H+  H84  1  0.47566710  0.60255264  0.99279131  1
  H+  H85  1  0.35018600  0.13975611  0.15968035  1
  H+  H86  1  0.26685896  0.37213624  0.99177787  1
  H+  H87  1  0.62236199  0.89526802  0.83578527  1
  H+  H88  1  0.51909223  0.82824922  0.70740654  1
  H+  H89  1  0.72292114  0.12152959  0.84229657  1
  H+  H90  1  0.95223497  0.59545189  0.50614903  1
  H+  H91  1  0.13966723  0.89789715  0.82537009  1
  H+  H92  1  0.61358710  0.65206368  0.35028990  1
  H+  H93  1  0.37996656  0.58640518  0.53140312  1
  H+  H94  1  0.16292462  0.32384757  0.93512763  1
  H+  H95  1  0.87529396  0.11417397  0.18318450  1
  H+  H96  1  0.89261253  0.27933009  0.99821932  1
  H+  H97  1  0.62788743  0.14245636  0.34294934  1
  H+  H98  1  0.47442807  0.10108273  0.83821883  1
  H+  H99  1  0.85963858  0.22775809  0.83740381  1
  H+  H100  1  0.45544199  0.09287244  0.16241260  1
  H+  H101  1  0.89389829  0.78208049  -0.00616406  1
  H+  H102  1  0.33799981  0.37028528  0.66397319  1
  H+  H103  1  -0.08905813  0.12603278  0.28046251  1
  H+  H104  1  0.34286458  0.46198970  0.67130645  1
  H+  H105  1  0.95930899  0.11845165  0.88716560  1
  H+  H106  1  0.79086431  0.40474848  0.00926545  1
  H+  H107  1  0.77467258  0.89162133  0.14213202  1
  H+  H108  1  0.84470972  0.13718847  0.67604503  1
  H+  H109  1  0.12653970  0.48169091  0.00562675  1
  H+  H110  1  0.40806379  0.51655252  0.35162491  1
  H+  H111  1  0.53472489  0.13823108  0.34965559  1
  H+  H112  1  0.21509914  0.64304774  0.17053150  1
  H+  H113  1  0.36299482  0.72749816  0.67745464  1
  H+  H114  1  0.13300324  0.02223809  0.31241876  1
  H+  H115  1  0.09634010  0.32099837  0.29170579  1
  H+  H116  1  0.60934751  1.01676088  0.66387412  1
  H+  H117  1  0.56706507  0.39048556  0.74432467  1
  H+  H118  1  0.86646176  0.45729510  0.48818936  1
  H+  H119  1  0.73890828  0.63382762  -0.01998036  1
  H+  H120  1  -0.02381464  0.86919147  0.50660904  1
  H+  H121  1  0.24843903  0.11348535  0.65321430  1
  H+  H122  1  0.86186469  0.89953699  0.82894557  1
  H+  H123  1  0.42307358  0.33462118  0.89972907  1
  H+  H124  1  0.97538828  0.47535042  0.12182228  1
  H+  H125  1  0.89092182  0.36194307  0.84182406  1
  H+  H126  1  0.61449890  0.24757769  0.65389838  1
  H+  H127  1  0.35151343  0.46681360  0.12764035  1
  H+  H128  1  0.87238402  0.46897428  0.81906116  1
  H+  H129  1  0.15239682  0.74436929  0.68746465  1
  H+  H130  1  0.04033852  0.33588509  0.48176771  1
  H+  H131  1  0.39091123  0.28320672  0.83693281  1
  H+  H132  1  0.63564711  0.86487360  0.50235985  1
  H+  H133  1  0.35984649  0.62858238  0.83235963  1
  H+  H134  1  0.99118030  0.85079666  0.34119828  1
  H+  H135  1  0.92337631  0.82667339  0.73061698  1
  H+  H136  1  0.17238166  1.09428071  0.25203963  1
  H+  H137  1  0.74484254  0.35315778  0.13311254  1
  H+  H138  1  0.85553567  0.71454961  0.67093034  1
  H+  H139  1  0.82832803  0.67498054  0.76502421  1
  H+  H140  1  0.85640804  0.38946939  0.32328201  1
  H+  H141  1  0.88292883  0.26055760  0.34175129  1
  H+  H142  1  0.76379202  0.62695605  0.66988274  1
  H+  H143  1  0.45694566  0.35217519  0.66001275  1
  H+  H144  1  0.13474071  0.62670592  0.97815731  1
  H+  H145  1  0.12857499  0.35830340  0.84616806  1
  H+  H146  1  0.73146283  0.87493646  0.84480837  1
  H+  H147  1  0.27277807  0.38475121  0.83685286  1
  H+  H148  1  0.34320375  0.64453095  0.46956706  1
  H+  H149  1  0.26093216  0.14363012  0.16825866  1
  H+  H150  1  0.64226758  0.28609184  0.83637790  1
  H+  H151  1  0.38988092  0.63617145  0.17075357  1
  H+  H152  1  0.36407592  0.39021795  0.83556684  1
  H+  H153  1  0.59354002  0.41210131  0.15773526  1
  H+  H154  1  0.39483943  0.85425291  0.85472417  1
  H+  H155  1  0.38541819  0.60017421  0.99515829  1
  H+  H156  1  0.11566848  0.59752963  0.48750659  1
  H+  H157  1  0.60158567  0.72693739  0.67497594  1
  H+  H158  1  0.51955455  0.37572204  0.00470771  1
  H+  H159  1  0.53393218  0.24678433  -0.07098603  1
  H+  H160  1  0.63447820  0.53740200  0.83339071  1
  H+  H161  1  0.20599224  0.36811172  0.48162338  1
  H+  H162  1  0.62828168  0.48158608  0.49745895  1
  H+  H163  1  0.20965165  0.60354985  0.47346245  1
  H+  H164  1  0.48971434  0.64809800  0.33669094  1
  H+  H165  1  0.56396893  0.22940421  0.92980982  1
  H+  H166  1  0.22402908  0.10999648  -0.00622294  1
  H+  H167  1  0.20905148  0.37531720  0.12000124  1
  H+  H168  1  0.03625307  0.62587108  0.64343762  1
  H+  H169  1  0.13312629  0.87480302  0.49104560  1
  H+  H170  1  0.60726421  -0.03116840  0.16639100  1
  H+  H171  1  0.85873557  0.72260713  0.49278078  1
  H+  H172  1  0.53463345  0.91410177  0.33514496  1
  H+  H173  1  0.60994846  0.38757800  0.34837263  1
  H+  H174  1  0.40249526  0.55534174  0.19640479  1
  H+  H175  1  0.28482978  0.91454359  0.49436781  1
  H+  H176  1  0.83817926  0.48534529  0.64544702  1
  H+  H177  1  0.16328008  0.62242236  0.67060410  1
  H+  H178  1  0.64385807  0.78006447  0.13735116  1
  H+  H179  1  0.72251504  0.62084416  0.33081559  1
  H+  H180  1  0.82936304  0.92421101  0.73761934  1
  H+  H181  1  0.60808298  0.13990901  0.82100274  1
  H+  H182  1  0.32229222  0.16672270  0.07004953  1
  H+  H183  1  0.38269870  0.28707267  0.31830378  1
  H+  H184  1  0.91066839  0.40052204  0.16369306  1
  H+  H185  1  0.48265657  0.04328657  0.28013650  1
  H+  H186  1  0.28189372  0.59771790  0.15184995  1
  H+  H187  1  0.61541111  0.64709306  0.16310835  1
  H+  H188  1  0.11472373  0.97618413  0.00606360  1
  H+  H189  1  0.63291253  0.27075515  0.34697472  1
  H+  H190  1  0.14237018  0.26448891  -0.00610688  1
  H+  H191  1  0.54967207  0.28239313  0.20008373  1
  H+  H192  1  0.11487927  0.12860247  1.00655895  1
  H+  H193  1  0.64643394  0.62575626  0.98599351  1
  H+  H194  1  0.87506319  0.78660797  0.83537831  1
  H+  H195  1  0.01403246  0.79445589  0.38327248  1
  H+  H196  1  0.75153338  0.61076669  0.15566241  1
  H+  H197  1  0.61934806  0.74385635  0.36650899  1
  H+  H198  1  0.63545185  0.03076234  0.84238116  1
  H+  H199  1  0.63929378  0.86749711  0.66103009  1
  H+  H200  1  0.63047402  0.34151462  0.66179645  1
  H+  H201  1  0.90663893  0.13878874  0.97730461  1
  H+  H202  1  -0.01319333  0.11033528  0.50570525  1
  H+  H203  1  0.58389197  0.18506985  0.16599604  1
  H+  H204  1  0.64393946  0.50628232  0.65760720  1
  H+  H205  1  0.72770733  0.87529083  0.35302029  1
  H+  H206  1  0.23323363  0.11185538  0.50440786  1
  H+  H207  1  0.89682162  0.87184064  0.17507247  1
  H+  H208  1  0.61160481  0.72431772  0.00606527  1
  H+  H209  1  0.87165282  0.88023106  0.00606993  1
  H+  H210  1  0.11292798  0.98559259  0.48961267  1
  H+  H211  1  0.99023779  0.61955814  0.97887137  1
  H+  H212  1  0.11809358  0.89204534  0.65741501  1
  H+  H213  1  0.23763982  0.61114164  0.87528196  1
  H+  H214  1  0.40941529  0.42897388  0.34438194  1
  H+  H215  1  0.36841565  0.35696551  0.15908037  1
  H+  H216  1  0.87432002  0.59820961  0.17169908  1
  H+  H217  1  0.67705645  0.83878404  0.93873854  1
  H+  H218  1  0.86969623  0.12685613  0.50087241  1
  H+  H219  1  0.16655177  0.82266180  0.45383791  1
  H+  H220  1  0.72555268  0.16827021  0.30114672  1
  H+  H221  1  0.11110363  0.88587392  0.01302981  1
  H+  H222  1  0.12568285  0.72401161  0.84244896  1
  H+  H223  1  0.08462011  0.15456543  0.43351354  1
  H+  H224  1  0.64782822  0.86494159  1.00001064  1
  H+  H225  1  0.32676723  0.17723788  0.76619530  1
  H+  H226  1  0.10414877  0.11888634  0.34234977  1
  H+  H227  1  0.63952235  0.27366427  0.50539646  1
  H+  H228  1  0.63297514  0.53277725  0.33378150  1
  H+  H229  1  0.38395469  0.87335789  0.49955663  1
  H+  H230  1  0.52282573  0.62617047  0.50738293  1
  H+  H231  1  0.13081388  0.85572093  0.33229452  1
  H+  H232  1  0.98934197  0.59923815  0.83384527  1
  H+  H233  1  0.35503871  0.13506355  0.01218790  1
  H+  H234  1  -0.01135315  0.37065927  0.65864523  1
  H+  H235  1  0.51711584  0.87864780  0.16138448  1
  H+  H236  1  0.62102844  0.39962415  0.82897676  1
  H+  H237  1  1.03827435  0.39818725  1.01665447  1
  H+  H238  1  0.62478791  0.14171709  0.50085950  1
  H+  H239  1  0.63631965  1.01947372  -0.00780127  1
  H+  H240  1  -0.01618567  0.18759956  0.70665907  1
  H+  H241  1  0.51921552  0.29883046  0.71563558  1
  H+  H242  1  0.09656298  0.70567011  0.50399601  1
  H+  H243  1  0.06628279  0.18186711  0.33983783  1
  H+  H244  1  0.38909013  0.87343822  0.32374819  1
  H+  H245  1  0.91073384  0.53456977  0.17779751  1
  H+  H246  1  0.66377936  0.08356208  0.93411558  1
  H+  H247  1  0.78123494  0.12988178  0.50074980  1
  H+  H248  1  0.37262124  0.77950719  0.49280666  1
  H+  H249  1  0.42509898  0.95255418  0.03130488  1
  H+  H250  1  0.22831015  0.85639477  1.00165406  1
  H+  H251  1  0.10957989  0.48296981  0.19377931  1
  H+  H252  1  0.87280236  0.55297588  0.55446918  1
  H+  H253  1  0.89796165  0.37097233  -0.00468662  1
  H+  H254  1  0.11448044  0.22333198  0.48849981  1
  H+  H255  1  0.52166195  0.89171404  0.48894600  1
  H+  H256  1  0.89205247  0.53149387  0.33689531  1
  H+  H257  1  0.09829844  0.24652862  0.13611879  1
  H+  H258  1  0.98503729  0.35642954  0.20102267  1
  H+  H259  1  0.36561740  0.89977854  0.65004190  1
  H+  H260  1  0.88551137  0.86712165  0.32028564  1
  H+  H261  1  0.37878471  0.75832956  0.17358283  1
  H+  H262  1  0.62989356  0.09348645  0.17662849  1
  H+  H263  1  0.91855381  0.83789052  0.25983643  1
  H+  H264  1  0.12059617  0.10320939  0.84375845  1
  H+  H265  1  0.14849597  1.01949599  0.65257147  1
  H+  H266  1  0.11755943  0.50125802  0.35566852  1
  H+  H267  1  0.23017089  0.87643583  0.63279620  1
  H+  H268  1  0.34890185  0.45944533  0.50157695  1
  H+  H269  1  0.26896779  0.15399960  0.82551755  1
  H+  H270  1  0.37269147  0.96886686  0.84214510  1
  H+  H271  1  0.38010336  0.84860211  0.17094941  1
  H+  H272  1  0.87786275  0.64842538  -0.00289562  1
  H+  H273  1  0.66403329  0.59551231  0.24108579  1
  H+  H274  1  0.49589536  0.12493966  0.51163996  1
  H+  H275  1  0.52038836  0.64745863  0.83180681  1
  H+  H276  1  0.64194956  0.88039872  0.35876521  1
  H+  H277  1  0.99320401  0.13532053  0.98281708  1
  H+  H278  1  0.13875710  0.78148446  0.17993432  1
  H+  H279  1  0.90273709  0.26138333  0.50542048  1
  H+  H280  1  0.21962300  0.36036138  0.66641422  1
  H+  H281  1  0.85384293  0.72982391  0.33423210  1
  H+  H282  1  0.76956887  0.13245770  0.16900328  1
  H+  H283  1  0.38264415  0.26664876  0.99315177  1
  H+  H284  1  0.36429917  0.71914357  0.83563856  1
  H+  H285  1  0.23229979  0.85648455  0.85538136  1
  H+  H286  1  0.37782784  1.02310641  -0.00388879  1
  H+  H287  1  0.27245292  0.87314363  0.16322212  1
  H+  H288  1  0.58586412  0.93084907  0.43286479  1
  H+  H289  1  0.77461601  0.89363527  0.48330389  1
  H+  H290  1  0.67118533  0.82071962  0.24992879  1
  H+  H291  1  0.66775888  0.59864312  0.89233173  1
  H+  H292  1  0.40050413  0.32589309  0.59700018  1
  H+  H293  1  0.92179319  0.57402497  0.88644983  1
  H+  H294  1  0.63690847  0.77697714  0.50825205  1
  H+  H295  1  0.64736682  0.32307126  0.17954099  1
  H+  H296  1  0.40298172  0.07019954  0.22304139  1
  H+  H297  1  0.64352199  0.84105697  0.24956394  1
  H+  H298  1  0.34495520  0.42728148  0.43464419  1
  H+  H299  1  0.64045730  0.31613500  0.28476664  1
  H+  H300  1  0.72512802  0.60978911  0.50439921  1
  H+  H301  1  0.05968588  0.71039796  0.10432359  1
  H+  H302  1  0.41456819  0.07485415  0.89779872  1
  H+  H303  1  0.58461679  0.91619596  0.06663394  1
  H+  H304  1  0.33420066  0.15420077  0.43649202  1
  H+  H305  1  0.98144372  0.87351634  0.99680188  1
  H+  H306  1  0.41656405  0.56118110  0.58623188  1
  H+  H307  1  0.57822925  0.66144672  0.44601247  1
  H+  H308  1  0.85301498  0.62985671  0.48742719  1
  H+  H309  1  0.08511890  0.16213557  0.06513315  1
  H+  H310  1  0.02119689  0.15539207  0.16021818  1
  H+  H311  1  0.90915937  0.32310401  0.24734131  1
  H+  H312  1  0.09833507  0.64058082  0.04196537  1
  H+  H313  1  0.13063571  0.63832447  0.84918003  1
  H+  H314  1  0.14275697  0.69306451  0.74915040  1
  H+  H315  1  0.63909395  1.02673615  0.50918610  1
  H+  H316  1  0.31872385  0.67915836  0.41161444  1
  H+  H317  1  0.11655110  0.47507966  0.84845624  1
  H+  H318  1  0.08991726  0.93618305  0.11095210  1
  H+  H319  1  0.41482776  0.58005665  0.89941276  1
  H+  H320  1  0.23589394  0.60262730  0.66143200  1
  H+  H321  1  0.56567739  0.15984278  0.76265518  1
  H+  H322  1  0.57446202  0.42559981  0.06210178  1
  H+  H323  1  0.33683376  0.67022488  0.73870447  1
  H+  H324  1  0.66844739  0.84132478  0.59954094  1
  H+  H325  1  0.61205438  0.21378162  0.01229957  1
  H+  H326  1  0.14573205  0.76403277  0.99481635  1
  H+  H327  1  0.18180374  0.83613411  0.24028340  1
  H+  H328  1  0.89047301  0.86862140  0.68439439  1
  H+  H329  1  0.83903466  0.17001418  0.77952037  1
  H+  H330  1  0.12169292  0.93199475  0.76274832  1
  H+  H331  1  0.58128310  0.66267437  0.06363194  1
  H+  H332  1  0.27747032  0.62523961  0.00001201  1
  H+  H333  1  0.34107508  0.93206401  0.40185766  1
  H+  H334  1  0.83368722  0.16590876  0.06696844  1
  H+  H335  1  0.66534977  0.08116271  0.24065943  1
  H+  H336  1  0.11160812  0.64267478  0.34709581  1
  H+  H337  1  0.16539353  0.83174118  0.90909598  1
  H+  H338  1  0.66133221  0.08117074  0.57053824  1
  H+  H339  1  0.33574512  0.89284111  0.79147345  1
  H+  H340  1  0.57629575  0.90811593  0.74703807  1
  H+  H341  1  0.42944096  0.05423022  0.66425436  1
  H+  H342  1  0.91127177  0.83817503  0.56210621  1
  H+  H343  1  0.42704173  0.81786712  0.90831998  1
  H+  H344  1  0.41376170  0.34402964  0.25835082  1
  H+  H345  1  0.38363649  0.60380183  0.66817479  1
  H+  H346  1  0.41723661  0.83940949  0.26416515  1
  H+  H347  1  0.18149840  0.08490967  0.58928347  1
  H+  H348  1  0.59140342  0.41670734  0.43582993  1
  H+  H349  1  0.04425112  0.15808985  0.77770252  1
  H+  H350  1  0.43654578  0.62404632  0.27334259  1
  H+  H351  1  0.44563140  0.10486247  0.57444430  1
  H+  H352  1  0.59383203  0.16846877  0.43976613  1
  H+  H353  1  0.16488069  0.08103578  0.93323795  1
  H+  H354  1  0.37083542  0.65815413  0.33458622  1
  H+  H355  1  0.83529709  0.40189148  0.76267463  1
  H+  H356  1  0.15830257  0.59466543  0.26764088  1
  H+  H357  1  0.57141759  0.13979802  0.10102254  1
  H+  H358  1  0.84140153  0.15211395  0.40359745  1
  H+  H359  1  0.91186782  0.84776676  0.89358812  1
  H+  H360  1  0.66353795  0.56481316  0.59996269  1
  H+  H361  1  0.87189987  0.99299623  0.82644670  1
  H+  H362  1  0.06873668  0.91399070  0.43437516  1
  H+  H363  1  0.84941856  0.93946316  0.38755465  1
  H+  H364  1  0.37924157  0.99800284  0.50108021  1
  H+  H365  1  0.11704199  0.40224192  0.17394167  1
  H+  H366  1  0.09180119  0.25374866  0.24585254  1
  H+  H367  1  0.15951958  0.82863664  0.58280247  1
  H+  H368  1  0.66527075  0.32927976  0.56618233  1
  H+  H369  1  0.95386528  0.05900283  0.59759628  1
  H+  H370  1  0.07328830  0.66126573  0.43811424  1
  H+  H371  1  0.36673461  0.74622025  0.33145242  1
  H+  H372  1  0.83566614  0.66382650  0.05615107  1
  H+  H373  1  0.32316920  0.92921857  0.70074438  1
  H+  H374  1  0.92257911  0.33719235  0.90398157  1
  H+  H375  1  0.32840344  0.64912736  0.06663700  1
  H+  H376  1  0.82527465  0.67308357  0.39600393  1
  H+  H377  1  0.08735970  0.42761191  0.74119774  1
  H+  H378  1  0.86201249  0.43460043  0.06395202  1
  H+  H379  1  0.40972196  0.83526396  0.58875774  1
  H+  H380  1  0.32469745  0.40076564  0.07409841  1
  H+  H381  1  0.59772534  0.09841831  0.65752182  1
  H+  H382  1  0.34556228  0.91032890  0.07535863  1
  H+  H383  1  0.38348272  0.51998981  0.84076910  1
  O2-  O384  1  0.08076308  0.18546104  0.14505535  1
  O2-  O385  1  0.09159834  0.16148710  0.47993937  1
  O2-  O386  1  0.05011161  0.14985130  0.82288514  1
  O2-  O387  1  0.09101232  0.42333237  0.20488974  1
  O2-  O388  1  0.08841463  0.34142601  0.45506842  1
  O2-  O389  1  0.08741542  0.42221367  0.82366069  1
  O2-  O390  1  0.06653012  0.68702904  0.14246060  1
  O2-  O391  1  0.06860888  0.64950180  0.48395033  1
  O2-  O392  1  0.10466695  0.66558381  0.82471471  1
  O2-  O393  1  0.08686114  0.93917836  0.15540288  1
  O2-  O394  1  0.07873326  0.92274325  0.47919469  1
  O2-  O395  1  0.12603966  0.93995766  0.80700959  1
  O2-  O396  1  0.32336669  0.17372169  0.14691594  1
  O2-  O397  1  0.33386401  0.15609664  0.48183921  1
  O2-  O398  1  0.32893920  0.18619866  0.81033132  1
  O2-  O399  1  0.31916824  0.40510482  0.12089781  1
  O2-  O400  1  0.31549445  0.40829300  0.47545118  1
  O2-  O401  1  0.33287089  0.42056703  0.82358695  1
  O2-  O402  1  0.33188842  0.65299790  0.14180111  1
  O2-  O403  1  0.30966902  0.67146440  0.45868441  1
  O2-  O404  1  0.32714871  0.65903051  0.82117163  1
  O2-  O405  1  0.33355488  0.90484643  0.14464833  1
  O2-  O406  1  0.34522169  0.93970837  0.48128482  1
  O2-  O407  1  0.33844418  0.90181995  0.83512000  1
  O2-  O408  1  0.56167821  0.12879202  0.14592147  1
  O2-  O409  1  0.59374022  0.17171173  0.48564505  1
  O2-  O410  1  0.57466031  0.16767555  0.80750236  1
  O2-  O411  1  0.56036556  0.43932225  0.14703644  1
  O2-  O412  1  0.60121607  0.41875824  0.48180397  1
  O2-  O413  1  0.58720577  0.42533249  0.81206639  1
  O2-  O414  1  0.58427827  0.67142203  0.14058814  1
  O2-  O415  1  0.58237735  0.65924894  0.49154636  1
  O2-  O416  1  0.58106549  0.68295900  0.81727670  1
  O2-  O417  1  0.57582720  0.91315486  0.14391712  1
  O2-  O418  1  0.58340417  0.92267498  0.47798091  1
  O2-  O419  1  0.58868956  0.92203987  0.81958116  1
  O2-  O420  1  0.83060825  0.16251495  0.15418696  1
  O2-  O421  1  0.84029120  0.15687500  0.48334679  1
  O2-  O422  1  0.82238797  0.16808190  0.82228743  1
  O2-  O423  1  0.91705560  0.44965964  0.13765061  1
  O2-  O424  1  0.84770186  0.39572109  0.48265882  1
  O2-  O425  1  0.83629401  0.40569991  0.80793298  1
  O2-  O426  1  0.79403511  0.60555956  0.12875710  1
  O2-  O427  1  0.82494272  0.66440353  0.47512449  1
  O2-  O428  1  0.82793266  0.69072623  0.80804915  1
  O2-  O429  1  0.84037861  0.92296319  0.13822923  1
  O2-  O430  1  0.83528339  0.92350975  0.46878531  1
  O2-  O431  1  0.83249093  0.93289619  0.81429646  1
  O2-  O432  1  0.17819189  0.10228631  0.19617318  1
  O2-  O433  1  0.17275750  0.08430144  0.52101386  1
  O2-  O434  1  0.16371927  0.08799177  0.85675890  1
  O2-  O435  1  0.14656171  0.35551628  0.12007598  1
  O2-  O436  1  0.14627605  0.33564492  0.49963198  1
  O2-  O437  1  0.15583943  0.32391725  0.85849248  1
  O2-  O438  1  0.15642307  0.60947263  0.18672896  1
  O2-  O439  1  0.14596963  0.56242884  0.48101045  1
  O2-  O440  1  0.17694234  0.58032304  0.89055754  1
  O2-  O441  1  0.18818956  0.83476901  0.19576619  1
  O2-  O442  1  0.16539681  0.84183406  0.49522427  1
  O2-  O443  1  0.16958478  0.82920063  0.86410168  1
  O2-  O444  1  0.39601765  0.07122907  0.17831478  1
  O2-  O445  1  0.43605196  0.09654086  0.52978404  1
  O2-  O446  1  0.41590880  0.06060457  0.85461436  1
  O2-  O447  1  0.40298465  0.33418870  0.17888017  1
  O2-  O448  1  0.39552511  0.32263011  0.52593576  1
  O2-  O449  1  0.42658503  0.34272218  0.85454818  1
  O2-  O450  1  0.43212988  0.61777415  0.19594066  1
  O2-  O451  1  0.41482601  0.56016371  0.53939456  1
  O2-  O452  1  0.41452872  0.58282043  0.85407053  1
  O2-  O453  1  0.40986508  0.81898112  0.18853438  1
  O2-  O454  1  0.40857490  0.83641450  0.51191057  1
  O2-  O455  1  0.42799891  0.82421314  0.86296593  1
  O2-  O456  1  0.66547078  0.07109231  0.19460374  1
  O2-  O457  1  0.67212180  0.08641377  0.52546846  1
  O2-  O458  1  0.66096872  0.09097815  0.85712224  1
  O2-  O459  1  0.60237559  0.28034059  0.20610590  1
  O2-  O460  1  0.66871892  0.33493421  0.52053684  1
  O2-  O461  1  0.67541204  0.34642625  0.85019238  1
  O2-  O462  1  0.66409402  0.59583719  0.19527470  1
  O2-  O463  1  0.66468221  0.57277708  0.51964692  1
  O2-  O464  1  0.66152841  0.59827488  0.84636621  1
  O2-  O465  1  0.67764126  0.84295031  0.12961804  1
  O2-  O466  1  0.66831375  0.83859887  0.51987126  1
  O2-  O467  1  0.67211960  0.84397424  0.86256495  1
  O2-  O468  1  0.91172887  0.08706500  0.19633360  1
  O2-  O469  1  0.92784540  0.08005953  0.52400626  1
  O2-  O470  1  0.95935348  0.10627039  0.84121321  1
  O2-  O471  1  0.92019346  0.32520475  0.20269103  1
  O2-  O472  1  0.94335407  0.32293892  0.51643734  1
  O2-  O473  1  0.92358292  0.33471643  0.85850444  1
  O2-  O474  1  0.92067571  0.59160844  0.19065138  1
  O2-  O475  1  0.88927084  0.56580293  0.50962863  1
  O2-  O476  1  0.92703919  0.56566475  0.84266576  1
  O2-  O477  1  0.92883348  0.84592780  0.19296008  1
  O2-  O478  1  0.91384979  0.83516203  0.51795698  1
  O2-  O479  1  0.90574364  0.84857964  0.84922094  1
  O2-  O480  1  0.16751133  0.08414569  0.30690811  1
  O2-  O481  1  0.18565040  0.08209669  0.63634910  1
  O2-  O482  1  0.16336025  0.07672057  0.97886397  1
  O2-  O483  1  0.06693046  0.25949442  0.28376821  1
  O2-  O484  1  0.14989830  0.33213806  0.65897270  1
  O2-  O485  1  0.17239384  0.32547415  0.97994193  1
  O2-  O486  1  0.16517100  0.59293716  0.31239506  1
  O2-  O487  1  0.17453079  0.57867053  0.65117809  1
  O2-  O488  1  0.18193086  0.58517827  0.95843741  1
  O2-  O489  1  0.17187958  0.83594053  0.32176628  1
  O2-  O490  1  0.16717204  0.84002460  0.62660012  1
  O2-  O491  1  0.16814329  0.82730728  0.98920591  1
  O2-  O492  1  0.44406571  0.06235819  0.29558952  1
  O2-  O493  1  0.45860095  0.11638027  0.65499895  1
  O2-  O494  1  0.40767329  0.08309181  0.98164419  1
  O2-  O495  1  0.42194034  0.34555088  0.30339456  1
  O2-  O496  1  0.39776378  0.32392257  0.64365545  1
  O2-  O497  1  0.41703898  0.32609285  0.97657497  1
  O2-  O498  1  0.43013051  0.61948839  0.31866293  1
  O2-  O499  1  0.41097366  0.56956850  0.65641774  1
  O2-  O500  1  0.41520385  0.57072886  0.97742721  1
  O2-  O501  1  0.42296218  0.84672437  0.30963464  1
  O2-  O502  1  0.40872600  0.84014702  0.63432197  1
  O2-  O503  1  0.42093849  0.81139199  0.98460559  1
  O2-  O504  1  0.67617965  0.11202183  0.31027671  1
  O2-  O505  1  0.63425397  0.07302479  0.64481738  1
  O2-  O506  1  0.66425252  0.08122066  0.97996596  1
  O2-  O507  1  0.65387795  0.32944908  0.32816932  1
  O2-  O508  1  0.65580379  0.30990600  0.64196339  1
  O2-  O509  1  0.69080771  0.35633614  0.98264064  1
  O2-  O510  1  0.66025258  0.59224340  0.31780533  1
  O2-  O511  1  0.66538430  0.56537195  0.64503774  1
  O2-  O512  1  0.67954099  0.60332584  0.96445996  1
  O2-  O513  1  0.66859962  0.84560151  0.36952949  1
  O2-  O514  1  0.67057247  0.83960488  0.64497444  1
  O2-  O515  1  0.67827406  0.83511016  0.98442377  1
  O2-  O516  1  0.89696787  0.07063667  0.26200600  1
  O2-  O517  1  0.97270877  0.04667561  0.63702869  1
  O2-  O518  1  0.94173778  0.11824940  0.95692648  1
  O2-  O519  1  0.90593260  0.32150483  0.32718297  1
  O2-  O520  1  0.93055185  0.33188594  0.64109982  1
  O2-  O521  1  0.92700085  0.33888741  0.98204453  1
  O2-  O522  1  0.92505142  0.59193619  0.35232409  1
  O2-  O523  1  0.83453778  0.52921295  0.62031660  1
  O2-  O524  1  0.92783775  0.59444811  0.97114186  1
  O2-  O525  1  0.91063486  0.83118563  0.30721865  1
  O2-  O526  1  0.92616699  0.83944094  0.68710123  1
  O2-  O527  1  0.92004039  0.84420057  0.98188590  1
  O2-  O528  1  0.08704444  0.16220515  0.02010426  1
  O2-  O529  1  0.06568471  0.13552417  0.36415797  1
  O2-  O530  1  0.03663627  0.18228969  0.70612700  1
  O2-  O531  1  0.09363872  0.43725907  0.03657167  1
  O2-  O532  1  0.08558300  0.46557691  0.39182476  1
  O2-  O533  1  0.08860213  0.42543159  0.69595198  1
  O2-  O534  1  0.10185825  0.65643207  -0.00077233  1
  O2-  O535  1  0.08526435  0.67441310  0.36603550  1
  O2-  O536  1  0.17207404  0.70975209  0.70893114  1
  O2-  O537  1  0.08103366  0.91714630  0.02428592  1
  O2-  O538  1  0.04024884  0.85317144  0.36799163  1
  O2-  O539  1  0.09941972  0.93017751  0.67715973  1
  O2-  O540  1  0.32399364  0.16547700  0.02433811  1
  O2-  O541  1  0.32282753  0.15957531  0.35575070  1
  O2-  O542  1  0.33565018  0.16625991  0.68042165  1
  O2-  O543  1  0.33076163  0.40396914  0.00562228  1
  O2-  O544  1  0.40786912  0.46900609  0.37430615  1
  O2-  O545  1  0.30462948  0.39867014  0.67563875  1
  O2-  O546  1  0.33479879  0.65157691  0.02051169  1
  O2-  O547  1  0.33292830  0.68403000  0.34453679  1
  O2-  O548  1  0.34401973  0.66969529  0.69364368  1
  O2-  O549  1  0.36248238  0.91945963  0.02988809  1
  O2-  O550  1  0.33663472  0.92403759  0.35683445  1
  O2-  O551  1  0.33958219  0.93751892  0.65806233  1
  O2-  O552  1  0.57863419  0.15300190  0.02435547  1
  O2-  O553  1  0.59360555  0.16966514  0.36589290  1
  O2-  O554  1  0.54715716  0.15068345  0.68131492  1
  O2-  O555  1  0.57833534  0.40241471  0.02269915  1
  O2-  O556  1  0.58290910  0.42156062  0.36364335  1
  O2-  O557  1  0.55003122  0.35901749  0.70324698  1
  O2-  O558  1  0.58009600  0.66272968  0.01812153  1
  O2-  O559  1  0.58313003  0.67881526  0.37027591  1
  O2-  O560  1  0.56488567  0.67032764  0.69377790  1
  O2-  O561  1  0.58816994  0.91480981  0.02116551  1
  O2-  O562  1  0.59183133  0.94421100  0.35494272  1
  O2-  O563  1  0.56106476  0.88907126  0.70268025  1
  O2-  O564  1  0.83557888  0.17144133  0.02218749  1
  O2-  O565  1  0.84161867  0.15595686  0.35822110  1
  O2-  O566  1  0.88686566  0.18617630  0.69940199  1
  O2-  O567  1  0.85408457  0.43412364  0.01945237  1
  O2-  O568  1  0.83399304  0.42790885  0.31301173  1
  O2-  O569  1  0.82446067  0.39133135  0.68287120  1
  O2-  O570  1  0.84748015  0.67864251  0.01262420  1
  O2-  O571  1  0.82431495  0.66967190  0.35070859  1
  O2-  O572  1  0.82529601  0.65437425  0.68426550  1
  O2-  O573  1  0.83675922  0.90993176  0.02251770  1
  O2-  O574  1  0.84112670  0.92778801  0.34312822  1
  O2-  O575  1  0.83288681  0.91561790  0.69274566  1
