# generated using pymatgen
data_H2O
_symmetry_space_group_name_H-M   'P 1'
_cell_length_a   17.99070789
_cell_length_b   17.98909274
_cell_length_c   22.00427843
_cell_angle_alpha   89.98467154
_cell_angle_beta   89.98799924
_cell_angle_gamma   119.99380780
_symmetry_Int_Tables_number   1
_chemical_formula_structural   H2O
_chemical_formula_sum   'H384 O192'
_cell_volume   6167.68694171
_cell_formula_units_Z   192
loop_
 _symmetry_equiv_pos_site_id
 _symmetry_equiv_pos_as_xyz
  1  'x, y, z'
loop_
 _atom_type_symbol
 _atom_type_oxidation_number
  H+  1.0
  O2-  -2.0
loop_
 _atom_site_type_symbol
 _atom_site_label
 _atom_site_symmetry_multiplicity
 _atom_site_fract_x
 _atom_site_fract_y
 _atom_site_fract_z
 _atom_site_occupancy
  H+  H0  1  0.60409526  0.72908992  0.67261960  1
  H+  H1  1  0.61853999  0.46826109  0.02902947  1
  H+  H2  1  0.61616248  0.47276367  0.33973203  1
  H+  H3  1  0.73060913  0.36569274  0.50878809  1
  H+  H4  1  0.62757055  0.49725009  0.51181068  1
  H+  H5  1  0.63010808  0.11233854  -0.01621425  1
  H+  H6  1  0.61698698  0.97692938  0.82920784  1
  H+  H7  1  0.36533649  0.97061441  0.47073184  1
  H+  H8  1  0.59143587  0.12650223  0.34372974  1
  H+  H9  1  0.92581285  0.73665975  0.17949394  1
  H+  H10  1  0.36712073  0.63886943  0.00534933  1
  H+  H11  1  0.37900021  0.65292015  0.16693850  1
  H+  H12  1  0.60955629  0.64952150  0.01149510  1
  H+  H13  1  0.71222585  0.11652182  0.31083043  1
  H+  H14  1  0.35465432  0.23719478  0.35001547  1
  H+  H15  1  0.13707760  0.77849377  -0.00961299  1
  H+  H16  1  0.89626921  0.01763402  0.31809971  1
  H+  H17  1  0.09606051  0.23524068  0.01926593  1
  H+  H18  1  0.61780671  0.48350960  0.68274909  1
  H+  H19  1  0.66768012  0.78627469  0.17610440  1
  H+  H20  1  0.97890195  0.85854902  0.68098311  1
  H+  H21  1  0.14139909  0.37561619  -0.00667697  1
  H+  H22  1  0.91664263  0.63759261  0.99413888  1
  H+  H23  1  0.38925787  0.77982780  0.16537523  1
  H+  H24  1  0.42048249  0.83702140  0.93256804  1
  H+  H25  1  1.00621419  0.38929114  0.33956102  1
  H+  H26  1  0.64065658  0.78703957  1.00054104  1
  H+  H27  1  0.11851253  0.37924059  0.18904316  1
  H+  H28  1  0.87447314  0.22830498  0.82589960  1
  H+  H29  1  0.60066919  0.76301578  0.51477609  1
  H+  H30  1  0.68761173  0.34798233  0.93618211  1
  H+  H31  1  0.89252964  0.70967507  0.39069787  1
  H+  H32  1  0.62302924  0.23190032  0.52547314  1
  H+  H33  1  0.51492517  0.89531194  0.15382326  1
  H+  H34  1  0.16602618  0.83373163  0.21721109  1
  H+  H35  1  0.72168296  0.10856310  0.15717957  1
  H+  H36  1  0.90569395  0.92367442  0.26919192  1
  H+  H37  1  0.89439978  0.01203395  0.18155785  1
  H+  H38  1  0.08712758  0.66407626  0.06479012  1
  H+  H39  1  0.90089591  0.38478635  0.97738924  1
  H+  H40  1  0.14617264  0.62896357  0.67363753  1
  H+  H41  1  0.37912003  0.88284175  0.99680346  1
  H+  H42  1  0.15282669  0.37009938  0.66359972  1
  H+  H43  1  0.84509112  0.42430609  0.72945042  1
  H+  H44  1  0.78914384  0.39582001  0.82356234  1
  H+  H45  1  0.13307051  0.52780092  0.84242525  1
  H+  H46  1  0.03296714  0.15906298  0.51551107  1
  H+  H47  1  0.42595715  0.34401552  0.60672328  1
  H+  H48  1  0.36136729  0.00704435  0.83468417  1
  H+  H49  1  0.84021935  0.11703338  0.45881384  1
  H+  H50  1  0.81412682  0.14919916  0.39559491  1
  H+  H51  1  -0.00875854  0.37970938  -0.02570899  1
  H+  H52  1  0.48050018  0.10565865  0.66982988  1
  H+  H53  1  0.36069385  0.27307021  0.18255143  1
  H+  H54  1  0.49802456  0.37406849  0.16832643  1
  H+  H55  1  0.68109867  0.08253079  0.59762695  1
  H+  H56  1  0.53813336  0.14052099  0.51682397  1
  H+  H57  1  0.40974303  0.42604408  0.16309104  1
  H+  H58  1  0.52646517  0.63492788  0.49476615  1
  H+  H59  1  0.11883159  0.97573625  0.67962398  1
  H+  H60  1  0.50957886  0.39736813  0.51913957  1
  H+  H61  1  0.87510801  0.78031140  0.16134000  1
  H+  H62  1  0.22555270  0.36505111  0.99137358  1
  H+  H63  1  0.89336009  0.11768046  0.83194728  1
  H+  H64  1  0.37947746  0.40212035  0.49343231  1
  H+  H65  1  0.77023762  0.12824871  0.67540796  1
  H+  H66  1  0.16248033  0.06761707  0.94418596  1
  H+  H67  1  0.72889574  0.87795069  1.00354129  1
  H+  H68  1  0.11020396  0.13560797  0.83642201  1
  H+  H69  1  0.86093489  0.72941856  0.82970404  1
  H+  H70  1  0.47371843  0.62150619  0.83833234  1
  H+  H71  1  0.36076042  0.24954171  0.97390276  1
  H+  H72  1  0.12318694  0.10033329  0.51374170  1
  H+  H73  1  0.36389889  0.22664605  0.67102274  1
  H+  H74  1  0.36571978  -0.02609166  0.68144594  1
  H+  H75  1  0.89204747  0.12058090  0.68350182  1
  H+  H76  1  0.11160592  0.09863480  0.18061804  1
  H+  H77  1  0.87457943  0.88104765  -0.00710885  1
  H+  H78  1  0.63823097  0.73268715  0.34625939  1
  H+  H79  1  0.44203287  0.09784148  0.82014039  1
  H+  H80  1  0.13582282  0.85558073  0.51030828  1
  H+  H81  1  0.14264867  0.63444492  0.32565307  1
  H+  H82  1  0.57900509  0.40433063  0.89975716  1
  H+  H83  1  0.15438474  0.50363034  0.31973861  1
  H+  H84  1  0.11919469  0.88677358  0.68020922  1
  H+  H85  1  0.87195815  0.98446966  0.67933255  1
  H+  H86  1  0.01873252  0.12262423  0.35328796  1
  H+  H87  1  0.67223541  0.59541828  0.57737949  1
  H+  H88  1  0.37504980  0.86057040  0.66746938  1
  H+  H89  1  0.27467149  0.88611055  0.48314902  1
  H+  H90  1  0.64116876  0.36479124  0.66694028  1
  H+  H91  1  0.34771131  0.62843654  0.80770951  1
  H+  H92  1  0.10028979  0.22141344  0.17743666  1
  H+  H93  1  0.90614090  1.00869014  0.49742475  1
  H+  H94  1  0.78035198  0.90190067  0.67075058  1
  H+  H95  1  0.86733024  0.82242056  0.50573650  1
  H+  H96  1  0.27506663  0.39246164  0.82793959  1
  H+  H97  1  0.21578838  0.11496300  0.84008309  1
  H+  H98  1  0.64110244  0.61871937  0.67336455  1
  H+  H99  1  0.07294264  0.17653987  0.10891626  1
  H+  H100  1  0.13916884  0.11296662  0.66675945  1
  H+  H101  1  0.97957209  0.77975361  1.03085500  1
  H+  H102  1  0.38926154  0.77552931  0.99438649  1
  H+  H103  1  0.02813782  0.63450976  0.15998218  1
  H+  H104  1  0.59840186  0.21689334  0.35570487  1
  H+  H105  1  0.71427400  0.39979954  0.13864032  1
  H+  H106  1  0.86941945  0.35657436  0.65111009  1
  H+  H107  1  0.88991670  1.02010090  0.83116875  1
  H+  H108  1  0.06432408  0.42165916  0.68124851  1
  H+  H109  1  0.86775238  0.89434492  0.82638354  1
  H+  H110  1  0.88495761  0.62989718  0.47248801  1
  H+  H111  1  0.23787660  0.36551816  0.66319501  1
  H+  H112  1  0.18600845  0.58207731  0.56931774  1
  H+  H113  1  0.13620268  0.99988826  -0.00117212  1
  H+  H114  1  0.61597638  0.89185796  0.00948728  1
  H+  H115  1  0.66026831  0.87272258  0.32600559  1
  H+  H116  1  0.12793099  0.23146843  0.50259389  1
  H+  H117  1  0.86739383  0.72284295  0.68229399  1
  H+  H118  1  0.60346752  0.99602857  0.48607758  1
  H+  H119  1  0.85322718  0.22170659  0.67496825  1
  H+  H120  1  0.73013247  0.61622437  0.67251636  1
  H+  H121  1  0.51630832  0.64101641  0.67268853  1
  H+  H122  1  0.88822662  0.49318737  0.99624668  1
  H+  H123  1  -0.01371210  0.60168869  0.50679899  1
  H+  H124  1  0.75293091  0.87608335  0.31997706  1
  H+  H125  1  0.55082506  0.64324972  0.34648522  1
  H+  H126  1  -0.03719978  0.61293206  0.32623458  1
  H+  H127  1  0.13005684  0.85749740  0.15465940  1
  H+  H128  1  0.47034564  0.85394033  0.52264522  1
  H+  H129  1  0.22450532  0.86333751  0.31342019  1
  H+  H130  1  0.23462159  0.61861843  0.99527978  1
  H+  H131  1  0.39078261  0.52101700  0.50361791  1
  H+  H132  1  0.87922256  0.59043805  0.16997577  1
  H+  H133  1  0.11564516  0.64490061  0.83242052  1
  H+  H134  1  0.12601298  0.23414414  0.68169452  1
  H+  H135  1  0.38774972  0.30474757  0.91075663  1
  H+  H136  1  0.46593874  0.36140206  0.32751049  1
  H+  H137  1  0.14527493  0.62103925  0.99510329  1
  H+  H138  1  0.52958793  0.88834941  0.32878058  1
  H+  H139  1  0.38202369  0.86546824  0.16218962  1
  H+  H140  1  0.58628963  0.24129508  0.19134119  1
  H+  H141  1  0.97228659  0.86732879  0.83989086  1
  H+  H142  1  0.25469451  0.37051044  0.13788733  1
  H+  H143  1  0.25988573  0.62811989  0.81333552  1
  H+  H144  1  0.89308006  0.47610078  0.15306320  1
  H+  H145  1  0.13616352  0.27669616  0.84424563  1
  H+  H146  1  0.52468318  0.65327370  1.01208632  1
  H+  H147  1  0.64601281  0.12159945  0.51976827  1
  H+  H148  1  0.71482817  0.37255956  0.16460905  1
  H+  H149  1  0.69580163  0.94868868  0.62908050  1
  H+  H150  1  0.26854092  0.14201481  0.34928286  1
  H+  H151  1  0.86198416  0.21248310  0.14723083  1
  H+  H152  1  0.16328747  0.35101208  0.36936472  1
  H+  H153  1  0.47824003  0.36530339  0.66864668  1
  H+  H154  1  0.38601830  0.86702141  0.84862199  1
  H+  H155  1  0.33870557  0.18251447  0.51052736  1
  H+  H156  1  0.03238870  0.63708561  0.00258926  1
  H+  H157  1  0.64627917  0.10471097  0.65729690  1
  H+  H158  1  0.08603284  0.95042875  0.34143282  1
  H+  H159  1  0.12994605  0.38831157  0.49260424  1
  H+  H160  1  0.59779778  0.84951276  0.50552685  1
  H+  H161  1  0.39127812  0.52586813  0.98603642  1
  H+  H162  1  0.11896069  0.39274186  0.83154378  1
  H+  H163  1  0.87897544  0.02020048  0.47758800  1
  H+  H164  1  0.62065174  0.22333943  0.67535606  1
  H+  H165  1  0.12808552  0.09862095  0.34193957  1
  H+  H166  1  0.87019707  0.48151306  0.66870201  1
  H+  H167  1  0.36828193  0.48182239  0.67179341  1
  H+  H168  1  0.98736545  0.37028590  0.82978767  1
  H+  H169  1  0.86734737  0.24899984  0.31527060  1
  H+  H170  1  0.52385730  0.88836875  0.00658504  1
  H+  H171  1  0.11043624  0.24950429  0.35723462  1
  H+  H172  1  0.89006188  0.85831371  0.67742640  1
  H+  H173  1  0.75658398  0.65523508  0.19466112  1
  H+  H174  1  0.66093090  0.28020630  0.83927993  1
  H+  H175  1  0.13492583  0.86200741  0.31566824  1
  H+  H176  1  0.47713076  0.87005472  0.84740934  1
  H+  H177  1  -0.10611312  0.11071553  0.32263843  1
  H+  H178  1  0.38131122  0.01501300  0.20816271  1
  H+  H179  1  0.51425392  0.12523329  -0.00249870  1
  H+  H180  1  0.90599603  0.35203440  0.16094297  1
  H+  H181  1  0.71022545  0.34576568  0.33246977  1
  H+  H182  1  0.61281977  0.88627649  0.83474218  1
  H+  H183  1  1.08402502  0.92005762  0.77476226  1
  H+  H184  1  0.11920652  0.85817529  0.99020903  1
  H+  H185  1  0.63876642  0.02877179  0.98720701  1
  H+  H186  1  0.37263603  0.60272156  0.64986790  1
  H+  H187  1  0.33644589  0.96917870  0.13172432  1
  H+  H188  1  0.68776471  0.61681797  0.35676462  1
  H+  H189  1  0.87305496  0.60449137  0.31931620  1
  H+  H190  1  -0.01595664  0.11355733  0.17712652  1
  H+  H191  1  0.85384730  0.99444399  0.02532861  1
  H+  H192  1  0.96293696  0.83947862  0.50911929  1
  H+  H193  1  0.86579556  0.46160746  0.49112564  1
  H+  H194  1  0.35102454  0.36758753  -0.02141522  1
  H+  H195  1  0.98026401  0.62285774  0.83661414  1
  H+  H196  1  0.10983210  0.89232839  0.83651011  1
  H+  H197  1  0.11565674  0.72538412  0.15571801  1
  H+  H198  1  0.26517992  0.11472086  0.00705438  1
  H+  H199  1  1.01807774  0.89458721  1.00126852  1
  H+  H200  1  0.60034190  0.12587972  0.15237832  1
  H+  H201  1  0.72615273  0.11256180  0.49256376  1
  H+  H202  1  0.54615115  0.66765324  0.17296430  1
  H+  H203  1  0.41293477  0.53090103  0.33724591  1
  H+  H204  1  0.32433998  0.91063661  0.38639573  1
  H+  H205  1  0.63405234  0.61799727  0.84042437  1
  H+  H206  1  0.16628225  0.64556434  0.35530387  1
  H+  H207  1  0.77686105  0.07030493  0.34017595  1
  H+  H208  1  0.36684685  0.72139717  0.33943764  1
  H+  H209  1  0.14212060  0.77076577  0.66090096  1
  H+  H210  1  0.13329694  0.78257863  0.84382944  1
  H+  H211  1  0.28495325  0.64299547  0.16013742  1
  H+  H212  1  0.14791752  0.52576256  0.16962933  1
  H+  H213  1  0.73113349  0.36746476  0.66505706  1
  H+  H214  1  0.12587627  0.63464360  0.49525952  1
  H+  H215  1  -0.01252540  0.34207439  0.16908129  1
  H+  H216  1  0.47462827  0.10628144  0.43321240  1
  H+  H217  1  0.00107311  0.15409251  0.02819402  1
  H+  H218  1  0.37935101  0.27066416  0.81804052  1
  H+  H219  1  0.94606227  0.21644879  0.54493360  1
  H+  H220  1  0.12822497  0.02509310  0.84383333  1
  H+  H221  1  0.41302196  0.09611888  0.24660646  1
  H+  H222  1  0.94865567  0.34744602  0.63124262  1
  H+  H223  1  0.86127585  0.12881200  0.03626187  1
  H+  H224  1  0.88826271  0.61830216  0.83859616  1
  H+  H225  1  0.85286003  0.46006365  0.33427210  1
  H+  H226  1  0.28090631  0.63329780  0.49546436  1
  H+  H227  1  0.63861865  0.13942138  0.83166854  1
  H+  H228  1  0.67137853  0.08228109  0.89976228  1
  H+  H229  1  0.56260403  0.15355675  0.85106741  1
  H+  H230  1  0.10576734  0.95421200  0.14713420  1
  H+  H231  1  0.25868756  0.12328037  0.16067741  1
  H+  H232  1  0.26095038  0.88197414  0.83354411  1
  H+  H233  1  0.38865922  0.86595915  0.32063167  1
  H+  H234  1  0.87695148  0.48629328  0.82384749  1
  H+  H235  1  0.09804111  0.95859102  0.49750120  1
  H+  H236  1  0.61567010  0.73265878  0.83113619  1
  H+  H237  1  0.61285019  0.99026675  0.15432010  1
  H+  H238  1  0.50889924  0.11921025  0.15808960  1
  H+  H239  1  0.62814392  1.02567542  0.31085902  1
  H+  H240  1  -0.01815350  0.61888202  0.65331668  1
  H+  H241  1  0.73704557  0.11018796  0.84159140  1
  H+  H242  1  0.47143407  0.12248269  0.33509821  1
  H+  H243  1  -0.00992625  0.11799985  0.83381412  1
  H+  H244  1  0.91779495  0.57569884  0.55972900  1
  H+  H245  1  0.46058834  0.84328924  0.67489986  1
  H+  H246  1  0.89206002  0.61695707  0.66101852  1
  H+  H247  1  0.14725805  0.52056226  0.51040615  1
  H+  H248  1  0.14375929  0.77091947  0.51186479  1
  H+  H249  1  0.61951586  0.38394650  0.01583957  1
  H+  H250  1  0.27402767  0.88519189  0.67667158  1
  H+  H251  1  0.41418133  0.62118568  0.33802686  1
  H+  H252  1  0.37054986  0.39334262  0.67643342  1
  H+  H253  1  0.32208734  0.90672628  0.77344930  1
  H+  H254  1  0.56666820  0.52449277  -0.02406302  1
  H+  H255  1  0.87640937  0.71349648  0.48281115  1
  H+  H256  1  0.25440944  0.87582971  0.14422833  1
  H+  H257  1  0.30362984  0.41999669  0.34524828  1
  H+  H258  1  0.85072154  0.37022302  0.33104170  1
  H+  H259  1  0.89689849  0.37109304  0.82835046  1
  H+  H260  1  0.27455539  0.13633098  0.66788740  1
  H+  H261  1  0.29275478  0.62106913  0.33765996  1
  H+  H262  1  0.59916097  0.37826385  0.34325350  1
  H+  H263  1  0.20522067  0.08805335  0.50895894  1
  H+  H264  1  0.73110669  0.86980594  0.84480109  1
  H+  H265  1  0.85569563  0.72174974  0.32860771  1
  H+  H266  1  0.88760160  0.24569904  0.48240196  1
  H+  H267  1  0.65050351  0.36360623  0.84390452  1
  H+  H268  1  0.34874642  0.13056306  0.16792694  1
  H+  H269  1  0.36906799  -0.02185674  0.99269739  1
  H+  H270  1  0.56169830  0.39011232  0.11316904  1
  H+  H271  1  0.34258480  0.13035619  0.82108940  1
  H+  H272  1  0.06820018  0.42481979  0.39662654  1
  H+  H273  1  0.59024003  0.87032150  0.68070712  1
  H+  H274  1  0.74666434  0.38062616  -0.00623229  1
  H+  H275  1  0.77281010  0.63978637  0.83293191  1
  H+  H276  1  0.38516174  0.36405075  0.82409200  1
  H+  H277  1  0.38389250  0.37378547  0.33743758  1
  H+  H278  1  0.11986387  0.49538909  -0.00203416  1
  H+  H279  1  0.67633993  0.34472690  0.57104385  1
  H+  H280  1  0.41833865  0.58146634  0.59597250  1
  H+  H281  1  0.01609616  0.71812903  0.38016457  1
  H+  H282  1  0.16940285  0.83010213  0.60195209  1
  H+  H283  1  0.25193142  0.33429123  0.11897540  1
  H+  H284  1  0.79325130  0.88909678  0.45329833  1
  H+  H285  1  0.63381080  0.52847801  0.84915160  1
  H+  H286  1  0.37398523  0.09999249  0.99060874  1
  H+  H287  1  0.43265238  0.56299485  0.18246748  1
  H+  H288  1  0.90637540  0.31053000  0.25883174  1
  H+  H289  1  0.59318880  0.67207134  0.43833862  1
  H+  H290  1  0.58614620  0.92829102  0.38731658  1
  H+  H291  1  0.51071829  0.95066314  0.45598110  1
  H+  H292  1  0.38800353  0.76006201  0.51912336  1
  H+  H293  1  0.83550991  0.65779044  0.73744481  1
  H+  H294  1  0.15467758  0.07269338  0.27992943  1
  H+  H295  1  0.39269699  0.10767478  0.66824505  1
  H+  H296  1  0.15693103  0.07486557  0.60557053  1
  H+  H297  1  0.06446279  0.43065105  0.05175440  1
  H+  H298  1  0.89979910  0.30874949  0.53771996  1
  H+  H299  1  0.34196147  0.67043286  0.06639859  1
  H+  H300  1  0.39294667  0.61179210  0.50587618  1
  H+  H301  1  0.83605481  0.92528631  0.07667984  1
  H+  H302  1  0.03466033  0.14734038  0.68857229  1
  H+  H303  1  0.34902705  0.42804018  0.42861530  1
  H+  H304  1  0.90121588  0.72051622  0.07374392  1
  H+  H305  1  0.57304007  0.32225087  0.19684177  1
  H+  H306  1  0.41870584  0.59139907  0.93072813  1
  H+  H307  1  0.55757459  0.88786917  0.74518986  1
  H+  H308  1  0.31940988  0.16081789  0.75922187  1
  H+  H309  1  0.28893120  0.63198651  0.71304055  1
  H+  H310  1  0.42018360  0.31033566  0.50657644  1
  H+  H311  1  0.07376624  0.89642824  0.08404051  1
  H+  H312  1  0.41740918  0.83548427  0.26241283  1
  H+  H313  1  0.33314314  0.42516813  0.76742082  1
  H+  H314  1  0.66314486  0.08297226  0.21987240  1
  H+  H315  1  0.83429677  0.92313709  0.76727372  1
  H+  H316  1  0.10459441  0.43167321  0.77000915  1
  H+  H317  1  0.90660274  0.84223144  0.89601123  1
  H+  H318  1  0.69563417  0.84148878  0.23871424  1
  H+  H319  1  0.65568762  0.85897939  0.59559620  1
  H+  H320  1  0.70628931  0.60191585  0.29037464  1
  H+  H321  1  0.05932907  0.58699879  0.70825916  1
  H+  H322  1  0.58867431  0.42059726  0.73951502  1
  H+  H323  1  0.78467686  0.88541282  0.17737937  1
  H+  H324  1  0.16953787  0.59074076  0.89996573  1
  H+  H325  1  0.91177247  0.57260723  0.23269384  1
  H+  H326  1  0.33275279  0.15955620  0.06149924  1
  H+  H327  1  0.07224183  0.14845409  0.41768037  1
  H+  H328  1  0.19846336  0.56255679  0.26246337  1
  H+  H329  1  0.88169794  0.10329396  0.96887095  1
  H+  H330  1  0.92729793  0.34685904  0.91087359  1
  H+  H331  1  0.66508735  0.64621432  0.19571634  1
  H+  H332  1  0.18536225  0.33859011  0.56650762  1
  H+  H333  1  0.64703423  0.58394600  0.93652064  1
  H+  H334  1  0.34241924  0.66733580  0.43662185  1
  H+  H335  1  0.59598621  0.68457435  0.10972353  1
  H+  H336  1  0.73686510  0.78938314  0.45458142  1
  H+  H337  1  0.16151788  0.83940460  0.90592514  1
  H+  H338  1  0.08928540  0.17133442  0.77441202  1
  H+  H339  1  0.32933730  0.90918646  0.05303793  1
  H+  H340  1  0.87215035  0.43005605  0.05354558  1
  H+  H341  1  0.03692829  0.37631075  0.49244351  1
  H+  H342  1  0.40230326  0.10823353  0.47399566  1
  H+  H343  1  0.09932647  0.68065768  0.77150018  1
  H+  H344  1  0.93921534  0.11608512  0.62618988  1
  H+  H345  1  0.06361986  0.00837893  0.21093708  1
  H+  H346  1  0.16118645  0.50516810  0.67550471  1
  H+  H347  1  0.88880206  0.79946468  0.99250717  1
  H+  H348  1  0.44156169  0.60931124  0.24618935  1
  H+  H349  1  0.59776812  0.16673464  0.73497463  1
  H+  H350  1  0.51777584  0.37985636  0.84369477  1
  H+  H351  1  0.81161819  0.38798466  0.13904930  1
  H+  H352  1  0.64456603  0.62427809  0.51715204  1
  H+  H353  1  0.24468172  0.36745275  0.50559939  1
  H+  H354  1  0.67377565  0.84115294  0.90541925  1
  H+  H355  1  0.07481059  0.89943386  0.43793937  1
  H+  H356  1  0.58235669  0.67534177  0.77059710  1
  H+  H357  1  0.16610557  0.33711206  0.90262668  1
  H+  H358  1  0.39131527  0.33004100  0.24407135  1
  H+  H359  1  0.62929578  0.30407030  0.28472807  1
  H+  H360  1  0.38328217  0.12774722  0.33636343  1
  H+  H361  1  0.92774509  0.08273447  0.24283880  1
  H+  H362  1  0.82716627  0.39967970  0.43479865  1
  H+  H363  1  0.62275087  0.40351932  0.50860355  1
  H+  H364  1  0.92512548  0.59671035  0.93013931  1
  H+  H365  1  0.57915898  0.92296725  0.09055340  1
  H+  H366  1  0.40583773  0.82115868  0.60555976  1
  H+  H367  1  0.12407942  0.39723902  0.12007243  1
  H+  H368  1  0.14362326  0.61284100  0.16986262  1
  H+  H369  1  0.13647653  0.31558911  0.27314508  1
  H+  H370  1  0.32008541  0.15912828  0.43881476  1
  H+  H371  1  0.34486966  0.39990313  0.04323857  1
  H+  H372  1  0.00870346  0.84992015  0.34672908  1
  H+  H373  1  0.37204827  0.46831641  0.11990559  1
  H+  H374  1  0.89360524  0.11604673  0.54095553  1
  H+  H375  1  0.09554037  0.73728199  0.34088628  1
  H+  H376  1  0.40059602  0.07329258  0.92702374  1
  H+  H377  1  0.57217641  0.15532826  0.05620572  1
  H+  H378  1  0.08824504  0.66845474  0.44097643  1
  H+  H379  1  0.83732580  0.16647777  0.76783481  1
  H+  H380  1  0.20760029  0.34241775  0.22157284  1
  H+  H381  1  0.87742904  0.91021042  0.35399668  1
  H+  H382  1  0.35760551  -0.02097780  0.33245109  1
  H+  H383  1  0.38700208  0.53092457  0.83891555  1
  O2-  O384  1  0.07438030  0.16620389  0.15538287  1
  O2-  O385  1  0.08583643  0.16878882  0.49434190  1
  O2-  O386  1  0.07961054  0.16663470  0.81994419  1
  O2-  O387  1  0.10038365  0.40747850  0.15685876  1
  O2-  O388  1  0.09683459  0.41659115  0.47971437  1
  O2-  O389  1  0.08994872  0.42377872  0.81475130  1
  O2-  O390  1  0.08719217  0.66290661  0.14340622  1
  O2-  O391  1  0.09365111  0.66516136  0.48553477  1
  O2-  O392  1  0.08752305  0.67699059  0.81551161  1
  O2-  O393  1  0.08108551  0.89516541  0.13242813  1
  O2-  O394  1  0.07509424  0.89850761  0.48315390  1
  O2-  O395  1  0.07872725  0.92167372  0.82005648  1
  O2-  O396  1  0.31904963  0.15867346  0.14912870  1
  O2-  O397  1  0.31431487  0.13514879  0.48172783  1
  O2-  O398  1  0.31661468  0.16390973  0.80498510  1
  O2-  O399  1  0.42461615  0.48016836  0.14049676  1
  O2-  O400  1  0.34216878  0.42362313  0.47704818  1
  O2-  O401  1  0.33545603  0.42348692  0.81298824  1
  O2-  O402  1  0.34601858  0.67707380  0.14589071  1
  O2-  O403  1  0.34235186  0.66549489  0.48217941  1
  O2-  O404  1  0.30921675  0.64370609  0.78595555  1
  O2-  O405  1  0.31685176  0.90825252  0.12642796  1
  O2-  O406  1  0.32794170  0.90997697  0.45861787  1
  O2-  O407  1  0.32287083  0.91153272  0.81879837  1
  O2-  O408  1  0.56580139  0.15187292  0.13866789  1
  O2-  O409  1  0.59657438  0.16917688  0.53412684  1
  O2-  O410  1  0.60831216  0.17365144  0.82091610  1
  O2-  O411  1  0.55757829  0.39030319  0.15818300  1
  O2-  O412  1  0.59147528  0.43477659  0.49936775  1
  O2-  O413  1  0.58082522  0.41129635  0.85553461  1
  O2-  O414  1  0.60430438  0.68942875  0.15447016  1
  O2-  O415  1  0.58839328  0.67348659  0.48405357  1
  O2-  O416  1  0.58354530  0.67223209  0.81577669  1
  O2-  O417  1  0.57672687  0.92602097  0.13837339  1
  O2-  O418  1  0.55764868  0.94021477  0.46578119  1
  O2-  O419  1  0.58117804  0.91460592  0.81890297  1
  O2-  O420  1  0.82102257  0.15479787  0.12976520  1
  O2-  O421  1  0.81962649  0.15676222  0.45025021  1
  O2-  O422  1  0.84545630  0.16676652  0.81353013  1
  O2-  O423  1  0.87342762  0.42070929  0.13064281  1
  O2-  O424  1  0.82948628  0.40017845  0.47974431  1
  O2-  O425  1  0.84974218  0.42605390  0.80764565  1
  O2-  O426  1  0.87468668  0.72507175  0.15662161  1
  O2-  O427  1  0.86719796  0.66764622  0.45235269  1
  O2-  O428  1  0.83293724  0.66756078  0.81744608  1
  O2-  O429  1  0.85273004  0.92695057  0.15864088  1
  O2-  O430  1  0.78185086  0.83847560  0.47638224  1
  O2-  O431  1  0.83895793  0.92815406  0.81302653  1
  O2-  O432  1  0.12226780  0.05449219  0.19983612  1
  O2-  O433  1  0.14701223  0.06316425  0.52711921  1
  O2-  O434  1  0.15754544  0.08601506  0.85908468  1
  O2-  O435  1  0.14600815  0.31862687  0.22690899  1
  O2-  O436  1  0.18339189  0.33507084  0.52123021  1
  O2-  O437  1  0.16726963  0.33795694  0.85699465  1
  O2-  O438  1  0.17921217  0.58677204  0.18175874  1
  O2-  O439  1  0.17801469  0.58181031  0.52404199  1
  O2-  O440  1  0.16180363  0.58937630  0.85505127  1
  O2-  O441  1  0.16596139  0.82952696  0.17188999  1
  O2-  O442  1  0.17210321  0.83185975  0.52599687  1
  O2-  O443  1  0.16377453  0.84293066  0.85843463  1
  O2-  O444  1  0.40448112  0.07642302  0.20214860  1
  O2-  O445  1  0.44185815  0.08504850  0.47133892  1
  O2-  O446  1  0.39152150  0.07146740  0.84624189  1
  O2-  O447  1  0.38638236  0.33215378  0.19831433  1
  O2-  O448  1  0.44034092  0.36176625  0.53107188  1
  O2-  O449  1  0.41481105  0.33079624  0.83364806  1
  O2-  O450  1  0.44282597  0.61828757  0.20070324  1
  O2-  O451  1  0.42292231  0.58119849  0.52138948  1
  O2-  O452  1  0.41332900  0.59154174  0.85333929  1
  O2-  O453  1  0.41786864  0.84227489  0.17819683  1
  O2-  O454  1  0.41374986  0.81673552  0.54077105  1
  O2-  O455  1  0.41885062  0.84130009  0.86612092  1
  O2-  O456  1  0.66122704  0.07771382  0.17411388  1
  O2-  O457  1  0.67255355  0.08256543  0.51764321  1
  O2-  O458  1  0.67533382  0.08200133  0.85240790  1
  O2-  O459  1  0.57838978  0.27745299  0.22120379  1
  O2-  O460  1  0.67100468  0.34212318  0.52601656  1
  O2-  O461  1  0.69013711  0.34170143  0.85234556  1
  O2-  O462  1  0.70139676  0.62671164  0.21585106  1
  O2-  O463  1  0.67499855  0.59497117  0.53262872  1
  O2-  O464  1  0.66576868  0.59067352  0.85878088  1
  O2-  O465  1  0.70432116  0.84609163  0.19335160  1
  O2-  O466  1  0.60142156  0.81273195  0.53646819  1
  O2-  O467  1  0.67106927  0.83732953  0.85997587  1
  O2-  O468  1  0.92293595  0.07783347  0.19559573  1
  O2-  O469  1  0.94804248  0.16246371  0.55611926  1
  O2-  O470  1  0.92338383  0.08449217  0.84567170  1
  O2-  O471  1  0.92536819  0.31368965  0.17867574  1
  O2-  O472  1  0.93150290  0.28998339  0.51160226  1
  O2-  O473  1  0.92549923  0.33881803  0.84451403  1
  O2-  O474  1  0.91690743  0.57101636  0.18667623  1
  O2-  O475  1  0.92345059  0.56986101  0.51549559  1
  O2-  O476  1  0.92014861  0.58857055  0.85231374  1
  O2-  O477  1  0.90483535  0.88864420  0.17953966  1
  O2-  O478  1  0.90325028  0.79999998  0.52209889  1
  O2-  O479  1  0.90958519  0.83780908  0.85047233  1
  O2-  O480  1  0.15883749  0.06981602  0.32482509  1
  O2-  O481  1  0.16616869  0.08025733  0.65056892  1
  O2-  O482  1  0.17010013  0.06233068  0.98804008  1
  O2-  O483  1  0.12149280  0.30725400  0.34249773  1
  O2-  O484  1  0.17681250  0.33409366  0.64821486  1
  O2-  O485  1  0.16337083  0.33773673  0.97990437  1
  O2-  O486  1  0.21113960  0.54052007  0.29959340  1
  O2-  O487  1  0.19832017  0.58361267  0.64828057  1
  O2-  O488  1  0.17428389  0.58886397  0.97906865  1
  O2-  O489  1  0.16395039  0.83216700  0.29778277  1
  O2-  O490  1  0.16962782  0.83080929  0.64800840  1
  O2-  O491  1  0.15848932  0.83636367  0.97354974  1
  O2-  O492  1  0.41054038  0.09591860  0.31868384  1
  O2-  O493  1  0.41862319  0.07164334  0.65941007  1
  O2-  O494  1  0.40239494  0.06829319  0.97196325  1
  O2-  O495  1  0.40227973  0.33166033  0.31941170  1
  O2-  O496  1  0.41880483  0.33642268  0.65214209  1
  O2-  O497  1  0.37783538  0.30589520  0.95492688  1
  O2-  O498  1  0.44568748  0.59355287  0.32099407  1
  O2-  O499  1  0.41482477  0.58353107  0.64193780  1
  O2-  O500  1  0.41929692  0.58803713  0.97648736  1
  O2-  O501  1  0.42014017  0.83593446  0.30737428  1
  O2-  O502  1  0.40110248  0.82415379  0.65338246  1
  O2-  O503  1  0.42084571  0.83685934  0.98053297  1
  O2-  O504  1  0.65178572  0.08556954  0.29510420  1
  O2-  O505  1  0.68036335  0.07843082  0.64287712  1
  O2-  O506  1  0.66332473  0.08510566  0.96714781  1
  O2-  O507  1  0.64664360  0.31319095  0.32914243  1
  O2-  O508  1  0.67015291  0.33389090  0.65163665  1
  O2-  O509  1  0.68767836  0.35992050  0.97987634  1
  O2-  O510  1  0.71535059  0.59076584  0.33338324  1
  O2-  O511  1  0.66789960  0.58488433  0.66032993  1
  O2-  O512  1  0.62569721  0.57157485  0.97949789  1
  O2-  O513  1  0.68837322  0.83981297  0.31379510  1
  O2-  O514  1  0.68242002  0.88947420  0.63562453  1
  O2-  O515  1  0.67026063  0.84724591  0.98429584  1
  O2-  O516  1  0.93072701  0.08615668  0.31065157  1
  O2-  O517  1  0.92874545  0.09617436  0.66920208  1
  O2-  O518  1  0.89128020  0.09868100  1.01192120  1
  O2-  O519  1  0.89790908  0.30989794  0.30351824  1
  O2-  O520  1  0.88633452  0.31572037  0.63281523  1
  O2-  O521  1  0.92986292  0.35112175  0.95865225  1
  O2-  O522  1  0.90534947  0.57618739  0.30666770  1
  O2-  O523  1  0.92081106  0.58604515  0.64272414  1
  O2-  O524  1  0.92918015  0.59426695  0.97551780  1
  O2-  O525  1  0.95148292  0.92821703  0.23379841  1
  O2-  O526  1  0.91668946  0.82235301  0.67272003  1
  O2-  O527  1  0.90074735  0.85188550  0.97002666  1
  O2-  O528  1  0.06207941  0.18065056  0.04144316  1
  O2-  O529  1  0.07731776  0.14894999  0.37242979  1
  O2-  O530  1  0.09680716  0.17478280  0.69983422  1
  O2-  O531  1  0.08152013  0.43102613  0.00964667  1
  O2-  O532  1  0.05763222  0.44001386  0.35579857  1
  O2-  O533  1  0.12203502  0.43983912  0.69560833  1
  O2-  O534  1  0.09194293  0.66529432  0.01946990  1
  O2-  O535  1  0.04975746  0.69193395  0.36702216  1
  O2-  O536  1  0.10086616  0.64241871  0.69092007  1
  O2-  O537  1  0.06559869  0.89109681  0.02020221  1
  O2-  O538  1  0.06921896  0.89219112  0.35667410  1
  O2-  O539  1  0.09049295  0.91693763  0.69764923  1
  O2-  O540  1  0.32966028  0.15183029  0.01696405  1
  O2-  O541  1  0.32752328  0.17579735  0.36645109  1
  O2-  O542  1  0.33416508  0.16546859  0.68475827  1
  O2-  O543  1  0.33415998  0.40796442  0.00100203  1
  O2-  O544  1  0.35955205  0.43774705  0.36286015  1
  O2-  O545  1  0.33875785  0.42287119  0.69023556  1
  O2-  O546  1  0.33814835  0.67043421  0.02099285  1
  O2-  O547  1  0.34682193  0.66500999  0.35894113  1
  O2-  O548  1  0.28952820  0.63006766  0.66691633  1
  O2-  O549  1  0.34498942  0.91529811  0.00841196  1
  O2-  O550  1  0.32902263  0.91624570  0.34015311  1
  O2-  O551  1  0.33261873  0.91107393  0.69486109  1
  O2-  O552  1  0.57432625  0.15289660  0.01130695  1
  O2-  O553  1  0.56294884  0.15322553  0.36587075  1
  O2-  O554  1  0.59384349  0.16295254  0.69030061  1
  O2-  O555  1  0.58245722  0.40597736  0.03255845  1
  O2-  O556  1  0.57027972  0.41282715  0.34555696  1
  O2-  O557  1  0.58712000  0.42082648  0.69528393  1
  O2-  O558  1  0.58459021  0.68429934  0.02777979  1
  O2-  O559  1  0.60985633  0.67457912  0.36474533  1
  O2-  O560  1  0.57600184  0.67166612  0.69022916  1
  O2-  O561  1  0.58296845  0.92039444  0.02442146  1
  O2-  O562  1  0.59063109  0.92312506  0.34266929  1
  O2-  O563  1  0.54010671  0.86474164  0.70307990  1
  O2-  O564  1  0.82394104  0.17330285  0.06636215  1
  O2-  O565  1  0.80988675  0.13295267  0.34083476  1
  O2-  O566  1  0.82982683  0.16429813  0.69461522  1
  O2-  O567  1  0.86599897  0.43138751  0.00840034  1
  O2-  O568  1  0.82204070  0.40024991  0.34903360  1
  O2-  O569  1  0.83970509  0.42100861  0.68410752  1
  O2-  O570  1  0.92124138  0.72656360  0.03119043  1
  O2-  O571  1  0.91050472  0.73684382  0.34772007  1
  O2-  O572  1  0.83587173  0.65861524  0.69214421  1
  O2-  O573  1  0.82901411  0.93101149  0.03254657  1
  O2-  O574  1  0.85797453  0.92746134  0.31827112  1
  O2-  O575  1  0.83631934  0.92297263  0.69151221  1
