# generated using pymatgen
data_H2O
_symmetry_space_group_name_H-M   'P 1'
_cell_length_a   17.98175774
_cell_length_b   17.98875896
_cell_length_c   21.98571807
_cell_angle_alpha   90.01273150
_cell_angle_beta   89.99681228
_cell_angle_gamma   119.99840863
_symmetry_Int_Tables_number   1
_chemical_formula_structural   H2O
_chemical_formula_sum   'H384 O192'
_cell_volume   6159.01956260
_cell_formula_units_Z   192
loop_
 _symmetry_equiv_pos_site_id
 _symmetry_equiv_pos_as_xyz
  1  'x, y, z'
loop_
 _atom_type_symbol
 _atom_type_oxidation_number
  H+  1.0
  O2-  -2.0
loop_
 _atom_site_type_symbol
 _atom_site_label
 _atom_site_symmetry_multiplicity
 _atom_site_fract_x
 _atom_site_fract_y
 _atom_site_fract_z
 _atom_site_occupancy
  H+  H0  1  0.78415088  0.15036963  0.82327495  1
  H+  H1  1  0.52124009  0.62258338  0.66864050  1
  H+  H2  1  0.61205754  0.86777457  0.51112880  1
  H+  H3  1  0.63233464  0.72326064  0.99632798  1
  H+  H4  1  0.11606512  0.36153475  0.17194046  1
  H+  H5  1  0.49214853  0.04125536  0.13259951  1
  H+  H6  1  0.17414262  0.88134280  0.17525644  1
  H+  H7  1  0.38743088  0.33670730  0.66327874  1
  H+  H8  1  0.63695894  0.52224260  0.18461610  1
  H+  H9  1  0.59179822  0.47295980  1.00541501  1
  H+  H10  1  0.52551501  0.39073920  0.82080740  1
  H+  H11  1  0.09415469  0.51209569  0.36301499  1
  H+  H12  1  0.89088174  0.11302761  -0.00416043  1
  H+  H13  1  0.86000774  0.97119957  0.67021713  1
  H+  H14  1  0.36021327  0.68580107  0.64649598  1
  H+  H15  1  0.90296156  0.52617640  -0.00178778  1
  H+  H16  1  0.22310117  0.60776524  -0.01097063  1
  H+  H17  1  0.27093185  0.89377446  0.34354441  1
  H+  H18  1  0.89245073  0.11609333  0.66300679  1
  H+  H19  1  0.49451299  0.84904660  0.20193315  1
  H+  H20  1  0.69605663  0.97324996  0.00477774  1
  H+  H21  1  0.13814041  0.78562021  0.31448066  1
  H+  H22  1  0.48347201  0.63009309  0.97994053  1
  H+  H23  1  0.09828972  0.84190761  1.03022357  1
  H+  H24  1  0.72613902  0.10121164  0.50846816  1
  H+  H25  1  -0.02674097  0.86539532  0.65515693  1
  H+  H26  1  0.26695472  0.39352973  0.49042006  1
  H+  H27  1  0.88269535  0.86285728  0.65610448  1
  H+  H28  1  0.62193144  0.99030361  0.33450378  1
  H+  H29  1  0.88899683  0.17379450  0.15366069  1
  H+  H30  1  0.40772571  0.05349494  0.84250334  1
  H+  H31  1  0.77807598  0.07909520  0.04307358  1
  H+  H32  1  0.63504817  0.11415281  0.16926780  1
  H+  H33  1  0.64298538  0.37667321  0.83641691  1
  H+  H34  1  0.55879658  0.86359196  0.00553377  1
  H+  H35  1  0.37558027  0.57627206  0.65986232  1
  H+  H36  1  0.87467989  0.97938690  0.00751086  1
  H+  H37  1  0.13824773  0.26355973  0.51124781  1
  H+  H38  1  0.40016499  0.08763675  0.57545018  1
  H+  H39  1  0.11365340  0.13827218  0.34265264  1
  H+  H40  1  0.86165781  0.13085805  0.50067689  1
  H+  H41  1  0.35904909  0.22720749  0.33806217  1
  H+  H42  1  0.19955272  0.84720878  0.84590469  1
  H+  H43  1  0.36206547  0.88894975  -0.01008583  1
  H+  H44  1  0.60044405  0.93230418  0.24916231  1
  H+  H45  1  0.10595580  0.45549783  0.50564784  1
  H+  H46  1  0.08723083  0.41688908  0.76476785  1
  H+  H47  1  0.46662750  0.12292280  0.34302674  1
  H+  H48  1  0.09021849  0.42736021  0.06459937  1
  H+  H49  1  0.03017924  0.64264902  0.52995962  1
  H+  H50  1  0.65349830  0.83689829  0.96604654  1
  H+  H51  1  0.86747206  0.64102255  0.66600137  1
  H+  H52  1  0.37832098  0.52706228  0.49968536  1
  H+  H53  1  0.88029001  0.85912006  0.50470209  1
  H+  H54  1  0.86575850  0.47969204  0.49859142  1
  H+  H55  1  0.87786926  0.25672056  0.15851853  1
  H+  H56  1  0.15745470  0.81685940  0.94082562  1
  H+  H57  1  0.22106147  0.11384909  0.32873794  1
  H+  H58  1  0.52192594  0.40007606  0.17655785  1
  H+  H59  1  0.51928194  0.63578866  0.81554873  1
  H+  H60  1  0.58319335  0.42560580  0.39442952  1
  H+  H61  1  0.52731258  0.90548148  0.34011619  1
  H+  H62  1  0.11345691  0.62599690  0.82360604  1
  H+  H63  1  0.58964165  0.83576717  0.30887639  1
  H+  H64  1  0.23139827  0.12836621  0.51006305  1
  H+  H65  1  0.64393059  0.28851609  0.83488260  1
  H+  H66  1  0.21904512  0.60669932  0.48764377  1
  H+  H67  1  0.41804841  0.16356304  0.18350730  1
  H+  H68  1  0.02879482  0.14167854  -0.00083110  1
  H+  H69  1  0.36351407  1.01721130  0.67949605  1
  H+  H70  1  0.50828411  0.12671743  0.16622505  1
  H+  H71  1  0.89497837  0.28271120  0.83716034  1
  H+  H72  1  0.13993609  0.35726467  0.66077793  1
  H+  H73  1  0.38760688  0.84880408  0.80859476  1
  H+  H74  1  0.36458665  0.38606349  0.82455534  1
  H+  H75  1  0.71701484  0.60204658  0.98484172  1
  H+  H76  1  0.36888906  0.80639615  0.67625368  1
  H+  H77  1  0.14420507  1.02687758  0.66635722  1
  H+  H78  1  0.66307252  0.58799233  0.56199380  1
  H+  H79  1  0.62324775  0.28511272  0.99636542  1
  H+  H80  1  0.66746322  -0.01809487  1.02538968  1
  H+  H81  1  0.63697915  0.28089699  0.17007553  1
  H+  H82  1  0.16723678  0.32219828  0.60249332  1
  H+  H83  1  0.91201352  0.82989677  0.56324781  1
  H+  H84  1  0.22439010  0.62444179  0.33396025  1
  H+  H85  1  0.76977740  0.88814702  0.49771681  1
  H+  H86  1  0.85756409  0.72621329  0.33858450  1
  H+  H87  1  0.73540659  0.13884804  0.16988339  1
  H+  H88  1  0.85826476  0.39242136  0.16289100  1
  H+  H89  1  0.62314242  0.79803663  0.25590735  1
  H+  H90  1  0.36151179  0.89179719  0.49641271  1
  H+  H91  1  0.62379096  0.99512574  0.19439816  1
  H+  H92  1  0.02587244  0.14213505  0.15002425  1
  H+  H93  1  0.73806910  0.14612517  0.98745356  1
  H+  H94  1  0.85165269  0.06881519  0.19639976  1
  H+  H95  1  0.61331729  0.16039201  0.00672879  1
  H+  H96  1  0.14441239  0.27753889  0.99180091  1
  H+  H97  1  0.38407175  0.77459218  0.51653167  1
  H+  H98  1  0.87054144  0.14516161  0.82712973  1
  H+  H99  1  0.51243315  0.12530815  0.51739935  1
  H+  H100  1  0.35802473  0.13928476  -0.00114468  1
  H+  H101  1  0.63365039  0.52566166  0.83351748  1
  H+  H102  1  0.86454038  0.38677554  0.82919984  1
  H+  H103  1  0.63375205  0.09741742  0.51253777  1
  H+  H104  1  0.59090354  0.92897167  0.76442973  1
  H+  H105  1  0.50863211  0.14483641  0.67266696  1
  H+  H106  1  0.86967014  0.97242211  0.34205414  1
  H+  H107  1  0.38022841  0.37449702  0.13864115  1
  H+  H108  1  0.31933523  0.93470915  0.88319185  1
  H+  H109  1  -0.00833776  0.85147290  0.83154120  1
  H+  H110  1  0.22972772  0.61059133  0.83540533  1
  H+  H111  1  0.37751240  1.02330044  0.51716665  1
  H+  H112  1  0.22536308  0.86734218  0.51592097  1
  H+  H113  1  0.36618567  0.71000642  0.16403907  1
  H+  H114  1  0.78955314  0.88663878  0.00619988  1
  H+  H115  1  0.02235354  0.38598092  0.67223899  1
  H+  H116  1  0.64407872  0.04407808  0.83361559  1
  H+  H117  1  0.37830125  0.86824205  0.33786413  1
  H+  H118  1  0.14493011  0.36683903  0.99515858  1
  H+  H119  1  0.36219540  0.73360662  0.35323342  1
  H+  H120  1  0.59306447  0.38698935  0.00701196  1
  H+  H121  1  0.01317599  0.84820468  0.03045007  1
  H+  H122  1  0.77208158  0.88256040  0.66947435  1
  H+  H123  1  0.72241627  0.36627058  0.33064586  1
  H+  H124  1  0.12791549  0.73884263  0.67583673  1
  H+  H125  1  0.90433365  0.32811396  0.57069049  1
  H+  H126  1  0.87402143  0.02512853  0.85233686  1
  H+  H127  1  0.89769362  0.86517733  0.00261281  1
  H+  H128  1  0.37962664  0.87929215  0.14335641  1
  H+  H129  1  0.08796927  0.17008494  0.09260225  1
  H+  H130  1  0.77597556  0.39183154  0.49367108  1
  H+  H131  1  0.13791987  0.36221570  0.83920055  1
  H+  H132  1  0.87488335  0.13758372  0.34406113  1
  H+  H133  1  0.38524336  0.75978155  0.81843719  1
  H+  H134  1  0.60571918  0.38846430  0.18483983  1
  H+  H135  1  0.11469101  0.22208958  0.67946766  1
  H+  H136  1  0.26673339  0.63076911  0.16111531  1
  H+  H137  1  0.39170826  0.28019584  0.82864740  1
  H+  H138  1  0.17270165  0.84816960  0.60895473  1
  H+  H139  1  0.27717275  0.13762721  0.16113774  1
  H+  H140  1  0.27097661  0.97442015  0.84591487  1
  H+  H141  1  0.88064054  0.27362169  0.66631360  1
  H+  H142  1  1.12081240  0.47725812  1.00168691  1
  H+  H143  1  0.11828885  0.63971725  0.17206803  1
  H+  H144  1  0.37640821  0.11297771  0.33161422  1
  H+  H145  1  0.33033576  0.45998485  0.11290139  1
  H+  H146  1  0.58742850  0.42127938  0.76217381  1
  H+  H147  1  0.85921488  0.63043409  0.85395732  1
  H+  H148  1  0.48324148  0.35279409  0.66226214  1
  H+  H149  1  0.65846297  0.75838845  0.17359854  1
  H+  H150  1  0.19088561  0.85322972  0.26328483  1
  H+  H151  1  0.86006631  -0.02412853  0.49863094  1
  H+  H152  1  0.61256409  -0.02183462  0.67268995  1
  H+  H153  1  0.86324806  0.26366332  0.32390445  1
  H+  H154  1  0.61353431  0.48786120  0.48862627  1
  H+  H155  1  0.97933599  0.11186893  0.66561632  1
  H+  H156  1  0.85951545  0.72472864  0.66331373  1
  H+  H157  1  0.88961819  0.61745917  0.16430055  1
  H+  H158  1  0.13925944  0.11838530  0.17205388  1
  H+  H159  1  0.85542343  0.47904463  0.33946148  1
  H+  H160  1  0.51958750  0.89546519  0.67716636  1
  H+  H161  1  0.58489495  0.89856726  -0.06087651  1
  H+  H162  1  0.88156832  0.36315749  0.66645281  1
  H+  H163  1  0.12236594  0.71872293  0.01497587  1
  H+  H164  1  0.27336127  0.36491417  0.67188610  1
  H+  H165  1  0.10979700  0.47441506  0.66725359  1
  H+  H166  1  0.10694116  0.71143370  0.82940592  1
  H+  H167  1  0.57544662  0.70865138  0.33086315  1
  H+  H168  1  0.11821633  0.47665542  0.82415909  1
  H+  H169  1  0.71938689  0.35312052  0.65651501  1
  H+  H170  1  0.11807734  0.99883373  0.03870283  1
  H+  H171  1  0.63298160  0.53146173  0.32211058  1
  H+  H172  1  0.88111759  0.77251512  0.86049360  1
  H+  H173  1  0.35644011  0.47081111  0.33461324  1
  H+  H174  1  0.88753136  1.01101579  0.17284204  1
  H+  H175  1  0.88466124  0.61372140  0.51029857  1
  H+  H176  1  0.98598321  0.11409466  0.33260257  1
  H+  H177  1  0.13609475  -0.01916061  0.16887329  1
  H+  H178  1  0.32950917  0.92328179  0.43911782  1
  H+  H179  1  0.07581941  0.90780396  0.38877889  1
  H+  H180  1  0.11232957  0.22739696  0.34148763  1
  H+  H181  1  0.11952269  0.13645584  0.68171449  1
  H+  H182  1  0.38509530  0.15358075  0.82119533  1
  H+  H183  1  1.01432302  0.37000508  0.50868742  1
  H+  H184  1  0.13263256  0.34866740  0.51648343  1
  H+  H185  1  0.77407626  0.38923997  0.83290988  1
  H+  H186  1  0.10791962  0.22517133  0.83241818  1
  H+  H187  1  0.03164538  0.48057045  0.11589146  1
  H+  H188  1  0.22969672  0.85897383  0.99364265  1
  H+  H189  1  0.26125852  0.61875032  0.65781598  1
  H+  H190  1  0.62841100  0.15814636  0.81592515  1
  H+  H191  1  0.16623254  0.07580026  0.90324681  1
  H+  H192  1  0.35818555  0.64201324  0.34678516  1
  H+  H193  1  0.78885887  0.46723814  0.70157364  1
  H+  H194  1  0.01570817  0.64601840  0.31743181  1
  H+  H195  1  0.76792376  0.63116667  0.85168153  1
  H+  H196  1  0.86095251  0.48263061  0.16028450  1
  H+  H197  1  0.87362762  0.61201456  0.32333455  1
  H+  H198  1  0.11285508  0.89249552  0.32715608  1
  H+  H199  1  0.22090822  0.35564170  0.32365943  1
  H+  H200  1  0.36067786  0.14026414  0.49225198  1
  H+  H201  1  0.68162158  0.93757685  0.84305748  1
  H+  H202  1  0.97725024  0.60660711  0.83684027  1
  H+  H203  1  0.97140575  0.85667152  0.32195343  1
  H+  H204  1  0.91910347  0.08735392  0.93406149  1
  H+  H205  1  0.44570332  0.13371669  0.24414372  1
  H+  H206  1  0.73855196  0.11915376  0.33390986  1
  H+  H207  1  0.63284895  0.28188408  0.49919548  1
  H+  H208  1  0.59982802  0.63378919  0.33799370  1
  H+  H209  1  0.77478627  0.13983661  0.67601227  1
  H+  H210  1  0.53231772  0.62983170  0.15183431  1
  H+  H211  1  0.47698023  0.76969791  0.23780466  1
  H+  H212  1  0.44523160  0.83091395  0.96004145  1
  H+  H213  1  0.87154509  0.88258096  0.16329862  1
  H+  H214  1  0.11694678  0.14745062  0.98316109  1
  H+  H215  1  0.72105876  0.62050595  0.32749575  1
  H+  H216  1  0.74199052  0.84973790  0.18401986  1
  H+  H217  1  0.14442619  0.04514511  1.02914437  1
  H+  H218  1  0.11407976  0.13636733  0.49902926  1
  H+  H219  1  0.27503773  0.39328678  0.00913286  1
  H+  H220  1  0.61339081  0.96854342  0.50712206  1
  H+  H221  1  0.62371297  0.76733868  0.50643475  1
  H+  H222  1  0.61294080  0.39410244  0.33598099  1
  H+  H223  1  0.86938386  0.63174445  0.99236267  1
  H+  H224  1  0.86035143  0.72501793  0.49264367  1
  H+  H225  1  0.61799921  0.40106429  0.48747382  1
  H+  H226  1  0.36288675  0.62876869  0.81737064  1
  H+  H227  1  0.19656668  0.53185227  0.21635888  1
  H+  H228  1  0.47554716  0.12339627  0.99486821  1
  H+  H229  1  0.12467395  0.54937558  0.45483442  1
  H+  H230  1  0.59556742  0.24668738  0.35777382  1
  H+  H231  1  0.36335986  0.38488492  0.33462644  1
  H+  H232  1  0.16919223  0.78922016  0.17354036  1
  H+  H233  1  0.88749963  0.51946783  0.84264194  1
  H+  H234  1  0.38191128  0.52083814  0.83189747  1
  H+  H235  1  0.59403832  0.17476085  0.55754068  1
  H+  H236  1  0.13794928  0.61923582  0.65422173  1
  H+  H237  1  0.34291676  0.72145731  0.99771176  1
  H+  H238  1  0.38430783  0.27756375  0.97850146  1
  H+  H239  1  0.10709824  0.64949620  0.32113382  1
  H+  H240  1  0.25370390  0.07709101  0.82262230  1
  H+  H241  1  0.98237881  0.37224386  0.83660606  1
  H+  H242  1  0.88269846  0.85753353  0.32685494  1
  H+  H243  1  0.61709915  0.38755993  0.66615009  1
  H+  H244  1  0.63317623  0.62070989  0.50339518  1
  H+  H245  1  0.14068059  0.77654462  0.53204210  1
  H+  H246  1  0.82987805  0.66162351  -0.05838800  1
  H+  H247  1  0.88110346  0.35929053  0.50887906  1
  H+  H248  1  0.62554929  0.76171058  0.66004381  1
  H+  H249  1  0.23078827  0.88494072  0.66943206  1
  H+  H250  1  0.36293261  0.64003848  0.50264977  1
  H+  H251  1  0.11252789  0.89195442  0.67429816  1
  H+  H252  1  0.38498048  0.90009169  0.66933586  1
  H+  H253  1  0.63124663  0.60933800  0.98841679  1
  H+  H254  1  0.88547224  0.39876935  1.00751881  1
  H+  H255  1  0.27251395  0.14416252  -0.00366665  1
  H+  H256  1  0.90670537  0.53510059  0.66801555  1
  H+  H257  1  0.48129786  0.36378880  0.50572879  1
  H+  H258  1  0.42075907  0.33572017  0.26367844  1
  H+  H259  1  0.46161147  0.60501942  0.32442354  1
  H+  H260  1  0.54013893  0.15846257  0.82309677  1
  H+  H261  1  0.99510440  0.62437373  0.66176298  1
  H+  H262  1  0.83508048  0.17172569  0.06800932  1
  H+  H263  1  0.10372978  0.82928567  0.84405180  1
  H+  H264  1  0.13151099  0.02394944  0.32552872  1
  H+  H265  1  0.87834536  0.76672678  0.16941240  1
  H+  H266  1  0.72806755  0.61117418  0.65275405  1
  H+  H267  1  0.63039358  0.11113570  0.65987337  1
  H+  H268  1  0.61743885  0.47764057  0.66559797  1
  H+  H269  1  0.16232547  0.98891106  0.81819942  1
  H+  H270  1  0.03052804  0.63369264  0.01344468  1
  H+  H271  1  0.67959149  0.10397185  0.27683950  1
  H+  H272  1  0.01118997  0.86679012  0.48301587  1
  H+  H273  1  0.10170033  0.87179911  0.48744849  1
  H+  H274  1  0.91266799  0.58425993  0.57152259  1
  H+  H275  1  0.48102334  0.36735005  0.32224446  1
  H+  H276  1  0.11598010  0.64043083  0.51779378  1
  H+  H277  1  0.34078593  0.57892094  0.16430469  1
  H+  H278  1  0.36059269  -0.01710127  0.34529472  1
  H+  H279  1  0.47145186  0.36705444  0.98291303  1
  H+  H280  1  0.11416426  0.50872612  0.16226630  1
  H+  H281  1  -0.02703081  0.38359739  0.17848125  1
  H+  H282  1  0.63750945  0.60981151  0.65701221  1
  H+  H283  1  0.58023941  0.66037999  0.72864078  1
  H+  H284  1  0.23967732  0.10669306  0.66363823  1
  H+  H285  1  0.39296059  0.62738055  -0.01768123  1
  H+  H286  1  0.51538751  0.63793345  0.49319595  1
  H+  H287  1  0.13362791  0.60608874  0.99200180  1
  H+  H288  1  0.53919039  0.83960898  0.09028245  1
  H+  H289  1  0.41601015  0.59002979  0.88782981  1
  H+  H290  1  0.82823797  0.66543264  0.39814902  1
  H+  H291  1  0.17569762  0.09977071  0.57102525  1
  H+  H292  1  0.93251845  0.58506719  0.93752922  1
  H+  H293  1  0.38917897  0.20712477  0.66230748  1
  H+  H294  1  0.88952749  0.77221047  0.99212697  1
  H+  H295  1  0.09077175  0.89869251  0.12376197  1
  H+  H296  1  0.09630935  0.67203268  0.73249180  1
  H+  H297  1  0.82386818  0.42256685  0.74533706  1
  H+  H298  1  0.05915580  0.43342589  0.41022274  1
  H+  H299  1  0.57248461  0.66822594  0.43225605  1
  H+  H300  1  0.02052324  0.59841348  0.42268928  1
  H+  H301  1  0.08229622  0.16430975  0.43829928  1
  H+  H302  1  0.51684174  0.87860389  0.51104644  1
  H+  H303  1  0.58136173  0.18101921  0.41065129  1
  H+  H304  1  0.12993749  0.13368752  0.87969096  1
  H+  H305  1  0.52360799  0.87122154  0.08538243  1
  H+  H306  1  0.92003495  0.08236986  0.56885693  1
  H+  H307  1  0.42712130  0.32429086  0.56678118  1
  H+  H308  1  0.42072156  0.33573390  0.89163009  1
  H+  H309  1  0.17021625  0.33583107  0.89933357  1
  H+  H310  1  0.41417022  0.57246163  0.56444025  1
  H+  H311  1  0.15753223  0.32921542  0.26751492  1
  H+  H312  1  0.03457278  0.64493094  0.42668799  1
  H+  H313  1  0.67491703  0.59936005  0.23066414  1
  H+  H314  1  0.66635060  0.08014306  0.60421005  1
  H+  H315  1  0.60883687  0.63853226  0.81885681  1
  H+  H316  1  0.13522938  0.28615127  0.16587420  1
  H+  H317  1  0.30183691  0.89498000  0.15246379  1
  H+  H318  1  0.53289705  0.89440411  0.82310845  1
  H+  H319  1  0.85521439  0.34981820  0.32402118  1
  H+  H320  1  0.65626920  0.34161007  0.93646236  1
  H+  H321  1  0.90573576  0.82120951  0.23129665  1
  H+  H322  1  0.65347164  0.82199240  0.57155762  1
  H+  H323  1  0.32154811  0.42272880  0.42816623  1
  H+  H324  1  0.01505035  0.80242085  0.77940732  1
  H+  H325  1  0.93018715  0.84396676  0.90973412  1
  H+  H326  1  0.16640880  0.09107347  0.23388045  1
  H+  H327  1  0.92718448  0.08032973  0.27266328  1
  H+  H328  1  0.57920756  0.17353006  0.72642550  1
  H+  H329  1  0.85549460  0.21733465  0.50071739  1
  H+  H330  1  0.66403360  0.33672608  0.55914894  1
  H+  H331  1  0.83520568  0.91186466  0.39926576  1
  H+  H332  1  0.33530072  0.95348162  0.73966279  1
  H+  H333  1  0.61950340  0.62604480  0.15436807  1
  H+  H334  1  0.09365418  0.66448296  0.10874019  1
  H+  H335  1  0.33257277  0.39780456  0.73122095  1
  H+  H336  1  0.34593650  0.92061054  0.05445173  1
  H+  H337  1  0.90151918  0.33443317  0.23511009  1
  H+  H338  1  0.32594989  0.66801030  0.06077151  1
  H+  H339  1  0.72736598  0.36870683  0.17063146  1
  H+  H340  1  0.08372967  0.16104883  0.77637831  1
  H+  H341  1  0.92561654  0.34077966  0.93539493  1
  H+  H342  1  0.06975669  0.91112303  0.73085585  1
  H+  H343  1  0.66343005  0.33272871  0.27085349  1
  H+  H344  1  0.36979605  0.23329560  0.49301297  1
  H+  H345  1  0.38498802  0.49297459  0.65815499  1
  H+  H346  1  0.32762348  0.65302888  0.75710758  1
  H+  H347  1  0.43733938  0.10991614  0.90195874  1
  H+  H348  1  0.15221426  0.58256679  0.59220457  1
  H+  H349  1  0.39563897  0.57528901  0.26743819  1
  H+  H350  1  0.65333789  0.57906020  0.89528704  1
  H+  H351  1  0.98602888  0.36467780  0.99289938  1
  H+  H352  1  0.62622407  0.85221684  0.66120624  1
  H+  H353  1  0.28848908  0.48555031  0.19354783  1
  H+  H354  1  0.97177982  0.10757958  0.84160895  1
  H+  H355  1  0.76787793  0.62907488  0.15198082  1
  H+  H356  1  0.82384504  0.65945763  0.09102702  1
  H+  H357  1  0.32966639  0.17201549  0.39971737  1
  H+  H358  1  0.59038817  0.66655499  0.05687384  1
  H+  H359  1  0.41244308  0.82780730  0.28568540  1
  H+  H360  1  0.84427655  0.91797052  0.10397937  1
  H+  H361  1  0.83852141  0.17244042  0.73361021  1
  H+  H362  1  -0.02320808  0.11009269  0.50782852  1
  H+  H363  1  0.77107438  0.63705272  0.49218944  1
  H+  H364  1  0.38970020  0.03126910  0.98761535  1
  H+  H365  1  0.62803352  0.26605473  0.65428257  1
  H+  H366  1  0.84887770  0.42756586  0.06489180  1
  H+  H367  1  0.35237893  0.16058425  0.75547973  1
  H+  H368  1  0.33325630  0.16565604  0.10090499  1
  H+  H369  1  0.16943603  0.58152273  0.89576145  1
  H+  H370  1  0.17022306  0.59166845  0.27151431  1
  H+  H371  1  0.83263483  0.42333634  0.40135288  1
  H+  H372  1  0.90253211  0.58179490  0.26304282  1
  H+  H373  1  0.33876444  0.67471969  0.44302861  1
  H+  H374  1  -0.02025951  0.61946121  0.17350722  1
  H+  H375  1  0.67895670  0.11280824  0.88856883  1
  H+  H376  1  0.40924889  0.84063208  0.57364063  1
  H+  H377  1  0.38184287  0.81493251  0.90834922  1
  H+  H378  1  0.27289595  0.38212573  0.82506921  1
  H+  H379  1  0.84189414  0.16419655  0.40392087  1
  H+  H380  1  0.56294294  0.15195963  0.06884413  1
  H+  H381  1  0.64712740  0.06777038  0.97971725  1
  H+  H382  1  0.72925988  0.85117553  0.92349604  1
  H+  H383  1  0.41494017  0.43099541  0.19584521  1
  O2-  O384  1  0.08650810  0.17465559  0.13784437  1
  O2-  O385  1  0.07898168  0.16306415  0.48372119  1
  O2-  O386  1  0.07811928  0.16263922  0.82156647  1
  O2-  O387  1  0.06221137  0.45563524  0.13625435  1
  O2-  O388  1  0.07545028  0.39343084  0.49657159  1
  O2-  O389  1  0.08627097  0.41551123  0.81017129  1
  O2-  O390  1  0.09148047  0.67035509  0.15397733  1
  O2-  O391  1  0.09225574  0.67204728  0.53997371  1
  O2-  O392  1  0.08155166  0.65483574  0.80801967  1
  O2-  O393  1  0.11775873  0.91931186  0.16451420  1
  O2-  O394  1  0.06727927  0.88893242  0.46230426  1
  O2-  O395  1  0.04388436  0.85575639  0.80275750  1
  O2-  O396  1  0.33684155  0.16340830  0.14548100  1
  O2-  O397  1  0.33396835  0.17266950  0.47588092  1
  O2-  O398  1  0.34286120  0.16511626  0.79984269  1
  O2-  O399  1  0.31228032  0.40453306  0.09224738  1
  O2-  O400  1  0.32070358  0.43849959  0.47124802  1
  O2-  O401  1  0.33222684  0.41387075  0.80779844  1
  O2-  O402  1  0.32576102  0.65883044  0.13985165  1
  O2-  O403  1  0.33467254  0.67344174  0.48873500  1
  O2-  O404  1  0.33238120  0.66087557  0.80179310  1
  O2-  O405  1  0.35966873  0.91837474  0.13104274  1
  O2-  O406  1  0.33044775  0.92219202  0.48496127  1
  O2-  O407  1  0.30580387  0.94403284  0.84184737  1
  O2-  O408  1  0.53702246  0.10144945  0.13764252  1
  O2-  O409  1  0.57783908  0.15545307  0.51567549  1
  O2-  O410  1  0.59673939  0.18757607  0.80151663  1
  O2-  O411  1  0.58019920  0.42482221  0.19375806  1
  O2-  O412  1  0.58488386  0.42781410  0.47219140  1
  O2-  O413  1  0.58752144  0.42211432  0.80756754  1
  O2-  O414  1  0.58997245  0.65642707  0.13485654  1
  O2-  O415  1  0.57637861  0.67186962  0.47788033  1
  O2-  O416  1  0.57881111  0.66612144  0.79933568  1
  O2-  O417  1  0.59449457  0.93312482  0.20449891  1
  O2-  O418  1  0.57897757  0.90458142  0.49699334  1
  O2-  O419  1  0.59219515  0.93531374  0.80987102  1
  O2-  O420  1  0.85112969  0.19534157  0.14081375  1
  O2-  O421  1  0.82677881  0.15680987  0.48556614  1
  O2-  O422  1  0.84505368  0.17879639  0.80916161  1
  O2-  O423  1  0.82827063  0.42187032  0.14540102  1
  O2-  O424  1  0.83747087  0.41970344  0.48157966  1
  O2-  O425  1  0.83385537  0.41770553  0.81480091  1
  O2-  O426  1  0.82816068  0.65843118  0.13527285  1
  O2-  O427  1  0.83182172  0.66366786  0.47801424  1
  O2-  O428  1  0.82999567  0.66346206  0.86464027  1
  O2-  O429  1  0.84485828  0.91906907  0.14932044  1
  O2-  O430  1  0.82941052  0.91537887  0.48296591  1
  O2-  O431  1  0.72162485  0.95685957  0.87837220  1
  O2-  O432  1  0.17028031  0.09027486  0.18849969  1
  O2-  O433  1  0.17186466  0.10119058  0.52633043  1
  O2-  O434  1  0.21303294  0.02117178  0.84374321  1
  O2-  O435  1  0.15668443  0.34367329  0.18464107  1
  O2-  O436  1  0.16901444  0.32326056  0.52875918  1
  O2-  O437  1  0.16744637  0.33108626  0.85384550  1
  O2-  O438  1  0.18065229  0.57060793  0.19688140  1
  O2-  O439  1  0.15602350  0.57379186  0.49497458  1
  O2-  O440  1  0.16903384  0.58062732  0.84996865  1
  O2-  O441  1  0.20786563  0.84975757  0.18529730  1
  O2-  O442  1  0.16776378  0.84096818  0.53539370  1
  O2-  O443  1  0.14157880  0.80816155  0.86211471  1
  O2-  O444  1  0.46792283  0.16447448  0.20484285  1
  O2-  O445  1  0.40997867  0.08460443  0.53073500  1
  O2-  O446  1  0.44312492  0.11347141  0.85594762  1
  O2-  O447  1  0.41462239  0.38258903  0.17578656  1
  O2-  O448  1  0.42277804  0.32588457  0.52200185  1
  O2-  O449  1  0.42254655  0.33964910  0.84409025  1
  O2-  O450  1  0.34655972  0.52988255  0.18191848  1
  O2-  O451  1  0.41446805  0.58581083  0.52044862  1
  O2-  O452  1  0.41058410  0.58341438  0.84181038  1
  O2-  O453  1  0.44453813  0.79209470  0.21505642  1
  O2-  O454  1  0.41679960  0.83705649  0.52928937  1
  O2-  O455  1  0.41451908  0.82269559  0.83205863  1
  O2-  O456  1  0.67958723  0.10689184  0.19087351  1
  O2-  O457  1  0.66536104  0.06755799  0.52532314  1
  O2-  O458  1  0.67761072  0.10653527  0.84350673  1
  O2-  O459  1  0.66793779  0.33715650  0.18910184  1
  O2-  O460  1  0.66625850  0.34157166  0.51373482  1
  O2-  O461  1  0.67332139  0.34703605  0.85330242  1
  O2-  O462  1  0.67200466  0.58828665  0.18578515  1
  O2-  O463  1  0.66400236  0.59011957  0.51632101  1
  O2-  O464  1  0.66128194  0.58549501  0.84990810  1
  O2-  O465  1  0.69005364  0.80351851  0.20407712  1
  O2-  O466  1  0.65292139  0.82749174  0.52507267  1
  O2-  O467  1  0.77559867  0.92070745  0.86794935  1
  O2-  O468  1  0.90683552  0.07248435  0.18889499  1
  O2-  O469  1  0.91572165  0.08057280  0.52344282  1
  O2-  O470  1  0.91304176  0.08788344  0.85862342  1
  O2-  O471  1  0.91155856  0.34328999  0.18869097  1
  O2-  O472  1  0.90540922  0.32400339  0.52559050  1
  O2-  O473  1  0.92186137  0.34321563  0.85201659  1
  O2-  O474  1  0.91741134  0.58752091  0.18405681  1
  O2-  O475  1  0.91298186  0.58182776  0.52625405  1
  O2-  O476  1  0.91993980  0.58043432  0.85698187  1
  O2-  O477  1  0.90579759  0.82543254  0.18608061  1
  O2-  O478  1  0.90844045  0.82595196  0.51765694  1
  O2-  O479  1  0.92073662  0.83584047  0.86453884  1
  O2-  O480  1  0.16114353  0.08580034  0.31244097  1
  O2-  O481  1  0.17915699  0.08893375  0.65496497  1
  O2-  O482  1  0.15530969  0.12165330  0.91592748  1
  O2-  O483  1  0.15911807  0.32444339  0.31222367  1
  O2-  O484  1  0.16758921  0.32368222  0.64878301  1
  O2-  O485  1  0.17642369  0.33877083  0.97780819  1
  O2-  O486  1  0.16527646  0.59504788  0.31676778  1
  O2-  O487  1  0.16062616  0.58254808  0.63636881  1
  O2-  O488  1  0.16299791  0.57715135  0.97221552  1
  O2-  O489  1  0.17724056  0.84958447  0.30762608  1
  O2-  O490  1  0.17090986  0.84637134  0.65526757  1
  O2-  O491  1  0.16771788  0.81878549  0.98536121  1
  O2-  O492  1  0.41249996  0.08720341  0.31939869  1
  O2-  O493  1  0.40386661  0.10312726  0.65391610  1
  O2-  O494  1  0.41751273  0.09251561  0.97423764  1
  O2-  O495  1  0.41931420  0.33450447  0.30821240  1
  O2-  O496  1  0.42322598  0.31204095  0.64857166  1
  O2-  O497  1  0.41538103  0.33460069  0.95923640  1
  O2-  O498  1  0.39946752  0.57891834  0.31207172  1
  O2-  O499  1  0.41212382  0.55436910  0.64379335  1
  O2-  O500  1  0.42801662  0.60945662  0.95878037  1
  O2-  O501  1  0.41009688  0.83628692  0.33000247  1
  O2-  O502  1  0.40719631  0.86061585  0.65605865  1
  O2-  O503  1  0.38517211  0.81789618  0.95364108  1
  O2-  O504  1  0.67750400  0.09414812  0.32103638  1
  O2-  O505  1  0.66417857  0.08276665  0.64959659  1
  O2-  O506  1  0.68109481  0.12782204  0.96753763  1
  O2-  O507  1  0.66140085  0.33631639  0.31585660  1
  O2-  O508  1  0.66220812  0.32596627  0.63694018  1
  O2-  O509  1  0.65120415  0.34430934  0.98105835  1
  O2-  O510  1  0.66171790  0.59319260  0.30961378  1
  O2-  O511  1  0.66585949  0.57897516  0.63912217  1
  O2-  O512  1  0.65628373  0.57462025  0.97148860  1
  O2-  O513  1  0.57555641  0.78207642  0.28652988  1
  O2-  O514  1  0.65481465  0.82229193  0.64342307  1
  O2-  O515  1  0.70003124  0.82350987  0.96380714  1
  O2-  O516  1  0.92435919  0.08227987  0.31746002  1
  O2-  O517  1  0.92031361  0.08402506  0.64771106  1
  O2-  O518  1  0.92324527  0.08593384  0.97979848  1
  O2-  O519  1  0.87097039  0.31337960  0.29946686  1
  O2-  O520  1  0.91172901  0.33476798  0.65052104  1
  O2-  O521  1  0.92502316  0.33813901  0.98037239  1
  O2-  O522  1  0.90218422  0.57974624  0.30839077  1
  O2-  O523  1  0.93315120  0.59240665  0.64924133  1
  O2-  O524  1  0.93270384  0.58921819  0.98271833  1
  O2-  O525  1  0.90920359  0.82345934  0.31032097  1
  O2-  O526  1  0.91334779  0.83241732  0.63991643  1
  O2-  O527  1  0.92734869  0.83523073  0.98564854  1
  O2-  O528  1  0.09072088  0.17096888  0.01162930  1
  O2-  O529  1  0.08273922  0.16737090  0.35932076  1
  O2-  O530  1  0.08483567  0.16219436  0.69620940  1
  O2-  O531  1  0.09476199  0.41852487  0.02042598  1
  O2-  O532  1  0.06024828  0.48709048  0.40072638  1
  O2-  O533  1  0.08371971  0.41586108  0.68493283  1
  O2-  O534  1  0.09074657  0.65803548  0.03003667  1
  O2-  O535  1  0.07884998  0.68441271  0.31692140  1
  O2-  O536  1  0.09938768  0.67659742  0.68693851  1
  O2-  O537  1  0.05600970  0.84508134  0.05703035  1
  O2-  O538  1  0.07789384  0.91725199  0.34335976  1
  O2-  O539  1  0.08038432  0.92219347  0.68662218  1
  O2-  O540  1  0.32948682  0.17078397  0.01459317  1
  O2-  O541  1  0.32599590  0.16760651  0.35400290  1
  O2-  O542  1  0.35704609  0.14599204  0.67808688  1
  O2-  O543  1  0.33301010  0.43069803  0.02873029  1
  O2-  O544  1  0.32814883  0.41025537  0.34882602  1
  O2-  O545  1  0.33444300  0.39173195  0.68584157  1
  O2-  O546  1  0.32293264  0.66375651  0.01537719  1
  O2-  O547  1  0.33038037  0.67173053  0.36647936  1
  O2-  O548  1  0.32126215  0.64161469  0.67460909  1
  O2-  O549  1  0.33923679  0.92385174  0.00917096  1
  O2-  O550  1  0.33050974  0.92272446  0.36185936  1
  O2-  O551  1  0.33779266  0.95245163  0.69532857  1
  O2-  O552  1  0.57124584  0.17333640  0.02578944  1
  O2-  O553  1  0.55124570  0.19998506  0.38369477  1
  O2-  O554  1  0.57178427  0.16695855  0.68091100  1
  O2-  O555  1  0.55848487  0.41352005  0.02111214  1
  O2-  O556  1  0.58211163  0.42505334  0.34883066  1
  O2-  O557  1  0.58837338  0.41785971  0.68330917  1
  O2-  O558  1  0.58804556  0.66605136  0.01150742  1
  O2-  O559  1  0.56162943  0.65488648  0.35444250  1
  O2-  O560  1  0.58182047  0.65958755  0.68182918  1
  O2-  O561  1  0.54937739  0.84649726  -0.03728799  1
  O2-  O562  1  0.58920926  0.92545254  0.33603814  1
  O2-  O563  1  0.58052397  0.91749973  0.68811478  1
  O2-  O564  1  0.81501509  0.13788895  0.02886607  1
  O2-  O565  1  0.84405506  0.16754061  0.35882129  1
  O2-  O566  1  0.83638135  0.17242490  0.68773779  1
  O2-  O567  1  0.86093997  0.43545287  0.02073935  1
  O2-  O568  1  0.82461226  0.41920793  0.35637136  1
  O2-  O569  1  0.81573130  0.43163679  0.69992751  1
  O2-  O570  1  0.83283399  0.65966925  -0.01258192  1
  O2-  O571  1  0.82397188  0.66439182  0.35278798  1
  O2-  O572  1  0.82876266  0.66332754  0.67616911  1
  O2-  O573  1  0.84756060  0.92052944  0.02532967  1
  O2-  O574  1  0.83830004  0.91114495  0.35442065  1
  O2-  O575  1  0.83252800  0.91013113  0.68258091  1
