# generated using pymatgen
data_H2O
_symmetry_space_group_name_H-M   'P 1'
_cell_length_a   17.99290396
_cell_length_b   17.99030841
_cell_length_c   22.01075955
_cell_angle_alpha   89.95208006
_cell_angle_beta   90.01872861
_cell_angle_gamma   120.00299005
_symmetry_Int_Tables_number   1
_chemical_formula_structural   H2O
_chemical_formula_sum   'H384 O192'
_cell_volume   6170.10125943
_cell_formula_units_Z   192
loop_
 _symmetry_equiv_pos_site_id
 _symmetry_equiv_pos_as_xyz
  1  'x, y, z'
loop_
 _atom_type_symbol
 _atom_type_oxidation_number
  H+  1.0
  O2-  -2.0
loop_
 _atom_site_type_symbol
 _atom_site_label
 _atom_site_symmetry_multiplicity
 _atom_site_fract_x
 _atom_site_fract_y
 _atom_site_fract_z
 _atom_site_occupancy
  H+  H0  1  0.76317847  0.62994251  1.01466241  1
  H+  H1  1  0.11225083  -0.02024153  0.48800393  1
  H+  H2  1  0.26663772  0.08769363  0.05729348  1
  H+  H3  1  0.88875972  0.62403028  0.18501914  1
  H+  H4  1  0.86571366  0.38726427  0.83637577  1
  H+  H5  1  0.83520806  0.23056323  0.19854462  1
  H+  H6  1  0.27175280  0.13644980  0.83101499  1
  H+  H7  1  0.75406211  0.11053302  0.34919674  1
  H+  H8  1  0.92870504  0.24426211  0.97621394  1
  H+  H9  1  0.82189837  0.19319430  0.02830871  1
  H+  H10  1  0.32962559  0.67688036  0.12292568  1
  H+  H11  1  0.11342057  1.00173879  0.16868458  1
  H+  H12  1  0.11270580  0.22125514  0.66372854  1
  H+  H13  1  1.02171911  0.89053779  0.48977299  1
  H+  H14  1  0.98880437  0.36911533  0.49511721  1
  H+  H15  1  0.13900806  0.02421218  0.65697518  1
  H+  H16  1  0.43631302  0.53239812  0.16331774  1
  H+  H17  1  0.90308574  0.57791164  0.60327537  1
  H+  H18  1  0.27792596  0.63967807  0.66338749  1
  H+  H19  1  0.71701373  0.35924687  0.66878792  1
  H+  H20  1  0.89288046  0.00677220  0.66479060  1
  H+  H21  1  0.64363288  0.53290743  0.50492569  1
  H+  H22  1  0.21271879  0.48703455  0.11281639  1
  H+  H23  1  0.77965249  0.38828172  0.34825817  1
  H+  H24  1  0.89142547  0.88113364  0.31588913  1
  H+  H25  1  0.38548998  0.36213645  0.48799754  1
  H+  H26  1  0.97852059  0.84708036  0.99438677  1
  H+  H27  1  0.35786616  0.96738712  0.82125813  1
  H+  H28  1  0.36564574  0.26368369  1.00176520  1
  H+  H29  1  -0.02757587  0.61667745  0.49474161  1
  H+  H30  1  0.39424202  0.48689956  0.49048784  1
  H+  H31  1  0.82835140  0.66520167  0.10610795  1
  H+  H32  1  0.34483628  0.88169534  0.34269693  1
  H+  H33  1  0.63486343  0.12105703  0.66286516  1
  H+  H34  1  1.03708892  0.43075023  0.20219196  1
  H+  H35  1  0.37937622  0.02265345  0.64798026  1
  H+  H36  1  0.13634816  0.55701858  0.18790693  1
  H+  H37  1  0.10789584  0.73910113  0.46238757  1
  H+  H38  1  0.54128764  0.64749456  0.67209591  1
  H+  H39  1  0.86919997  0.72892574  0.83255478  1
  H+  H40  1  0.87841587  0.01883924  0.51904339  1
  H+  H41  1  0.35576729  0.96004098  0.00763527  1
  H+  H42  1  0.39371181  0.36448681  0.84854652  1
  H+  H43  1  0.23758599  0.37770536  0.32071511  1
  H+  H44  1  0.87244718  0.64753261  0.68042408  1
  H+  H45  1  0.21493430  0.10467077  0.30462319  1
  H+  H46  1  0.14219943  0.36986184  0.98031102  1
  H+  H47  1  0.87848569  0.89318862  0.67341296  1
  H+  H48  1  0.40514502  0.53036225  0.31700177  1
  H+  H49  1  0.88767049  0.86031684  0.51626377  1
  H+  H50  1  0.89259458  0.77428061  0.50770922  1
  H+  H51  1  0.11843252  0.98155428  0.82524580  1
  H+  H52  1  0.13750334  0.86604673  0.64399053  1
  H+  H53  1  0.52447892  0.15251776  0.48570989  1
  H+  H54  1  0.39240030  0.53330179  0.84328100  1
  H+  H55  1  1.01838791  0.63368819  1.01430501  1
  H+  H56  1  0.12250639  0.86517438  0.00597656  1
  H+  H57  1  0.12852955  0.85515525  0.84023656  1
  H+  H58  1  0.02833599  0.89397080  0.82473650  1
  H+  H59  1  0.32277680  0.16996312  0.25577240  1
  H+  H60  1  0.36500516  0.63752361  0.32703069  1
  H+  H61  1  0.61638215  0.39293644  0.49936037  1
  H+  H62  1  0.28959838  0.39921516  0.83604679  1
  H+  H63  1  0.10410204  0.25262912  0.49505968  1
  H+  H64  1  0.13496254  0.10961863  0.50109464  1
  H+  H65  1  0.62322430  0.47347823  0.17175683  1
  H+  H66  1  0.58527003  0.12567836  0.83172720  1
  H+  H67  1  0.36685272  0.76878534  0.32641779  1
  H+  H68  1  0.62992854  0.99571430  0.67707671  1
  H+  H69  1  0.72339147  0.61250007  0.17978882  1
  H+  H70  1  0.37213675  0.39305681  0.33197242  1
  H+  H71  1  0.35462412  0.09638070  -0.00485793  1
  H+  H72  1  0.11238658  0.64608143  0.65434518  1
  H+  H73  1  0.71709096  0.11412580  0.51316885  1
  H+  H74  1  0.49459828  0.85478421  1.00334520  1
  H+  H75  1  0.85565831  0.39600487  0.68819350  1
  H+  H76  1  0.89011369  0.86520776  0.84174695  1
  H+  H77  1  0.86631640  0.97810994  0.82773755  1
  H+  H78  1  0.37000071  0.68480594  1.00608509  1
  H+  H79  1  0.02920306  0.89108049  0.67192869  1
  H+  H80  1  0.36267142  0.39644802  0.00552085  1
  H+  H81  1  0.69888864  0.82720561  0.16815132  1
  H+  H82  1  0.86123453  0.63570943  0.83360565  1
  H+  H83  1  -0.00626776  0.15056905  0.33225113  1
  H+  H84  1  0.34683365  0.43332167  0.38730559  1
  H+  H85  1  0.59545102  0.21925019  0.84158195  1
  H+  H86  1  0.52580967  0.39037216  0.49532139  1
  H+  H87  1  0.63941351  0.87526047  0.49052917  1
  H+  H88  1  0.09729207  0.62852090  0.82917055  1
  H+  H89  1  0.03535269  0.40076991  0.66573279  1
  H+  H90  1  0.62881243  0.02680166  0.51282689  1
  H+  H91  1  0.86157204  0.47523742  0.84101456  1
  H+  H92  1  0.69292233  -0.01334948  0.29367148  1
  H+  H93  1  0.11959315  0.24216864  1.01017469  1
  H+  H94  1  0.46956114  0.85059246  0.84133528  1
  H+  H95  1  -0.00644704  0.11868753  0.83627751  1
  H+  H96  1  0.58878059  0.94118869  0.34030527  1
  H+  H97  1  0.36947284  0.83183981  0.99579002  1
  H+  H98  1  0.27025944  0.62873672  0.32740459  1
  H+  H99  1  0.49842245  0.53035655  0.55526480  1
  H+  H100  1  0.35322738  0.89641843  0.49361630  1
  H+  H101  1  0.36334143  0.89894311  0.66354156  1
  H+  H102  1  0.34710934  0.12358903  0.30771010  1
  H+  H103  1  0.73543119  0.38139936  0.99491017  1
  H+  H104  1  0.46176790  0.62618156  1.00702422  1
  H+  H105  1  0.27312893  0.63259002  0.82636425  1
  H+  H106  1  0.60809845  0.63565940  0.82852034  1
  H+  H107  1  0.85653696  0.71572685  1.00966525  1
  H+  H108  1  0.38039957  1.02142373  0.16945970  1
  H+  H109  1  0.85376376  0.14962151  0.35445712  1
  H+  H110  1  0.14401174  0.53464240  0.64471717  1
  H+  H111  1  0.11924643  0.65181293  0.17213302  1
  H+  H112  1  0.26835753  0.88683466  0.66056851  1
  H+  H113  1  0.36390176  0.01666122  0.32632919  1
  H+  H114  1  0.52657855  0.63144292  0.33708743  1
  H+  H115  1  0.38309835  1.03443089  0.49855892  1
  H+  H116  1  0.96410536  0.28163314  0.86839034  1
  H+  H117  1  0.38364751  0.27325497  0.49382799  1
  H+  H118  1  0.82254845  0.90502088  0.57094740  1
  H+  H119  1  0.10726936  0.73720124  0.36463215  1
  H+  H120  1  0.22563922  0.11262050  0.49819952  1
  H+  H121  1  0.10937776  0.09556923  0.16815751  1
  H+  H122  1  0.74938710  0.39247614  0.16690358  1
  H+  H123  1  0.62591334  0.60871998  1.00390491  1
  H+  H124  1  0.13580834  0.75884134  0.99825048  1
  H+  H125  1  0.60913737  0.72431212  0.82122738  1
  H+  H126  1  0.21433665  0.63533583  0.48619600  1
  H+  H127  1  0.88999207  0.84979428  0.99675586  1
  H+  H128  1  0.66911738  0.10303336  0.77370392  1
  H+  H129  1  0.37152426  0.64876662  0.52440658  1
  H+  H130  1  0.97344139  0.86902540  0.32719112  1
  H+  H131  1  0.88870857  0.01850836  0.23071483  1
  H+  H132  1  0.27224562  0.89010535  0.16244804  1
  H+  H133  1  0.12368557  0.01523867  0.32009062  1
  H+  H134  1  0.38805088  0.27538021  0.31996414  1
  H+  H135  1  0.88845491  0.12838815  0.80140470  1
  H+  H136  1  0.83027653  0.10427256  0.17631570  1
  H+  H137  1  0.89257197  0.37915790  0.33483328  1
  H+  H138  1  0.56755885  0.65914415  0.07366756  1
  H+  H139  1  0.85815765  0.72777970  0.16372834  1
  H+  H140  1  0.60834317  0.37225442  0.82039995  1
  H+  H141  1  0.89212731  0.77797652  0.66635620  1
  H+  H142  1  0.36235379  0.72353674  0.82642127  1
  H+  H143  1  0.38974411  0.50980361  0.68846889  1
  H+  H144  1  0.88868062  0.11971307  -0.00402734  1
  H+  H145  1  0.63739673  0.86486834  0.32350485  1
  H+  H146  1  0.96847168  0.60326289  0.84551587  1
  H+  H147  1  0.38003320  0.79161450  0.18441383  1
  H+  H148  1  0.12880744  0.95698773  0.00342776  1
  H+  H149  1  0.60587198  -0.03433828  0.82559937  1
  H+  H150  1  0.59127669  0.22107837  1.01415249  1
  H+  H151  1  0.11156134  0.21044948  0.16329177  1
  H+  H152  1  0.11486120  0.48988815  0.32688547  1
  H+  H153  1  0.10309969  0.04297684  0.97740476  1
  H+  H154  1  0.63466862  0.85774313  0.83107445  1
  H+  H155  1  0.62394017  0.73895794  0.48446040  1
  H+  H156  1  0.89404381  0.24991556  0.81908358  1
  H+  H157  1  0.29494491  0.43573840  0.48055603  1
  H+  H158  1  0.16661260  0.35343278  0.16223824  1
  H+  H159  1  0.61289112  -0.00305993  0.16966532  1
  H+  H160  1  0.99098434  0.15999571  -0.00812787  1
  H+  H161  1  0.16927468  0.08346151  0.59717494  1
  H+  H162  1  0.93223718  0.14214878  0.27778933  1
  H+  H163  1  0.13214893  0.52738356  -0.01957984  1
  H+  H164  1  0.72795722  0.61224882  0.33348688  1
  H+  H165  1  0.21453203  0.86066220  0.33645664  1
  H+  H166  1  0.45152430  0.59480044  0.26113364  1
  H+  H167  1  0.12015844  0.61610426  0.48744081  1
  H+  H168  1  0.79456741  0.92628282  0.30224598  1
  H+  H169  1  0.14167506  0.61912142  0.33705166  1
  H+  H170  1  0.26148234  0.89070306  0.49008736  1
  H+  H171  1  0.86839608  0.38688606  0.49808547  1
  H+  H172  1  0.23211478  0.37240435  0.98904087  1
  H+  H173  1  0.58700592  0.13074598  0.01805746  1
  H+  H174  1  0.85650439  0.21706376  0.49666412  1
  H+  H175  1  0.64538613  0.82589415  0.55238990  1
  H+  H176  1  0.38670251  0.11479526  0.17270660  1
  H+  H177  1  0.33395420  0.18223093  0.11102917  1
  H+  H178  1  0.78168303  0.16616687  0.65034997  1
  H+  H179  1  0.49280146  0.90062765  0.65815548  1
  H+  H180  1  0.12031697  0.39239036  0.66126884  1
  H+  H181  1  0.12573598  0.23356580  0.81917508  1
  H+  H182  1  0.10591557  0.88609881  0.33813267  1
  H+  H183  1  0.58952294  0.60429652  0.17176320  1
  H+  H184  1  0.77590973  0.88923548  0.82327305  1
  H+  H185  1  0.72803176  0.36714688  0.51250237  1
  H+  H186  1  0.45062396  0.10968350  -0.00114431  1
  H+  H187  1  0.88820485  0.30039633  0.64820293  1
  H+  H188  1  0.41357400  0.09304959  0.55774587  1
  H+  H189  1  0.12937881  0.24032749  0.33687477  1
  H+  H190  1  0.62211692  0.23858958  0.38995073  1
  H+  H191  1  0.38413576  0.62523149  0.83141000  1
  H+  H192  1  0.65638050  0.97518809  0.44823682  1
  H+  H193  1  0.79639860  0.13386093  0.08709081  1
  H+  H194  1  0.51484956  0.13137989  0.17156596  1
  H+  H195  1  0.59964008  0.38472412  0.01555339  1
  H+  H196  1  0.12344347  0.44840136  0.14502403  1
  H+  H197  1  0.14504851  0.11892426  0.83361411  1
  H+  H198  1  0.45869584  0.34744716  0.00651892  1
  H+  H199  1  0.61024094  0.14883466  0.49061109  1
  H+  H200  1  0.38556656  0.11403310  0.65256086  1
  H+  H201  1  0.51388069  0.60646665  0.51236933  1
  H+  H202  1  0.37077639  0.11979462  0.84410207  1
  H+  H203  1  0.22769729  0.84748718  0.99700706  1
  H+  H204  1  0.14355109  0.52836570  0.83408371  1
  H+  H205  1  0.35103871  0.32918268  0.58251749  1
  H+  H206  1  0.12913760  0.86540797  0.49141332  1
  H+  H207  1  0.93215443  0.10728954  0.89292865  1
  H+  H208  1  0.38098732  0.24363315  0.16646258  1
  H+  H209  1  0.88480851  0.53532872  0.18501379  1
  H+  H210  1  0.89615178  0.29754215  0.94010231  1
  H+  H211  1  0.40581882  0.37508552  0.17403290  1
  H+  H212  1  0.80290761  0.10662489  0.76736828  1
  H+  H213  1  0.72592905  0.62582325  0.84702145  1
  H+  H214  1  0.01143074  0.43256869  0.17542722  1
  H+  H215  1  0.77128009  0.85551721  0.00529075  1
  H+  H216  1  0.63515428  0.65302620  0.48833097  1
  H+  H217  1  0.83544473  0.86289655  0.16279546  1
  H+  H218  1  0.44453636  0.80220330  0.52507719  1
  H+  H219  1  0.19877972  0.32041544  0.50153086  1
  H+  H220  1  0.36074447  0.48637117  0.01037947  1
  H+  H221  1  0.60946091  0.73955697  0.17884481  1
  H+  H222  1  0.22282192  0.11178207  0.99858684  1
  H+  H223  1  1.02088366  0.37643982  0.99914586  1
  H+  H224  1  0.88921924  0.52501120  0.50365999  1
  H+  H225  1  0.86548110  0.63904802  0.49229580  1
  H+  H226  1  0.29850592  0.39051635  0.16215593  1
  H+  H227  1  0.45515615  0.85389306  0.33638743  1
  H+  H228  1  0.66703338  0.57900186  0.24091072  1
  H+  H229  1  0.50520995  0.88797694  0.49145323  1
  H+  H230  1  0.11721745  0.13342022  0.66627485  1
  H+  H231  1  0.85927039  0.73231074  0.33940018  1
  H+  H232  1  0.61521156  0.76826344  0.65156206  1
  H+  H233  1  0.95470251  0.08265031  0.17905374  1
  H+  H234  1  0.70909389  0.43906405  0.95888451  1
  H+  H235  1  0.97473056  0.61918316  0.34395468  1
  H+  H236  1  0.87535822  0.32925178  0.18311703  1
  H+  H237  1  0.40630030  0.68033712  0.54519740  1
  H+  H238  1  0.95825361  0.89393610  0.18224087  1
  H+  H239  1  0.60066631  0.86476970  0.15839054  1
  H+  H240  1  0.88482289  0.51982790  0.00280006  1
  H+  H241  1  1.02230109  0.64262992  0.66052729  1
  H+  H242  1  0.13857406  0.06269380  0.23697368  1
  H+  H243  1  0.03425554  0.38672330  0.81251311  1
  H+  H244  1  0.85871496  0.37483772  0.02588915  1
  H+  H245  1  0.73838393  0.10183200  0.17436308  1
  H+  H246  1  0.52732299  0.38470616  0.34487609  1
  H+  H247  1  0.73465505  0.62045325  0.50482666  1
  H+  H248  1  0.61722919  0.37963216  0.17471790  1
  H+  H249  1  0.57033271  0.89219451  0.09823450  1
  H+  H250  1  0.63100238  0.26064606  0.18792711  1
  H+  H251  1  0.86450965  0.64518341  0.34253854  1
  H+  H252  1  0.60566331  0.72497541  0.01847651  1
  H+  H253  1  0.83104327  0.94807538  0.15552284  1
  H+  H254  1  0.34756652  0.76261497  0.46558249  1
  H+  H255  1  0.35250728  0.37109532  0.64661856  1
  H+  H256  1  0.88231357  0.01122988  0.31958008  1
  H+  H257  1  0.00947980  0.12018153  0.48786735  1
  H+  H258  1  0.86613421  0.48213319  0.34672187  1
  H+  H259  1  0.49302555  0.37078089  0.17953784  1
  H+  H260  1  0.63395212  0.48089629  0.67315861  1
  H+  H261  1  0.76275796  0.88045883  0.51403551  1
  H+  H262  1  0.11927638  0.40148456  0.47945347  1
  H+  H263  1  0.09789488  0.42411576  0.75633235  1
  H+  H264  1  0.61934321  0.62604157  0.34189260  1
  H+  H265  1  0.87416164  0.52348099  0.66547625  1
  H+  H266  1  0.36421995  0.22547688  0.83220483  1
  H+  H267  1  0.69179464  0.09236433  1.01785678  1
  H+  H268  1  0.14460668  0.86443685  0.18184764  1
  H+  H269  1  0.11585024  0.14453618  0.33124634  1
  H+  H270  1  0.02717815  0.64857158  0.16713594  1
  H+  H271  1  0.57720784  0.94979650  0.01201631  1
  H+  H272  1  0.09076485  0.71323025  0.83251483  1
  H+  H273  1  0.29678081  0.43465220  0.70210065  1
  H+  H274  1  0.62098503  0.51819190  0.00545223  1
  H+  H275  1  0.27757375  0.13619599  0.67168259  1
  H+  H276  1  0.51660724  0.12693201  0.66466318  1
  H+  H277  1  0.13268937  0.61478278  0.98793640  1
  H+  H278  1  0.61831725  0.85923371  0.98740860  1
  H+  H279  1  0.72382965  0.35196961  0.84243075  1
  H+  H280  1  0.26539824  0.65901647  0.17825199  1
  H+  H281  1  -0.01066276  0.38119512  0.32336482  1
  H+  H282  1  0.15076886  0.36921649  0.83157550  1
  H+  H283  1  -0.01072812  0.11023669  0.65928497  1
  H+  H284  1  0.74619836  0.60686438  0.66287509  1
  H+  H285  1  0.87872667  0.10873517  0.51189678  1
  H+  H286  1  0.52035683  0.37375909  0.82264298  1
  H+  H287  1  0.63934515  0.51928987  0.33514138  1
  H+  H288  1  0.61254400  0.08856196  0.17842118  1
  H+  H289  1  0.92216181  0.83273618  0.60384122  1
  H+  H290  1  0.32997313  0.16143520  0.42379692  1
  H+  H291  1  0.41604830  0.32549165  0.90546756  1
  H+  H292  1  0.66516898  0.32186441  0.24738450  1
  H+  H293  1  0.61299078  0.89834235  0.67012784  1
  H+  H294  1  0.90729814  0.57573690  0.90540472  1
  H+  H295  1  0.86675006  0.18542641  0.68467223  1
  H+  H296  1  0.31729340  0.69146532  0.41401807  1
  H+  H297  1  0.48498549  0.62624644  0.83046563  1
  H+  H298  1  0.66504975  0.09012807  0.60469768  1
  H+  H299  1  0.16377664  0.60324322  0.26496570  1
  H+  H300  1  0.40565194  0.07316626  0.26663717  1
  H+  H301  1  0.61311314  0.37965506  0.67412232  1
  H+  H302  1  0.60162066  0.21667099  0.67273299  1
  H+  H303  1  0.35891300  0.43777566  0.78291464  1
  H+  H304  1  0.33005730  0.66224800  0.72606395  1
  H+  H305  1  0.15435737  0.82308760  0.27823618  1
  H+  H306  1  0.16818581  0.59398090  0.58565751  1
  H+  H307  1  0.66424095  0.84467928  0.25863049  1
  H+  H308  1  0.39547612  0.07952150  0.90917293  1
  H+  H309  1  0.39409746  0.62528993  0.66067982  1
  H+  H310  1  0.83789224  0.41639241  0.43991660  1
  H+  H311  1  0.58474730  0.41271316  0.73796250  1
  H+  H312  1  0.07301399  0.15542955  0.42862550  1
  H+  H313  1  0.71278596  0.90644818  0.96440567  1
  H+  H314  1  0.63583537  0.35811319  0.34222975  1
  H+  H315  1  0.87717886  0.60507210  1.00323678  1
  H+  H316  1  0.92126867  0.83428171  0.90044334  1
  H+  H317  1  0.09113141  0.90495146  0.09309152  1
  H+  H318  1  0.91248379  0.83605398  0.24026781  1
  H+  H319  1  0.39878896  0.80793012  0.93397660  1
  H+  H320  1  0.09172470  0.17089729  0.76069152  1
  H+  H321  1  0.31921699  0.91879961  0.40029666  1
  H+  H322  1  0.17566556  0.33736862  0.89293636  1
  H+  H323  1  0.65755233  0.04283707  0.26409065  1
  H+  H324  1  0.36297014  0.89439178  0.16547758  1
  H+  H325  1  0.16878669  0.58874975  0.89345826  1
  H+  H326  1  0.89849847  0.32215614  0.27552396  1
  H+  H327  1  0.71476949  0.12250201  0.83707034  1
  H+  H328  1  0.66399059  0.33387895  0.89945769  1
  H+  H329  1  0.66476684  0.59447420  0.90508657  1
  H+  H330  1  0.15550084  0.82896018  0.54937259  1
  H+  H331  1  0.17956536  0.32736271  0.22914122  1
  H+  H332  1  0.66403237  0.33347304  0.60563699  1
  H+  H333  1  0.11201584  0.15097127  0.00342739  1
  H+  H334  1  0.43068018  0.34455649  0.26915142  1
  H+  H335  1  0.82086724  0.41931424  0.74691977  1
  H+  H336  1  0.38483942  0.85597090  0.83615008  1
  H+  H337  1  0.84584158  0.92632374  0.73135044  1
  H+  H338  1  0.57435442  0.16590402  0.11379323  1
  H+  H339  1  0.09873591  0.41857188  0.04727978  1
  H+  H340  1  0.43368684  0.58936844  0.60815238  1
  H+  H341  1  0.07682785  0.16008056  0.10094919  1
  H+  H342  1  0.33034351  0.90684059  0.06948662  1
  H+  H343  1  0.08690984  0.42743987  0.38482817  1
  H+  H344  1  0.08115144  0.66504687  0.07278515  1
  H+  H345  1  0.22241448  0.33185061  0.62735777  1
  H+  H346  1  0.46702574  0.11553703  0.85073429  1
  H+  H347  1  0.36324722  0.13842202  0.48440833  1
  H+  H348  1  0.40263529  0.85076634  0.24224611  1
  H+  H349  1  0.13184639  0.77426914  0.64017498  1
  H+  H350  1  0.57310700  0.40760075  0.07852969  1
  H+  H351  1  0.66096486  0.82579115  0.88988393  1
  H+  H352  1  0.63829562  0.07175820  0.95678274  1
  H+  H353  1  0.13834953  0.77329444  0.18081259  1
  H+  H354  1  0.58586630  0.41691334  0.40546708  1
  H+  H355  1  0.54753765  0.78646935  0.62017579  1
  H+  H356  1  0.15498665  0.82136421  0.89865602  1
  H+  H357  1  0.60436419  0.68084729  0.72665716  1
  H+  H358  1  0.81316629  0.15163688  0.44189499  1
  H+  H359  1  0.56689723  0.89113181  0.40273243  1
  H+  H360  1  0.44604168  0.88226324  0.59412022  1
  H+  H361  1  0.14650083  0.37518735  0.31765841  1
  H+  H362  1  0.16817204  0.09411947  0.89793511  1
  H+  H363  1  0.82086892  0.41367102  0.07540683  1
  H+  H364  1  0.84116145  0.67553483  0.74040921  1
  H+  H365  1  0.02881920  0.85579278  0.14834870  1
  H+  H366  1  0.33608282  0.15997758  0.72996237  1
  H+  H367  1  0.09240601  0.92123377  0.72879064  1
  H+  H368  1  0.07759991  0.92213043  0.39497670  1
  H+  H369  1  0.14495448  0.31870306  0.58871544  1
  H+  H370  1  0.68725751  0.57654558  0.60190769  1
  H+  H371  1  0.76622777  0.47289898  0.12917340  1
  H+  H372  1  0.91623415  0.38853544  0.61034386  1
  H+  H373  1  0.94416116  0.32201198  0.55616090  1
  H+  H374  1  0.63698984  0.28086258  0.50920352  1
  H+  H375  1  0.59067473  0.66571981  0.40284289  1
  H+  H376  1  0.83669720  0.67367771  0.43444607  1
  H+  H377  1  0.92088942  0.08001263  0.60064860  1
  H+  H378  1  0.34155396  0.91893489  0.75811870  1
  H+  H379  1  0.92295092  0.59225412  0.28017636  1
  H+  H380  1  0.82297308  0.89043391  0.06547602  1
  H+  H381  1  0.11704474  0.49103012  0.47901329  1
  H+  H382  1  0.58089034  0.91204555  0.76613733  1
  H+  H383  1  0.34736054  0.42263599  0.09890567  1
  O2-  O384  1  0.07418767  0.15128667  0.14643107  1
  O2-  O385  1  0.07063691  0.15239724  0.47388464  1
  O2-  O386  1  0.09268516  0.17207035  0.80610914  1
  O2-  O387  1  0.15710481  0.43451381  0.11709972  1
  O2-  O388  1  0.08777303  0.42954880  0.46400405  1
  O2-  O389  1  0.09556145  0.41950000  0.80179575  1
  O2-  O390  1  0.08577933  0.67849384  0.14981959  1
  O2-  O391  1  0.07347614  0.67689082  0.44785214  1
  O2-  O392  1  0.05781754  0.65066712  0.82138597  1
  O2-  O393  1  0.08450433  0.90606153  0.13920551  1
  O2-  O394  1  0.07989541  0.92048502  0.47013380  1
  O2-  O395  1  0.08785387  0.92229199  0.80822009  1
  O2-  O396  1  0.34570593  0.18165637  0.15442183  1
  O2-  O397  1  0.32996816  0.16667136  0.46788655  1
  O2-  O398  1  0.33459545  0.16406203  0.81804816  1
  O2-  O399  1  0.35651742  0.42506596  0.14414853  1
  O2-  O400  1  0.34736249  0.43784881  0.46661825  1
  O2-  O401  1  0.35314146  0.43292263  0.82840752  1
  O2-  O402  1  0.32781826  0.68489339  0.16648383  1
  O2-  O403  1  0.29828426  0.70954149  0.45072136  1
  O2-  O404  1  0.33503935  0.66222612  0.81126805  1
  O2-  O405  1  0.33032105  0.92169196  0.14392015  1
  O2-  O406  1  0.32396920  0.92601147  0.47785159  1
  O2-  O407  1  0.36108466  0.92104421  0.80076652  1
  O2-  O408  1  0.57737141  0.16176783  0.15843974  1
  O2-  O409  1  0.58666204  0.18471049  0.47496274  1
  O2-  O410  1  0.55352759  0.15695301  0.83441969  1
  O2-  O411  1  0.59343782  0.41362331  0.15498919  1
  O2-  O412  1  0.58702557  0.42338325  0.48211908  1
  O2-  O413  1  0.57751949  0.40002756  0.80277875  1
  O2-  O414  1  0.55633378  0.63064598  0.15343827  1
  O2-  O415  1  0.59838335  0.67592231  0.47115484  1
  O2-  O416  1  0.57590867  0.66263737  0.80855212  1
  O2-  O417  1  0.58942349  0.90866508  0.14058915  1
  O2-  O418  1  0.60943895  0.92890034  0.47088717  1
  O2-  O419  1  0.57818288  0.90568426  0.81180624  1
  O2-  O420  1  0.80226178  0.13676735  0.16285038  1
  O2-  O421  1  0.82170875  0.15503467  0.48815875  1
  O2-  O422  1  0.86021032  0.15433607  0.77586837  1
  O2-  O423  1  0.79505167  0.44166106  0.14196659  1
  O2-  O424  1  0.83758723  0.41705263  0.48528494  1
  O2-  O425  1  0.83042374  0.41249363  0.82553232  1
  O2-  O426  1  0.82883398  0.66664433  0.15191106  1
  O2-  O427  1  0.83697275  0.67253745  0.47986069  1
  O2-  O428  1  0.83441647  0.66872444  0.81750715  1
  O2-  O429  1  0.80337499  0.88727698  0.14193441  1
  O2-  O430  1  0.82632559  0.91037786  0.52673403  1
  O2-  O431  1  0.83706846  0.91991154  0.80932667  1
  O2-  O432  1  0.13518980  0.06029393  0.18723746  1
  O2-  O433  1  0.16677320  0.08110206  0.51607130  1
  O2-  O434  1  0.17376224  0.08920539  0.85214985  1
  O2-  O435  1  0.18400659  0.31701032  0.18488466  1
  O2-  O436  1  0.14237044  0.31467528  0.50767647  1
  O2-  O437  1  0.18011395  0.33844256  0.84734798  1
  O2-  O438  1  0.16564955  0.61526646  0.20343443  1
  O2-  O439  1  0.15591279  0.59274564  0.50307787  1
  O2-  O440  1  0.17350257  0.58896147  0.84744990  1
  O2-  O441  1  0.16962729  0.83218177  0.20063764  1
  O2-  O442  1  0.15702989  0.83111972  0.50313230  1
  O2-  O443  1  0.14854570  0.81587232  0.85417810  1
  O2-  O444  1  0.41325655  0.08103992  0.18756693  1
  O2-  O445  1  0.41451197  0.09570760  0.51165365  1
  O2-  O446  1  0.40028055  0.08433533  0.86256768  1
  O2-  O447  1  0.43197804  0.34338686  0.19404544  1
  O2-  O448  1  0.41159428  0.33313660  0.51005460  1
  O2-  O449  1  0.41755775  0.32689585  0.86021069  1
  O2-  O450  1  0.47202592  0.58900570  0.18410640  1
  O2-  O451  1  0.46817799  0.55698784  0.53661529  1
  O2-  O452  1  0.42243207  0.59853578  0.84770986  1
  O2-  O453  1  0.40600631  0.85301468  0.19717601  1
  O2-  O454  1  0.44565372  0.85348945  0.50903017  1
  O2-  O455  1  0.40889562  0.82108607  0.85514351  1
  O2-  O456  1  0.64104310  0.05553468  0.19053920  1
  O2-  O457  1  0.65591070  0.08742454  0.52706974  1
  O2-  O458  1  0.66008241  0.08671611  0.81665303  1
  O2-  O459  1  0.66210985  0.32224751  0.20231730  1
  O2-  O460  1  0.66779138  0.34045113  0.52722477  1
  O2-  O461  1  0.66214845  0.32270136  0.85526327  1
  O2-  O462  1  0.66350694  0.57665053  0.19551833  1
  O2-  O463  1  0.67361376  0.59359341  0.51952666  1
  O2-  O464  1  0.66563834  0.60160592  0.86071014  1
  O2-  O465  1  0.64202029  0.80161910  0.18867375  1
  O2-  O466  1  0.66232351  0.83313732  0.50867298  1
  O2-  O467  1  0.66694128  0.82845932  0.84489916  1
  O2-  O468  1  0.89405989  0.05104068  0.19237159  1
  O2-  O469  1  0.91351580  0.08222611  0.52660164  1
  O2-  O470  1  0.93180831  0.09068865  0.84989526  1
  O2-  O471  1  0.85061705  0.28820652  0.21627724  1
  O2-  O472  1  0.93121546  0.33442069  0.51557697  1
  O2-  O473  1  0.92626597  0.29825088  0.84807550  1
  O2-  O474  1  0.91868599  0.59409573  0.20137189  1
  O2-  O475  1  0.91664591  0.58664760  0.51607474  1
  O2-  O476  1  0.90451109  0.57123377  0.86042222  1
  O2-  O477  1  0.91115668  0.83740470  0.19351309  1
  O2-  O478  1  0.92439354  0.83437077  0.52419031  1
  O2-  O479  1  0.92281672  0.83702334  0.85513168  1
  O2-  O480  1  0.14965780  0.07331494  0.29866871  1
  O2-  O481  1  0.16738861  0.08545383  0.64232444  1
  O2-  O482  1  0.15379179  0.09874278  0.97047251  1
  O2-  O483  1  0.17650661  0.34305537  0.30682024  1
  O2-  O484  1  0.16317647  0.32399161  0.63186271  1
  O2-  O485  1  0.17363187  0.33856343  0.97053876  1
  O2-  O486  1  0.16410633  0.58822261  0.31362061  1
  O2-  O487  1  0.17266381  0.59504560  0.63068439  1
  O2-  O488  1  0.16219126  0.58782410  0.96720231  1
  O2-  O489  1  0.15171003  0.82725005  0.32362884  1
  O2-  O490  1  0.16442300  0.83583769  0.62398939  1
  O2-  O491  1  0.16667841  0.81970400  0.98245550  1
  O2-  O492  1  0.39412878  0.07677037  0.31053680  1
  O2-  O493  1  0.41334555  0.08332785  0.63267863  1
  O2-  O494  1  0.39314832  0.07436670  0.97993667  1
  O2-  O495  1  0.42435832  0.33851276  0.31480348  1
  O2-  O496  1  0.31464224  0.33054742  0.61564484  1
  O2-  O497  1  0.40122997  0.32259232  0.98649446  1
  O2-  O498  1  0.44120120  0.59281881  0.30579217  1
  O2-  O499  1  0.43281424  0.59937750  0.65207703  1
  O2-  O500  1  0.40071926  0.59572958  0.99315515  1
  O2-  O501  1  0.39528032  0.83225555  0.32093987  1
  O2-  O502  1  0.43596228  0.87428270  0.63805580  1
  O2-  O503  1  0.39772326  0.80075552  0.97912261  1
  O2-  O504  1  0.67457874  0.02869711  0.30404771  1
  O2-  O505  1  0.67405245  0.09722258  0.64983468  1
  O2-  O506  1  0.63142399  0.06853074  1.00078655  1
  O2-  O507  1  0.67291173  0.33290594  0.32932702  1
  O2-  O508  1  0.65793674  0.32941085  0.65101333  1
  O2-  O509  1  0.68548141  0.38024959  0.97368597  1
  O2-  O510  1  0.66628753  0.57995428  0.31940266  1
  O2-  O511  1  0.69550098  0.55838918  0.64250331  1
  O2-  O512  1  0.65688125  0.57840527  0.99131888  1
  O2-  O513  1  0.68725541  0.87891102  0.29676462  1
  O2-  O514  1  0.60924375  0.81429239  0.62749139  1
  O2-  O515  1  0.66439255  0.84820043  0.96916345  1
  O2-  O516  1  0.93193213  0.12782505  0.32061092  1
  O2-  O517  1  0.92571797  0.07564816  0.64652955  1
  O2-  O518  1  0.93879202  0.15465422  0.97001207  1
  O2-  O519  1  0.92276326  0.34755038  0.31811485  1
  O2-  O520  1  0.92399913  0.36670212  0.64902959  1
  O2-  O521  1  0.91201841  0.28977168  0.98138388  1
  O2-  O522  1  0.91629981  0.58825433  0.32543894  1
  O2-  O523  1  0.90698424  0.58227252  0.64802281  1
  O2-  O524  1  0.91119858  0.57915315  0.98721189  1
  O2-  O525  1  0.91257842  0.83944089  0.31157427  1
  O2-  O526  1  0.92153706  0.83813409  0.64902262  1
  O2-  O527  1  0.91847504  0.81807500  0.97977129  1
  O2-  O528  1  0.08382897  0.18133473  0.02442488  1
  O2-  O529  1  0.09388971  0.17937700  0.35101141  1
  O2-  O530  1  0.08410912  0.16209838  0.68158576  1
  O2-  O531  1  0.08359242  0.41498851  0.00371611  1
  O2-  O532  1  0.08418212  0.42595463  0.33940748  1
  O2-  O533  1  0.09656090  0.42730368  0.67814656  1
  O2-  O534  1  0.07953415  0.66221096  0.02718316  1
  O2-  O535  1  0.07660730  0.67525292  0.38053219  1
  O2-  O536  1  0.08483319  0.67984276  0.66563843  1
  O2-  O537  1  0.09342446  0.89988744  0.02097054  1
  O2-  O538  1  0.07688499  0.92012661  0.34905964  1
  O2-  O539  1  0.09115124  0.92227873  0.68330794  1
  O2-  O540  1  0.28634555  0.12741658  0.02300711  1
  O2-  O541  1  0.31682263  0.16056997  0.29980769  1
  O2-  O542  1  0.33793510  0.16193971  0.68531081  1
  O2-  O543  1  0.33210302  0.42458448  0.02329140  1
  O2-  O544  1  0.34486462  0.42858180  0.34221778  1
  O2-  O545  1  0.35669679  0.45085599  0.70817642  1
  O2-  O546  1  0.36148269  0.63501345  0.03101524  1
  O2-  O547  1  0.33107100  0.66283523  0.34208032  1
  O2-  O548  1  0.33568121  0.66074547  0.68150172  1
  O2-  O549  1  0.32980469  0.90092875  0.02368162  1
  O2-  O550  1  0.31386459  0.91329572  0.35514436  1
  O2-  O551  1  0.32624380  0.92184457  0.67923046  1
  O2-  O552  1  0.55756144  0.16322829  0.03061988  1
  O2-  O553  1  0.62322650  0.24105501  0.34489695  1
  O2-  O554  1  0.57505927  0.15512687  0.68347022  1
  O2-  O555  1  0.56400228  0.40659469  0.03357557  1
  O2-  O556  1  0.58810524  0.41543669  0.35974152  1
  O2-  O557  1  0.59057675  0.41854426  0.68980657  1
  O2-  O558  1  0.57053353  0.66401003  0.02865932  1
  O2-  O559  1  0.58839768  0.65869332  0.35573329  1
  O2-  O560  1  0.60330883  0.68399238  0.68179144  1
  O2-  O561  1  0.55667587  0.88804474  0.01787628  1
  O2-  O562  1  0.55468598  0.88211091  0.35761233  1
  O2-  O563  1  0.59589764  0.93531754  0.69289291  1
  O2-  O564  1  0.79064128  0.13274337  0.04136421  1
  O2-  O565  1  0.80567788  0.15484188  0.37116307  1
  O2-  O566  1  0.84609466  0.20201045  0.64881343  1
  O2-  O567  1  0.82910408  0.40750978  0.03084211  1
  O2-  O568  1  0.84159433  0.42097268  0.36055446  1
  O2-  O569  1  0.81828631  0.41893395  0.70159021  1
  O2-  O570  1  0.82420567  0.65747227  0.02905554  1
  O2-  O571  1  0.83036083  0.67253631  0.35563724  1
  O2-  O572  1  0.84322156  0.67914935  0.69475361  1
  O2-  O573  1  0.83002088  0.88998048  0.02051803  1
  O2-  O574  1  0.85873823  0.95561782  0.29786542  1
  O2-  O575  1  0.85223614  0.92954956  0.68584553  1
