# generated using pymatgen
data_H2O
_symmetry_space_group_name_H-M   'P 1'
_cell_length_a   17.97536179
_cell_length_b   17.97479420
_cell_length_c   22.01332693
_cell_angle_alpha   90.00242146
_cell_angle_beta   89.99480910
_cell_angle_gamma   120.03137936
_symmetry_Int_Tables_number   1
_chemical_formula_structural   H2O
_chemical_formula_sum   'H384 O192'
_cell_volume   6157.72755153
_cell_formula_units_Z   192
loop_
 _symmetry_equiv_pos_site_id
 _symmetry_equiv_pos_as_xyz
  1  'x, y, z'
loop_
 _atom_type_symbol
 _atom_type_oxidation_number
  H+  1.0
  O2-  -2.0
loop_
 _atom_site_type_symbol
 _atom_site_label
 _atom_site_symmetry_multiplicity
 _atom_site_fract_x
 _atom_site_fract_y
 _atom_site_fract_z
 _atom_site_occupancy
  H+  H0  1  0.34491986  0.63004385  0.34266346  1
  H+  H1  1  0.34366514  0.50822900  0.50987589  1
  H+  H2  1  0.97148690  0.85550011  0.33120166  1
  H+  H3  1  -0.00932582  0.13350835  0.50113875  1
  H+  H4  1  0.09482053  0.63051800  0.00690939  1
  H+  H5  1  0.98821575  0.37288713  0.17079548  1
  H+  H6  1  0.36705205  0.52085977  0.33797577  1
  H+  H7  1  0.64760615  0.54962320  0.16927222  1
  H+  H8  1  0.46780873  0.36463894  0.35022585  1
  H+  H9  1  -0.00034231  0.60320550  0.67436062  1
  H+  H10  1  0.87022419  0.23302898  0.16082768  1
  H+  H11  1  0.87811845  0.65111084  0.38326341  1
  H+  H12  1  0.37848411  0.77309499  0.34068357  1
  H+  H13  1  0.61970597  0.22191704  1.01142874  1
  H+  H14  1  0.13881887  0.12638135  0.64459690  1
  H+  H15  1  0.61294033  0.23226623  0.18012108  1
  H+  H16  1  0.62298735  0.88064713  0.82820302  1
  H+  H17  1  0.88945654  0.60828988  0.83906700  1
  H+  H18  1  0.17834881  0.89423890  0.28205346  1
  H+  H19  1  0.92194311  0.28539304  0.50727425  1
  H+  H20  1  0.72932099  0.83014919  0.85012728  1
  H+  H21  1  0.86607914  0.71010250  0.47863593  1
  H+  H22  1  0.86090823  0.61918283  0.48404785  1
  H+  H23  1  0.42099156  0.08082488  0.93387176  1
  H+  H24  1  0.82781472  0.17599084  0.06743795  1
  H+  H25  1  0.47659685  0.62094467  0.98939639  1
  H+  H26  1  0.49857861  0.36407337  1.00153419  1
  H+  H27  1  0.58491734  0.90400976  0.73683482  1
  H+  H28  1  0.36037716  0.97397689  0.34065031  1
  H+  H29  1  0.83973537  0.86006259  0.85999363  1
  H+  H30  1  0.73485643  0.37185519  1.00617679  1
  H+  H31  1  0.10613033  0.72690648  0.49747114  1
  H+  H32  1  0.18632143  0.74726337  0.64267029  1
  H+  H33  1  0.17854117  0.18194069  0.10104552  1
  H+  H34  1  0.13241519  0.35576156  0.32334353  1
  H+  H35  1  0.84701327  0.86209622  0.32996390  1
  H+  H36  1  0.48166408  0.85652486  0.15982759  1
  H+  H37  1  0.73280191  0.37368815  0.17446526  1
  H+  H38  1  0.39934137  0.26415590  0.99855059  1
  H+  H39  1  0.74255908  0.36132658  0.78988263  1
  H+  H40  1  0.66750933  0.32290234  0.60607879  1
  H+  H41  1  0.02443932  0.12641397  0.34056769  1
  H+  H42  1  0.88851718  0.14997207  0.48280880  1
  H+  H43  1  0.70563045  0.83661967  0.49694955  1
  H+  H44  1  0.11176843  0.21803483  0.33807026  1
  H+  H45  1  0.90274855  0.75941498  0.31735503  1
  H+  H46  1  0.35934410  0.39222053  0.68032087  1
  H+  H47  1  0.27507276  0.63373391  0.82945008  1
  H+  H48  1  0.88263957  0.02171996  0.64178092  1
  H+  H49  1  0.72121489  0.11264682  0.83745363  1
  H+  H50  1  0.97741686  0.84619900  0.50715979  1
  H+  H51  1  0.36067734  0.88271250  0.34485985  1
  H+  H52  1  0.48474764  0.85878648  0.83712122  1
  H+  H53  1  0.23498248  0.35521808  0.17610157  1
  H+  H54  1  0.36224753  0.96840816  0.15810832  1
  H+  H55  1  0.15013141  0.03558846  0.83925489  1
  H+  H56  1  0.73204687  0.60501512  0.48870089  1
  H+  H57  1  0.23669982  0.87093398  0.32301333  1
  H+  H58  1  0.87573715  0.47767205  0.69554497  1
  H+  H59  1  0.03264580  0.63463257  0.83620653  1
  H+  H60  1  0.39002781  0.10743072  0.64825415  1
  H+  H61  1  0.23019279  0.86296074  0.50464214  1
  H+  H62  1  0.15063477  0.10227628  0.18007265  1
  H+  H63  1  0.52553199  0.64332055  0.14008123  1
  H+  H64  1  0.39189321  0.85162678  0.16386833  1
  H+  H65  1  0.35648564  0.72122887  0.67444760  1
  H+  H66  1  0.61514665  0.37608375  0.34715872  1
  H+  H67  1  0.12648242  0.29087919  0.99999365  1
  H+  H68  1  0.35639144  0.63517160  0.99725387  1
  H+  H69  1  0.33054300  0.66493258  0.09168151  1
  H+  H70  1  0.27293471  0.39875880  0.01258355  1
  H+  H71  1  0.83980300  0.66712265  0.74012491  1
  H+  H72  1  0.87418951  0.52725566  0.18020302  1
  H+  H73  1  0.53780315  0.40507956  0.16869470  1
  H+  H74  1  0.38686232  0.01350670  0.50124023  1
  H+  H75  1  0.38524390  0.11355415  0.33141261  1
  H+  H76  1  0.64760546  0.38164038  0.17518486  1
  H+  H77  1  0.13993219  0.89494587  0.86931085  1
  H+  H78  1  -0.02148654  0.36721604  0.83346402  1
  H+  H79  1  0.86966774  0.39633127  0.16083874  1
  H+  H80  1  0.61944570  0.96897033  0.82957457  1
  H+  H81  1  0.72384708  0.33888211  0.51301880  1
  H+  H82  1  0.12167401  0.03220278  0.65643686  1
  H+  H83  1  0.62856572  0.38818666  0.82127581  1
  H+  H84  1  0.40259628  0.07390649  0.23288150  1
  H+  H85  1  0.72848935  0.89200263  0.78642964  1
  H+  H86  1  0.86902972  0.85193077  0.64682379  1
  H+  H87  1  0.73315150  0.37154733  0.32826884  1
  H+  H88  1  0.36654280  0.13178732  0.16071951  1
  H+  H89  1  0.37609284  0.60714902  0.66643467  1
  H+  H90  1  0.61853147  0.46172613  0.50008811  1
  H+  H91  1  0.89793268  -0.00357324  0.48085200  1
  H+  H92  1  0.62023897  0.98144507  0.15061374  1
  H+  H93  1  0.08649420  0.27515681  0.87910553  1
  H+  H94  1  0.61193777  0.73675755  0.15110422  1
  H+  H95  1  0.17105408  0.07580625  0.27775026  1
  H+  H96  1  0.88671779  0.27932634  0.83031306  1
  H+  H97  1  0.10923317  0.88701163  0.35484595  1
  H+  H98  1  0.32959797  0.16042341  0.43997612  1
  H+  H99  1  0.29342539  0.88635609  0.67312332  1
  H+  H100  1  0.12749048  0.49016937  0.48843022  1
  H+  H101  1  0.61544580  0.38685442  0.01944123  1
  H+  H102  1  0.80894830  0.16585348  0.47202428  1
  H+  H103  1  0.37612695  0.39302270  0.16965781  1
  H+  H104  1  0.11778508  0.88423109  0.50126313  1
  H+  H105  1  0.39168570  0.77362887  0.83597409  1
  H+  H106  1  0.47294490  0.11201059  0.31887127  1
  H+  H107  1  0.64213499  0.61361912  0.83945542  1
  H+  H108  1  0.61828062  0.23732207  0.66693653  1
  H+  H109  1  0.76494219  0.88115730  0.64077305  1
  H+  H110  1  0.28462145  0.33987742  0.51952092  1
  H+  H111  1  0.50463295  0.11860636  0.50206610  1
  H+  H112  1  0.60791543  0.73312646  0.99162006  1
  H+  H113  1  0.88757041  0.01244004  0.31978188  1
  H+  H114  1  0.22327804  0.60877253  0.66507804  1
  H+  H115  1  0.61397757  -0.00121701  0.51023430  1
  H+  H116  1  0.12185261  0.58817776  0.66668579  1
  H+  H117  1  0.22140350  0.61724819  0.99039621  1
  H+  H118  1  0.39261774  0.11250944  -0.00715900  1
  H+  H119  1  0.06449304  0.14751588  0.80422139  1
  H+  H120  1  0.26268496  0.37887587  0.34761649  1
  H+  H121  1  0.78200565  0.63945912  0.83583793  1
  H+  H122  1  0.11153102  0.73636869  0.34090037  1
  H+  H123  1  0.60030165  0.11725137  0.50580268  1
  H+  H124  1  0.63608373  0.35373718  0.66489526  1
  H+  H125  1  0.61476507  0.75098186  0.49620521  1
  H+  H126  1  0.77009410  0.13938596  0.00636753  1
  H+  H127  1  0.63871618  0.11134123  -0.00960882  1
  H+  H128  1  0.61953166  0.22738984  0.32015186  1
  H+  H129  1  0.27111914  0.64214451  0.49931785  1
  H+  H130  1  0.67544000  0.34748361  0.26795224  1
  H+  H131  1  0.86188652  0.65814159  -0.00213834  1
  H+  H132  1  0.90811066  0.33422739  0.93097532  1
  H+  H133  1  0.16911246  0.47491686  0.13830885  1
  H+  H134  1  0.36207827  0.88408326  0.49057387  1
  H+  H135  1  0.27382774  0.13207195  0.65366371  1
  H+  H136  1  0.92387491  0.83478599  0.91336110  1
  H+  H137  1  0.62621079  0.89048048  -0.00527603  1
  H+  H138  1  0.12331881  0.36041003  0.84080690  1
  H+  H139  1  0.15927553  0.42259120  0.48057739  1
  H+  H140  1  0.01513375  0.66587543  0.34959492  1
  H+  H141  1  0.12794225  0.97324597  0.16046519  1
  H+  H142  1  0.13901543  0.60970736  0.84067839  1
  H+  H143  1  0.59061854  0.59254468  0.65263292  1
  H+  H144  1  0.82890894  0.00712189  0.87833258  1
  H+  H145  1  0.46942806  0.86234051  0.34017627  1
  H+  H146  1  0.63853651  0.86969106  0.16238012  1
  H+  H147  1  0.63774781  0.34753273  0.51313973  1
  H+  H148  1  0.08761767  0.87209200  0.97475698  1
  H+  H149  1  0.36795026  0.47513718  0.15126572  1
  H+  H150  1  0.56565298  0.54969882  0.58780944  1
  H+  H151  1  0.72295229  0.11092399  0.66643194  1
  H+  H152  1  0.52126684  0.13469562  0.66396346  1
  H+  H153  1  0.86429501  0.22161323  0.67159550  1
  H+  H154  1  0.73134539  0.11840773  0.17117432  1
  H+  H155  1  0.13681665  0.10837260  0.33410173  1
  H+  H156  1  0.86138815  0.39246067  0.00600008  1
  H+  H157  1  0.86502955  0.14119046  0.14898406  1
  H+  H158  1  0.61838248  0.77411046  0.31942267  1
  H+  H159  1  0.87513851  0.61030808  0.66583228  1
  H+  H160  1  0.76865885  0.87861719  0.14518693  1
  H+  H161  1  0.38375800  -0.02560213  1.00465387  1
  H+  H162  1  0.48060718  0.85405648  0.66162637  1
  H+  H163  1  0.38077806  0.26395343  0.51721388  1
  H+  H164  1  0.32595070  0.66354748  0.73569577  1
  H+  H165  1  0.53061914  0.63715948  0.82622442  1
  H+  H166  1  0.61141499  0.96804688  0.68098954  1
  H+  H167  1  0.35817188  0.22722095  0.35313049  1
  H+  H168  1  0.91492674  0.36998886  0.66853345  1
  H+  H169  1  0.46845022  0.35193321  0.51371356  1
  H+  H170  1  0.89444555  0.52315945  0.82815734  1
  H+  H171  1  0.61960304  0.54664609  0.30148515  1
  H+  H172  1  0.62171748  0.72766120  0.82194897  1
  H+  H173  1  0.35640933  0.63494100  0.49936440  1
  H+  H174  1  0.11616746  0.23611787  0.64957273  1
  H+  H175  1  0.28380208  0.38008299  0.84067459  1
  H+  H176  1  0.52602660  0.37998622  0.67718299  1
  H+  H177  1  -0.12134483  0.27311460  -0.00963705  1
  H+  H178  1  0.10584926  0.51876386  0.18547696  1
  H+  H179  1  0.14426965  0.04181710  0.99662053  1
  H+  H180  1  0.37181246  0.71957101  0.15181810  1
  H+  H181  1  0.23891009  0.10562204  0.18343811  1
  H+  H182  1  0.00482204  0.91682306  0.01667566  1
  H+  H183  1  0.17089314  0.13171222  0.83050935  1
  H+  H184  1  0.08910302  0.41680648  0.39585972  1
  H+  H185  1  0.14351466  0.34717083  0.16724183  1
  H+  H186  1  0.00676306  0.54028797  0.71660114  1
  H+  H187  1  0.38834258  0.52591045  -0.00823820  1
  H+  H188  1  0.38479937  0.89520307  0.82538660  1
  H+  H189  1  0.39389840  1.00812502  0.83084211  1
  H+  H190  1  -0.00711191  0.89997892  0.67232288  1
  H+  H191  1  0.02800494  0.89425036  0.83636909  1
  H+  H192  1  -0.03898853  0.61676922  0.18169403  1
  H+  H193  1  0.85375740  0.49667987  0.33227692  1
  H+  H194  1  0.77864780  0.65804651  0.14956531  1
  H+  H195  1  0.13447912  0.38901563  0.65629701  1
  H+  H196  1  0.87751265  0.72125279  0.84324476  1
  H+  H197  1  0.09271846  0.71716170  0.15370125  1
  H+  H198  1  0.39725996  1.02051243  0.65546190  1
  H+  H199  1  0.35314067  0.47627392  0.68550894  1
  H+  H200  1  0.27528442  0.87893225  0.14966555  1
  H+  H201  1  0.85863827  0.13091285  0.66737598  1
  H+  H202  1  0.72603569  0.60606577  0.99491163  1
  H+  H203  1  0.48103873  0.29428031  0.22693794  1
  H+  H204  1  0.86298464  0.90478769  0.87952109  1
  H+  H205  1  1.00725319  0.37628148  0.51029748  1
  H+  H206  1  0.87620886  0.37067150  0.50094396  1
  H+  H207  1  0.59526807  0.61751982  0.48407683  1
  H+  H208  1  0.61723703  0.47756407  0.00767613  1
  H+  H209  1  0.12940977  0.48491512  0.66265771  1
  H+  H210  1  0.11231197  0.47645773  0.33783667  1
  H+  H211  1  0.36860684  0.22116073  0.16676767  1
  H+  H212  1  0.71316027  0.85547835  0.31854786  1
  H+  H213  1  0.83145282  0.94623546  0.87485242  1
  H+  H214  1  -0.00338794  0.09243922  0.87552721  1
  H+  H215  1  0.66733780  0.07934153  0.89923365  1
  H+  H216  1  0.53121948  0.13468050  1.00440355  1
  H+  H217  1  0.16803580  0.07790191  0.56910396  1
  H+  H218  1  0.89594788  0.57075729  0.60518234  1
  H+  H219  1  0.14733412  0.22489333  0.15030975  1
  H+  H220  1  0.38423697  0.22231678  0.83362305  1
  H+  H221  1  0.60503708  0.87902725  0.48748814  1
  H+  H222  1  0.85852538  0.72031474  0.67871228  1
  H+  H223  1  0.36142108  0.12704710  0.49688717  1
  H+  H224  1  0.46546256  0.60769899  0.66747304  1
  H+  H225  1  0.87724353  0.59304283  0.26542653  1
  H+  H226  1  0.13268644  0.24338000  0.48979554  1
  H+  H227  1  0.61087084  0.88932465  0.33815989  1
  H+  H228  1  0.61437633  0.13580381  0.67340287  1
  H+  H229  1  0.58211233  0.16754232  0.23435968  1
  H+  H230  1  0.62785771  0.85234971  0.65448223  1
  H+  H231  1  0.23659167  0.10457043  0.50740162  1
  H+  H232  1  0.13204280  0.61977627  0.50768723  1
  H+  H233  1  0.86019699  0.48283443  1.00610323  1
  H+  H234  1  0.89542384  0.85330468  0.49766081  1
  H+  H235  1  0.48956534  0.11080498  0.83802808  1
  H+  H236  1  0.19195102  0.92550831  0.71173826  1
  H+  H237  1  0.40134923  0.35985579  0.84811755  1
  H+  H238  1  0.13891597  0.00830780  0.50882122  1
  H+  H239  1  0.64189812  1.02263812  -0.01150467  1
  H+  H240  1  0.84147621  0.13638717  0.83503776  1
  H+  H241  1  0.29406685  0.13587826  0.82963136  1
  H+  H242  1  0.87179663  0.10149399  1.01377058  1
  H+  H243  1  0.64087995  0.11555407  0.17946305  1
  H+  H244  1  0.12461576  0.61140760  0.33610467  1
  H+  H245  1  0.47921012  0.44002883  0.63526899  1
  H+  H246  1  0.35765233  0.20389850  0.68563663  1
  H+  H247  1  0.96871606  0.59986178  0.50877179  1
  H+  H248  1  0.23500415  0.37113061  0.66016738  1
  H+  H249  1  0.73570470  0.11543827  0.32216766  1
  H+  H250  1  0.08469555  0.91565135  0.44312084  1
  H+  H251  1  0.61924931  0.13668741  0.31771954  1
  H+  H252  1  0.40250080  0.86455623  -0.00701557  1
  H+  H253  1  0.87275001  0.23302472  0.32444704  1
  H+  H254  1  -0.03671732  0.09463682  0.16198370  1
  H+  H255  1  0.35988983  0.92830659  0.76403906  1
  H+  H256  1  0.98276524  0.37214712  0.32516263  1
  H+  H257  1  0.18716091  0.94094038  0.68106141  1
  H+  H258  1  0.60718636  0.21444554  0.50560749  1
  H+  H259  1  1.03623608  0.38419399  0.66511583  1
  H+  H260  1  0.13515095  0.85668266  0.16143122  1
  H+  H261  1  0.47325115  0.86208346  0.50319040  1
  H+  H262  1  0.97333910  0.08026831  0.84538632  1
  H+  H263  1  0.12162336  0.48415612  0.83007338  1
  H+  H264  1  0.59809174  0.64714546  0.32883878  1
  H+  H265  1  0.61326118  0.21349313  0.81628376  1
  H+  H266  1  0.47242126  0.10985515  0.18088867  1
  H+  H267  1  0.39353113  0.52473689  0.84201055  1
  H+  H268  1  0.88340113  0.39230609  0.79923626  1
  H+  H269  1  0.19852310  0.35333253  0.59117711  1
  H+  H270  1  0.36291533  0.72692594  -0.00148547  1
  H+  H271  1  0.60411511  0.71817522  0.67241080  1
  H+  H272  1  0.90260510  0.89089678  0.17069326  1
  H+  H273  1  0.28131588  0.14207124  1.00572490  1
  H+  H274  1  0.69979537  0.08609727  0.52455804  1
  H+  H275  1  0.21602147  0.61514967  0.33450202  1
  H+  H276  1  0.39412990  0.10970433  0.83617407  1
  H+  H277  1  0.73543292  0.85840490  0.97472828  1
  H+  H278  1  0.38220477  0.88794311  0.66939849  1
  H+  H279  1  0.08388305  0.62591874  0.16712692  1
  H+  H280  1  0.90765157  0.81763255  0.59588954  1
  H+  H281  1  0.27173943  0.13470070  0.34937017  1
  H+  H282  1  0.85976651  0.64668417  0.15051847  1
  H+  H283  1  -0.03656228  0.60800986  -0.00447583  1
  H+  H284  1  0.11233273  0.97764560  0.35048613  1
  H+  H285  1  0.64581346  0.52640598  0.83889028  1
  H+  H286  1  0.10524096  0.39586496  1.00485299  1
  H+  H287  1  0.61026529  0.46527511  0.67057630  1
  H+  H288  1  0.59552765  0.92378656  0.08947321  1
  H+  H289  1  0.64251306  0.81489677  0.59159357  1
  H+  H290  1  0.42226628  0.82915518  0.60039671  1
  H+  H291  1  0.94749116  0.97045507  0.43634375  1
  H+  H292  1  0.99727862  0.81204328  0.90522228  1
  H+  H293  1  0.89675691  0.37827832  0.32076154  1
  H+  H294  1  0.82044170  0.97460096  0.78869264  1
  H+  H295  1  0.41733827  0.07224973  0.56383838  1
  H+  H296  1  0.56407747  0.66493171  0.39098408  1
  H+  H297  1  0.64233818  0.63565380  0.16178578  1
  H+  H298  1  0.53380237  0.88414259  -0.00180680  1
  H+  H299  1  0.83363491  0.68303971  0.05931637  1
  H+  H300  1  0.37811689  0.36573988  0.34897433  1
  H+  H301  1  0.80987975  0.92131967  0.70107236  1
  H+  H302  1  0.38440142  0.61093348  0.13710282  1
  H+  H303  1  0.66926077  0.83315751  0.91730749  1
  H+  H304  1  0.42000846  0.58638567  0.89938821  1
  H+  H305  1  0.07348604  0.92603308  0.06706269  1
  H+  H306  1  0.42011664  0.35189299  0.60190353  1
  H+  H307  1  0.09259830  0.42164169  0.09343185  1
  H+  H308  1  0.16676609  0.81800680  0.21500720  1
  H+  H309  1  0.13050209  0.52906649  0.99324085  1
  H+  H310  1  0.92850865  0.85816686  0.23052951  1
  H+  H311  1  0.58715013  0.42918002  0.10481227  1
  H+  H312  1  0.88496847  0.50673165  0.50624378  1
  H+  H313  1  0.13946728  0.79157904  0.67072130  1
  H+  H314  1  0.35223176  0.91328576  0.06214944  1
  H+  H315  1  0.61586660  0.98069540  0.34012330  1
  H+  H316  1  0.86444816  0.08307184  0.92527170  1
  H+  H317  1  0.29778933  0.41253055  0.41375260  1
  H+  H318  1  0.66175509  0.83651780  0.22330130  1
  H+  H319  1  0.34116193  0.16883821  0.06627425  1
  H+  H320  1  0.32064647  0.66242771  0.40360220  1
  H+  H321  1  0.14206493  0.58079587  0.24233777  1
  H+  H322  1  0.71877804  0.33656995  0.85645389  1
  H+  H323  1  0.33082143  0.91477208  0.43075483  1
  H+  H324  1  0.16704727  0.57940573  0.90068124  1
  H+  H325  1  0.66798975  0.57005522  0.93534987  1
  H+  H326  1  0.58091266  0.66187661  0.73503294  1
  H+  H327  1  0.05671314  0.64769733  0.06760937  1
  H+  H328  1  0.08960733  0.17964253  0.43344816  1
  H+  H329  1  0.16134324  0.58573129  0.56578670  1
  H+  H330  1  0.00561198  0.15386848  0.00853529  1
  H+  H331  1  0.90681480  0.57567526  0.93471163  1
  H+  H332  1  0.36515519  0.63499110  0.82654166  1
  H+  H333  1  0.93714805  0.34051736  0.60405201  1
  H+  H334  1  0.43565679  0.32894898  0.93571633  1
  H+  H335  1  0.38445199  0.77287560  0.50745974  1
  H+  H336  1  0.61056958  0.12412318  0.83254698  1
  H+  H337  1  0.17574515  0.82912222  0.56626721  1
  H+  H338  1  0.16492783  0.32343143  0.26652469  1
  H+  H339  1  0.42575283  0.32819801  0.25710696  1
  H+  H340  1  0.08291227  0.65305605  0.77529305  1
  H+  H341  1  0.18351901  0.09696448  0.93689837  1
  H+  H342  1  0.58273361  0.91936984  0.42923681  1
  H+  H343  1  0.13800516  0.24247324  0.80746516  1
  H+  H344  1  0.85946231  0.80172615  1.00181615  1
  H+  H345  1  0.07448980  0.18119461  0.06142819  1
  H+  H346  1  0.39698389  0.56587940  0.56781738  1
  H+  H347  1  0.87688724  0.01547348  0.13885108  1
  H+  H348  1  0.85755231  0.45184806  0.39231387  1
  H+  H349  1  0.67083828  0.61842655  0.25556777  1
  H+  H350  1  0.45179196  0.60956838  0.32570044  1
  H+  H351  1  0.00790148  0.97767215  0.71312664  1
  H+  H352  1  0.17166310  0.35240531  0.94257159  1
  H+  H353  1  0.33707299  0.41329137  0.06606080  1
  H+  H354  1  0.07232074  0.92862704  0.77168976  1
  H+  H355  1  0.03226729  0.89882068  0.16176162  1
  H+  H356  1  0.68180260  0.58663077  0.55121932  1
  H+  H357  1  0.42650068  0.83227253  0.93157819  1
  H+  H358  1  0.82766174  0.89789859  0.08425103  1
  H+  H359  1  0.83190779  0.16544205  0.76654915  1
  H+  H360  1  0.81654518  0.35075189  0.44436972  1
  H+  H361  1  0.92052427  0.09257875  0.55579725  1
  H+  H362  1  0.67493048  0.07959654  0.26378449  1
  H+  H363  1  0.61936017  0.46317776  0.36491377  1
  H+  H364  1  0.88212100  0.01645985  1.00248385  1
  H+  H365  1  0.33159576  0.40703567  0.77704189  1
  H+  H366  1  0.41520795  0.56780084  0.08688276  1
  H+  H367  1  0.65229396  0.06964204  0.61302565  1
  H+  H368  1  0.58239126  0.39376057  0.44700811  1
  H+  H369  1  0.85851963  0.17910542  0.38367093  1
  H+  H370  1  0.01235341  0.38979029  0.00659424  1
  H+  H371  1  0.07581303  0.66975938  0.43781800  1
  H+  H372  1  0.82862593  0.90399841  0.38649996  1
  H+  H373  1  0.58972961  0.41619900  0.76844937  1
  H+  H374  1  0.89366346  0.10384444  0.31839180  1
  H+  H375  1  0.92981070  0.34649170  0.23005604  1
  H+  H376  1  0.97237729  0.11289804  0.64789167  1
  H+  H377  1  0.09718696  0.18249101  0.71022657  1
  H+  H378  1  0.66721666  0.34242244  0.95162569  1
  H+  H379  1  0.09863827  0.42605146  0.76884711  1
  H+  H380  1  0.50287982  0.61217413  0.49118015  1
  H+  H381  1  0.49259284  0.36328929  0.84534899  1
  H+  H382  1  0.83676175  0.42459535  0.10261801  1
  H+  H383  1  0.58387220  0.67944471  0.05313214  1
  O2-  O384  1  0.13196526  0.16909797  0.12946649  1
  O2-  O385  1  0.08671356  0.18554236  0.47836439  1
  O2-  O386  1  0.12103586  0.18692804  0.78647884  1
  O2-  O387  1  0.11149229  0.42434517  0.13741995  1
  O2-  O388  1  0.10700246  0.42971920  0.47559283  1
  O2-  O389  1  0.09051351  0.42188051  0.81303975  1
  O2-  O390  1  0.05328624  0.65426621  0.14801493  1
  O2-  O391  1  0.07460699  0.66599269  0.48319847  1
  O2-  O392  1  0.09188079  0.66038267  0.81938854  1
  O2-  O393  1  0.09036017  0.91538996  0.14247993  1
  O2-  O394  1  0.08603987  0.91489794  0.48904145  1
  O2-  O395  1  0.08418096  0.93229690  0.81567940  1
  O2-  O396  1  0.33685716  0.16443451  0.14692193  1
  O2-  O397  1  0.32797837  0.15566090  0.48601381  1
  O2-  O398  1  0.35550907  0.16341441  0.81639434  1
  O2-  O399  1  0.33685795  0.40962404  0.15216901  1
  O2-  O400  1  0.25429033  0.42158921  0.48325733  1
  O2-  O401  1  0.34074508  0.40748237  0.82203257  1
  O2-  O402  1  0.33888749  0.65872705  0.13569831  1
  O2-  O403  1  0.33187957  0.67079420  0.48471901  1
  O2-  O404  1  0.33409631  0.66463217  0.81113805  1
  O2-  O405  1  0.33785830  0.90994534  0.14073008  1
  O2-  O406  1  0.33264120  0.91628331  0.47699845  1
  O2-  O407  1  0.36032151  0.93129239  0.80923489  1
  O2-  O408  1  0.58190143  0.16956125  0.18885521  1
  O2-  O409  1  0.57317768  0.15177513  0.49076768  1
  O2-  O410  1  0.57602535  0.15067549  0.81706836  1
  O2-  O411  1  0.59529465  0.43606936  0.15009992  1
  O2-  O412  1  0.58628669  0.39849758  0.49231606  1
  O2-  O413  1  0.59326462  0.41544004  0.81368249  1
  O2-  O414  1  0.58884134  0.67757218  0.13334733  1
  O2-  O415  1  0.56264318  0.64712841  0.47503508  1
  O2-  O416  1  0.58932973  0.66316984  0.80858434  1
  O2-  O417  1  0.59245360  0.92153474  0.13493373  1
  O2-  O418  1  0.57930059  0.91486990  0.47585128  1
  O2-  O419  1  0.58985515  0.90871351  0.81374227  1
  O2-  O420  1  0.83341026  0.17398974  0.14484712  1
  O2-  O421  1  0.87030682  0.19146913  0.46498200  1
  O2-  O422  1  0.82947084  0.17660421  0.81044944  1
  O2-  O423  1  0.83526447  0.42316458  0.14810573  1
  O2-  O424  1  0.83143653  0.38262482  0.48262108  1
  O2-  O425  1  0.85775823  0.42502579  0.77727849  1
  O2-  O426  1  0.83659878  0.68044500  0.13134505  1
  O2-  O427  1  0.83707470  0.65085806  0.46126995  1
  O2-  O428  1  0.84283589  0.66579015  0.82130951  1
  O2-  O429  1  0.82875015  0.90797483  0.12949905  1
  O2-  O430  1  0.89369414  0.94509781  0.45917425  1
  O2-  O431  1  0.77348244  0.94118939  0.76052509  1
  O2-  O432  1  0.17907779  0.07335147  0.20004637  1
  O2-  O433  1  0.17292218  0.07209735  0.52234016  1
  O2-  O434  1  0.18995698  0.09633930  0.85235803  1
  O2-  O435  1  0.17228058  0.31808417  0.18608593  1
  O2-  O436  1  0.23221336  0.34437966  0.52164933  1
  O2-  O437  1  0.13910641  0.31781773  0.85878209  1
  O2-  O438  1  0.13232509  0.57893003  0.19765652  1
  O2-  O439  1  0.16486884  0.59099365  0.52101193  1
  O2-  O440  1  0.16930158  0.57732604  0.85469749  1
  O2-  O441  1  0.16510260  0.82297919  0.17069788  1
  O2-  O442  1  0.17014974  0.83372973  0.52182023  1
  O2-  O443  1  0.16381839  0.88465380  0.90684653  1
  O2-  O444  1  0.40862316  0.07708843  0.18763788  1
  O2-  O445  1  0.41911877  0.07517158  0.51761608  1
  O2-  O446  1  0.42371976  0.07584902  0.85119489  1
  O2-  O447  1  0.44418424  0.31787009  0.21621150  1
  O2-  O448  1  0.40896352  0.32518507  0.52952076  1
  O2-  O449  1  0.43337643  0.33157766  0.86346660  1
  O2-  O450  1  0.41605012  0.57462970  0.13102038  1
  O2-  O451  1  0.39493774  0.56549587  0.52279939  1
  O2-  O452  1  0.42101723  0.58603286  0.85349464  1
  O2-  O453  1  0.42225807  0.82045265  0.17498448  1
  O2-  O454  1  0.41472383  0.83465230  0.52163654  1
  O2-  O455  1  0.42351554  0.83438168  0.85040265  1
  O2-  O456  1  0.67122698  0.08282458  0.18710756  1
  O2-  O457  1  0.63825370  0.05796446  0.53232335  1
  O2-  O458  1  0.66187846  0.07608791  0.85332140  1
  O2-  O459  1  0.67313793  0.34769918  0.19184900  1
  O2-  O460  1  0.66326076  0.31131763  0.52744330  1
  O2-  O461  1  0.69186531  0.33321310  0.81732037  1
  O2-  O462  1  0.67626097  0.61092084  0.18136671  1
  O2-  O463  1  0.67287922  0.57648414  0.50737991  1
  O2-  O464  1  0.67422293  0.58545747  0.85575289  1
  O2-  O465  1  0.66556523  0.83588392  0.17816046  1
  O2-  O466  1  0.64621074  0.81273891  0.51023242  1
  O2-  O467  1  0.67305853  0.82256747  0.83987376  1
  O2-  O468  1  0.90959577  0.07989120  0.14162742  1
  O2-  O469  1  0.92653445  0.09602159  0.51037746  1
  O2-  O470  1  0.83371807  0.06593939  0.88537949  1
  O2-  O471  1  0.92823318  0.34476522  0.18443294  1
  O2-  O472  1  0.94691136  0.34333834  0.52670797  1
  O2-  O473  1  0.91641843  0.34175452  0.84304459  1
  O2-  O474  1  0.89951044  0.58651928  0.19702141  1
  O2-  O475  1  0.90660502  0.56591085  0.52046175  1
  O2-  O476  1  0.91927881  0.57624081  0.85247392  1
  O2-  O477  1  0.95144998  0.89400130  0.19400696  1
  O2-  O478  1  0.91423542  0.81444138  0.51495699  1
  O2-  O479  1  0.95076023  0.81603893  0.88221436  1
  O2-  O480  1  0.16808094  0.07637398  0.32328046  1
  O2-  O481  1  0.16337460  0.08768145  0.63601992  1
  O2-  O482  1  0.18618007  0.10026071  0.98176683  1
  O2-  O483  1  0.16248147  0.32385488  0.31171795  1
  O2-  O484  1  0.18003162  0.34739707  0.63511036  1
  O2-  O485  1  0.16612714  0.35360041  0.98690712  1
  O2-  O486  1  0.15416790  0.58178084  0.32006420  1
  O2-  O487  1  0.16296115  0.57165238  0.64767418  1
  O2-  O488  1  0.16060443  0.58742946  0.97483855  1
  O2-  O489  1  0.17602431  0.84649150  0.30474808  1
  O2-  O490  1  0.18601279  0.80141176  0.64312078  1
  O2-  O491  1  0.08550891  0.83113493  0.94248004  1
  O2-  O492  1  0.40932127  0.07967770  0.31264390  1
  O2-  O493  1  0.42553514  0.07998115  0.63711426  1
  O2-  O494  1  0.42521578  0.08452680  0.97865403  1
  O2-  O495  1  0.40917759  0.33606831  0.33285949  1
  O2-  O496  1  0.43622467  0.37937456  0.64363307  1
  O2-  O497  1  0.43573941  0.32653607  0.98215725  1
  O2-  O498  1  0.38904759  0.57718702  0.31786796  1
  O2-  O499  1  0.40422927  0.57393570  0.65331773  1
  O2-  O500  1  0.41366081  0.58581180  0.97549331  1
  O2-  O501  1  0.40724271  0.83580953  0.33195647  1
  O2-  O502  1  0.41994159  0.82636838  0.64589247  1
  O2-  O503  1  0.42976849  0.83022397  0.97656724  1
  O2-  O504  1  0.67405491  0.08331699  0.30949631  1
  O2-  O505  1  0.65943135  0.08002325  0.65745602  1
  O2-  O506  1  0.67201647  0.08382684  0.97386003  1
  O2-  O507  1  0.67271114  0.34028191  0.31365509  1
  O2-  O508  1  0.66365726  0.31984393  0.65130988  1
  O2-  O509  1  0.67037183  0.33907452  0.99556577  1
  O2-  O510  1  0.65842099  0.60840183  0.30064280  1
  O2-  O511  1  0.59172669  0.54651499  0.62586723  1
  O2-  O512  1  0.66872597  0.56038034  0.97973018  1
  O2-  O513  1  0.65328802  0.83467869  0.30415055  1
  O2-  O514  1  0.65291005  0.81880495  0.63599496  1
  O2-  O515  1  0.67394199  0.83753769  0.96297263  1
  O2-  O516  1  0.92675663  0.07419384  0.31202681  1
  O2-  O517  1  0.91221331  0.08515155  0.63273812  1
  O2-  O518  1  0.90503778  0.07852303  0.99261619  1
  O2-  O519  1  0.92326009  0.34450065  0.30696750  1
  O2-  O520  1  0.93965312  0.33697746  0.64957328  1
  O2-  O521  1  0.90862329  0.33468155  0.97592108  1
  O2-  O522  1  0.85150694  0.58285414  0.30885902  1
  O2-  O523  1  0.90082669  0.57428264  0.64993155  1
  O2-  O524  1  0.90153745  0.57818465  0.97939373  1
  O2-  O525  1  0.91437613  0.81894388  0.31249585  1
  O2-  O526  1  0.90561581  0.82470915  0.64064221  1
  O2-  O527  1  0.89058648  0.86253227  0.98706159  1
  O2-  O528  1  0.06375494  0.19986931  0.02210670  1
  O2-  O529  1  0.08558978  0.15923250  0.35621721  1
  O2-  O530  1  0.08619887  0.17611925  0.66550418  1
  O2-  O531  1  0.07265971  0.42307994  0.02207083  1
  O2-  O532  1  0.08354071  0.41442967  0.35064724  1
  O2-  O533  1  0.10102339  0.41819214  0.67625787  1
  O2-  O534  1  0.05642034  0.65067498  0.02260153  1
  O2-  O535  1  0.07453173  0.67949818  0.35931007  1
  O2-  O536  1  0.04485272  0.59722433  0.69795281  1
  O2-  O537  1  0.06595938  0.93388964  0.02274579  1
  O2-  O538  1  0.07939661  0.91746153  0.36853349  1
  O2-  O539  1  0.03915576  0.95128219  0.69573673  1
  O2-  O540  1  0.34382894  0.17181678  0.02100006  1
  O2-  O541  1  0.33227299  0.16558415  0.36536389  1
  O2-  O542  1  0.33744706  0.15985064  0.65424543  1
  O2-  O543  1  0.33494468  0.42546299  0.02272883  1
  O2-  O544  1  0.31725566  0.40968376  0.37135371  1
  O2-  O545  1  0.32296798  0.41408641  0.69899796  1
  O2-  O546  1  0.32569574  0.66543115  0.01160529  1
  O2-  O547  1  0.31643005  0.66304731  0.35861866  1
  O2-  O548  1  0.32146477  0.66094335  0.68973913  1
  O2-  O549  1  0.35759027  0.91367290  0.01717933  1
  O2-  O550  1  0.32661149  0.91388357  0.35622154  1
  O2-  O551  1  0.35461960  0.92194297  0.68420490  1
  O2-  O552  1  0.59137726  0.15966968  0.01908585  1
  O2-  O553  1  0.58313492  0.16459675  0.31279598  1
  O2-  O554  1  0.58228539  0.16841123  0.68059901  1
  O2-  O555  1  0.58113120  0.41575534  0.02820561  1
  O2-  O556  1  0.58292963  0.40108750  0.36923561  1
  O2-  O557  1  0.58760754  0.40829416  0.68969878  1
  O2-  O558  1  0.57191336  0.67463300  0.00887551  1
  O2-  O559  1  0.56356298  0.67203911  0.34649933  1
  O2-  O560  1  0.57221525  0.65851966  0.68905289  1
  O2-  O561  1  0.59538947  0.91926421  0.01184929  1
  O2-  O562  1  0.58463795  0.92148763  0.35779502  1
  O2-  O563  1  0.58215429  0.90596180  0.69105973  1
  O2-  O564  1  0.83072593  0.17297928  0.02212130  1
  O2-  O565  1  0.84585849  0.17277194  0.33959496  1
  O2-  O566  1  0.82929892  0.16109099  0.68477852  1
  O2-  O567  1  0.83191493  0.42192850  0.02391565  1
  O2-  O568  1  0.84472595  0.44014443  0.34913428  1
  O2-  O569  1  0.89581911  0.44080468  0.71609418  1
  O2-  O570  1  0.83036823  0.68644145  0.01322030  1
  O2-  O571  1  0.90955286  0.66129777  0.34354133  1
  O2-  O572  1  0.83371288  0.66141450  0.69518283  1
  O2-  O573  1  0.83637876  0.89974656  0.00708527  1
  O2-  O574  1  0.81850307  0.89508575  0.34238744  1
  O2-  O575  1  0.82463018  0.91432896  0.65745200  1
