# generated using pymatgen
data_H2O
_symmetry_space_group_name_H-M   'P 1'
_cell_length_a   17.98943037
_cell_length_b   17.99576499
_cell_length_c   21.99881406
_cell_angle_alpha   90.00884491
_cell_angle_beta   89.99920665
_cell_angle_gamma   119.99311851
_symmetry_Int_Tables_number   1
_chemical_formula_structural   H2O
_chemical_formula_sum   'H384 O192'
_cell_volume   6168.04779116
_cell_formula_units_Z   192
loop_
 _symmetry_equiv_pos_site_id
 _symmetry_equiv_pos_as_xyz
  1  'x, y, z'
loop_
 _atom_type_symbol
 _atom_type_oxidation_number
  H+  1.0
  O2-  -2.0
loop_
 _atom_site_type_symbol
 _atom_site_label
 _atom_site_symmetry_multiplicity
 _atom_site_fract_x
 _atom_site_fract_y
 _atom_site_fract_z
 _atom_site_occupancy
  H+  H0  1  0.86624692  0.50717824  0.50671976  1
  H+  H1  1  0.27786143  0.88106622  0.36958468  1
  H+  H2  1  0.92470851  0.23024693  0.37548606  1
  H+  H3  1  0.63460841  0.87460502  0.65571568  1
  H+  H4  1  0.35582579  0.14704258  0.80797246  1
  H+  H5  1  0.63197799  0.53141958  0.66093956  1
  H+  H6  1  0.75842459  0.62680912  0.33748788  1
  H+  H7  1  0.88769703  0.49587334  0.01894133  1
  H+  H8  1  0.65667172  0.37385608  0.18463533  1
  H+  H9  1  0.07355716  0.30311205  0.36047190  1
  H+  H10  1  0.62713906  0.35414715  0.83461466  1
  H+  H11  1  0.87585831  0.75786111  0.65900400  1
  H+  H12  1  0.49489796  0.39536789  0.14871405  1
  H+  H13  1  0.52688765  0.66201024  0.67334574  1
  H+  H14  1  0.03592660  0.50098260  0.33575832  1
  H+  H15  1  0.11320057  0.15208651  0.67415764  1
  H+  H16  1  0.88508577  0.10713218  0.83779377  1
  H+  H17  1  0.88680473  0.52440507  0.22366782  1
  H+  H18  1  0.85055644  0.82991921  0.84573034  1
  H+  H19  1  0.11235180  0.83625460  0.52140213  1
  H+  H20  1  0.62676888  0.35193073  0.49921829  1
  H+  H21  1  0.77666850  0.13864584  0.83069564  1
  H+  H22  1  0.86391421  0.97144625  0.49426849  1
  H+  H23  1  0.12579395  0.26482669  0.17594132  1
  H+  H24  1  0.36793039  0.23543943  0.33089384  1
  H+  H25  1  0.89266968  0.14191065  -0.01129750  1
  H+  H26  1  0.22195325  0.34925486  -0.00904564  1
  H+  H27  1  0.22940238  0.60441755  0.84199754  1
  H+  H28  1  0.37019354  0.92096497  0.82282762  1
  H+  H29  1  0.56773602  0.37618101  0.13095773  1
  H+  H30  1  0.37689221  0.69175915  -0.00126645  1
  H+  H31  1  0.01406045  0.37596929  0.00521579  1
  H+  H32  1  0.28211891  0.92634697  0.82915657  1
  H+  H33  1  0.37429399  0.50408192  0.67177971  1
  H+  H34  1  0.34232688  0.09139965  0.48242007  1
  H+  H35  1  0.10852017  0.88443917  0.15760985  1
  H+  H36  1  0.36518454  0.36786300  0.16618968  1
  H+  H37  1  0.64741064  0.11532663  0.33116322  1
  H+  H38  1  0.71996690  0.60784357  0.50473839  1
  H+  H39  1  0.40246545  0.81520159  0.96903915  1
  H+  H40  1  0.18198893  0.65996264  0.26797712  1
  H+  H41  1  0.62401677  0.51839932  0.32423259  1
  H+  H42  1  0.92065860  0.10157130  0.93379402  1
  H+  H43  1  0.59322446  0.47399290  -0.01399263  1
  H+  H44  1  0.07502722  0.41891152  0.74268191  1
  H+  H45  1  0.23832943  0.05857364  0.69873460  1
  H+  H46  1  0.06159725  0.49688871  0.36131853  1
  H+  H47  1  0.63145585  0.61044725  -0.01460448  1
  H+  H48  1  0.59003982  0.16467109  0.40234819  1
  H+  H49  1  0.17453510  0.07992120  0.25874041  1
  H+  H50  1  0.26472403  0.65589233  0.68491838  1
  H+  H51  1  0.53392049  0.65530231  0.16604589  1
  H+  H52  1  0.87422458  0.27644711  0.00099136  1
  H+  H53  1  0.09824166  0.11456967  0.30456057  1
  H+  H54  1  0.24148164  0.86224819  0.51328108  1
  H+  H55  1  0.42658330  0.56338249  0.93301327  1
  H+  H56  1  0.95533747  0.84797104  0.99185143  1
  H+  H57  1  0.52387327  0.89361653  0.67031914  1
  H+  H58  1  0.64613491  0.87411247  0.50914989  1
  H+  H59  1  0.53509718  0.14118917  0.34124059  1
  H+  H60  1  0.86636687  0.22578096  0.83360090  1
  H+  H61  1  0.76959849  0.88894304  1.02019711  1
  H+  H62  1  0.71583110  0.36203077  0.33018469  1
  H+  H63  1  0.43256839  0.87836616  0.33351849  1
  H+  H64  1  0.87762124  0.85128641  0.51097118  1
  H+  H65  1  0.75775321  0.37060630  0.49152658  1
  H+  H66  1  0.61984293  0.73185219  0.49475688  1
  H+  H67  1  0.33063647  0.66220350  0.77573179  1
  H+  H68  1  0.43274464  1.00884840  0.35919454  1
  H+  H69  1  0.21730439  0.08004819  0.50916217  1
  H+  H70  1  0.33663906  0.91489857  0.10785439  1
  H+  H71  1  0.36525192  0.45819158  -0.00150948  1
  H+  H72  1  0.14222117  1.01824979  0.16656990  1
  H+  H73  1  0.31617182  0.40686683  0.39450259  1
  H+  H74  1  0.63558011  0.25555446  0.65801681  1
  H+  H75  1  0.86051775  0.22405598  0.67866470  1
  H+  H76  1  0.85563597  0.96341477  0.36015714  1
  H+  H77  1  0.53584130  0.12815131  0.16437657  1
  H+  H78  1  0.22203481  0.54258631  0.57005619  1
  H+  H79  1  0.60174164  0.21455583  0.49520082  1
  H+  H80  1  0.85878356  0.96745361  0.82744455  1
  H+  H81  1  0.10445714  0.65165961  0.33990938  1
  H+  H82  1  0.85561344  0.62757781  0.66804001  1
  H+  H83  1  0.85359575  0.46377153  0.67996814  1
  H+  H84  1  0.30384242  0.18191040  0.64618595  1
  H+  H85  1  0.89685555  1.02768582  0.67092391  1
  H+  H86  1  0.12612943  0.72625385  0.00469509  1
  H+  H87  1  0.74422044  0.88626365  0.17347914  1
  H+  H88  1  0.65707947  0.32923242  0.56193169  1
  H+  H89  1  0.37114943  0.28024537  0.16327159  1
  H+  H90  1  0.40931449  0.77957506  0.33188594  1
  H+  H91  1  0.87069624  0.39282218  0.16626476  1
  H+  H92  1  0.39236647  0.62162059  0.17808404  1
  H+  H93  1  0.86609386  0.23661346  0.51154964  1
  H+  H94  1  0.63225508  0.26956622  0.33045391  1
  H+  H95  1  0.85487296  0.71527301  0.49349661  1
  H+  H96  1  0.86822203  0.14770415  0.50268588  1
  H+  H97  1  0.84983890  0.93316785  0.10697716  1
  H+  H98  1  0.68195336  0.84430466  0.23042732  1
  H+  H99  1  0.66414522  0.08954965  0.89736244  1
  H+  H100  1  0.61361719  0.98438142  0.66761321  1
  H+  H101  1  0.38800000  0.27396003  0.65562774  1
  H+  H102  1  0.90802998  0.33917879  0.94274543  1
  H+  H103  1  0.22401684  0.86360525  0.17888346  1
  H+  H104  1  0.33321043  0.18187803  0.09586751  1
  H+  H105  1  0.25827532  0.86245942  0.67730755  1
  H+  H106  1  0.11119861  0.38198320  0.82607941  1
  H+  H107  1  0.57957896  0.66895358  0.39884767  1
  H+  H108  1  0.97882261  0.36579403  0.32370945  1
  H+  H109  1  0.86242231  0.87853412  0.67184273  1
  H+  H110  1  0.18747704  0.85508282  0.32535017  1
  H+  H111  1  0.12464244  0.12774556  0.50984667  1
  H+  H112  1  0.14120524  0.77085532  0.79844554  1
  H+  H113  1  0.52863740  0.63116293  1.00897264  1
  H+  H114  1  0.41248595  0.15688340  0.64252340  1
  H+  H115  1  0.96728092  0.84417024  0.65872754  1
  H+  H116  1  0.38719822  0.87070728  0.66653321  1
  H+  H117  1  0.36162300  0.49600425  0.16495773  1
  H+  H118  1  0.49479526  0.89165448  0.99097632  1
  H+  H119  1  0.23059315  0.59086649  0.99615866  1
  H+  H120  1  0.36178864  0.62585341  0.83032781  1
  H+  H121  1  0.14620253  0.51339460  0.52477004  1
  H+  H122  1  0.63585068  0.86842483  0.84058463  1
  H+  H123  1  0.76616655  0.14634186  0.00281680  1
  H+  H124  1  0.10050465  0.36840165  1.00363086  1
  H+  H125  1  0.39916713  0.63439260  0.51529544  1
  H+  H126  1  0.86869497  0.76214571  0.17505030  1
  H+  H127  1  0.85135883  0.46532583  0.33797086  1
  H+  H128  1  0.63403858  0.02756545  0.99017533  1
  H+  H129  1  0.09554886  0.87471366  0.00027122  1
  H+  H130  1  0.14065064  0.26879388  0.52236382  1
  H+  H131  1  0.13600929  0.50635511  0.99479664  1
  H+  H132  1  -0.03271649  0.36398541  0.67157458  1
  H+  H133  1  0.63032215  0.98152374  0.49405382  1
  H+  H134  1  0.88227680  0.35813284  0.84582985  1
  H+  H135  1  0.25552060  0.37382037  0.33586525  1
  H+  H136  1  0.37563224  0.90857751  0.01193130  1
  H+  H137  1  0.34705900  0.65383560  0.06525807  1
  H+  H138  1  0.10270232  0.37912187  0.16042619  1
  H+  H139  1  0.60008998  0.46074796  0.81668686  1
  H+  H140  1  0.76872631  0.63216462  0.66727687  1
  H+  H141  1  0.97335639  0.36982648  0.52100426  1
  H+  H142  1  0.34821470  0.42997868  0.76026375  1
  H+  H143  1  0.86882511  0.76218165  0.32722494  1
  H+  H144  1  0.87782735  0.50111724  0.84437220  1
  H+  H145  1  0.82305194  0.32402615  0.31253855  1
  H+  H146  1  0.63778626  0.62362494  0.17287806  1
  H+  H147  1  0.09756784  0.59068698  0.82720157  1
  H+  H148  1  0.48536275  0.63014248  0.51665605  1
  H+  H149  1  0.52830007  0.07967640  0.77685256  1
  H+  H150  1  0.83980102  0.24669733  0.31922632  1
  H+  H151  1  0.58533132  0.92076433  0.06424816  1
  H+  H152  1  0.08296517  0.72649482  0.33604791  1
  H+  H153  1  0.22846929  0.12129058  0.31816928  1
  H+  H154  1  0.27991150  0.92442176  0.37028579  1
  H+  H155  1  0.72907916  0.11973120  0.51300557  1
  H+  H156  1  0.39997958  0.12300172  0.32424749  1
  H+  H157  1  0.76368874  0.37559955  0.83246495  1
  H+  H158  1  0.39522434  0.51684512  0.83859586  1
  H+  H159  1  0.93916812  0.83694916  0.84610761  1
  H+  H160  1  0.14212752  0.59539222  0.62059570  1
  H+  H161  1  0.58283625  0.16820115  0.74523783  1
  H+  H162  1  0.51391610  0.37116745  0.81610096  1
  H+  H163  1  0.60007433  0.22367617  0.00497550  1
  H+  H164  1  0.76127943  0.38075442  0.67621624  1
  H+  H165  1  0.63337902  0.53350398  0.16735853  1
  H+  H166  1  0.15143512  0.73095879  0.19590625  1
  H+  H167  1  0.35036533  0.12963494  0.00484555  1
  H+  H168  1  0.01891714  0.14117977  0.68080102  1
  H+  H169  1  0.90578161  1.00145080  0.16066076  1
  H+  H170  1  0.47996159  0.85577125  0.17205264  1
  H+  H171  1  0.88753425  0.59754142  0.84523127  1
  H+  H172  1  0.35547931  0.38226530  0.48497802  1
  H+  H173  1  0.54575733  0.88569241  0.33791426  1
  H+  H174  1  0.49725727  0.39297616  0.65258985  1
  H+  H175  1  0.40904990  0.40083186  0.65249242  1
  H+  H176  1  0.89058379  0.11364792  0.67189275  1
  H+  H177  1  0.23513414  0.87027774  0.00580141  1
  H+  H178  1  0.85010816  0.87558855  0.01887787  1
  H+  H179  1  0.26515773  0.00659724  0.65703225  1
  H+  H180  1  0.36347133  -0.01093200  1.01459908  1
  H+  H181  1  0.37661312  0.26884657  0.81984943  1
  H+  H182  1  0.72718722  0.11661446  0.66339747  1
  H+  H183  1  0.39006625  0.58357370  0.99351504  1
  H+  H184  1  0.61499520  0.64051773  0.49266787  1
  H+  H185  1  0.11879020  0.93342033  0.67760414  1
  H+  H186  1  0.62749113  0.26631935  0.83777883  1
  H+  H187  1  0.83171864  0.16480698  0.73777271  1
  H+  H188  1  0.28691212  0.66538723  0.34153366  1
  H+  H189  1  0.48539315  0.89867590  0.82804210  1
  H+  H190  1  0.11459266  0.23792971  0.30937550  1
  H+  H191  1  0.10568308  0.21255354  0.02179350  1
  H+  H192  1  0.76530178  0.87535496  0.34597385  1
  H+  H193  1  0.64485072  0.11497224  0.17258044  1
  H+  H194  1  0.00084765  0.35852234  0.29743050  1
  H+  H195  1  0.26745582  0.38154313  0.49213328  1
  H+  H196  1  0.32205696  0.92367614  0.72824165  1
  H+  H197  1  0.21127131  0.10456486  -0.00032271  1
  H+  H198  1  0.98226609  0.11034715  0.49952231  1
  H+  H199  1  0.64046091  0.11715942  0.83344701  1
  H+  H200  1  0.85123416  0.69936563  0.84234447  1
  H+  H201  1  0.14051828  0.10590424  0.17105240  1
  H+  H202  1  0.16243481  0.57662036  0.30504424  1
  H+  H203  1  0.62296308  -0.01346265  0.82061994  1
  H+  H204  1  0.11102912  0.81059802  0.67334177  1
  H+  H205  1  0.38414237  0.77722054  0.51753125  1
  H+  H206  1  0.63707779  0.76891795  0.32307896  1
  H+  H207  1  0.36839796  0.38531590  0.81703626  1
  H+  H208  1  0.37416105  0.51993137  0.32946948  1
  H+  H209  1  0.35777690  0.86887138  0.16289255  1
  H+  H210  1  0.87438587  0.35717298  0.67220980  1
  H+  H211  1  0.64717376  0.86267284  0.32414913  1
  H+  H212  1  0.62265358  0.39600673  0.66049820  1
  H+  H213  1  0.10736531  0.37767237  0.51131373  1
  H+  H214  1  0.03253487  0.12195068  0.25459673  1
  H+  H215  1  0.63282890  0.77874711  -0.00723046  1
  H+  H216  1  0.97317949  0.36130240  0.84922575  1
  H+  H217  1  0.92294190  0.08162865  0.44225166  1
  H+  H218  1  0.47071281  0.13430569  0.83472658  1
  H+  H219  1  0.77588093  0.13217201  0.15446697  1
  H+  H220  1  0.62692049  0.11319294  0.99042476  1
  H+  H221  1  -0.00329864  0.87048917  0.34990311  1
  H+  H222  1  0.96739731  0.60683914  0.31980890  1
  H+  H223  1  0.97169275  0.10234025  0.84062985  1
  H+  H224  1  0.61594922  0.22475240  0.16145278  1
  H+  H225  1  0.16083810  0.32330633  0.77054521  1
  H+  H226  1  0.09943264  0.48280872  0.68652758  1
  H+  H227  1  0.52384965  0.38699794  0.48739947  1
  H+  H228  1  0.51132205  0.38438726  0.33210883  1
  H+  H229  1  0.11967985  0.10068656  1.00558307  1
  H+  H230  1  0.77386737  0.60813955  0.82461654  1
  H+  H231  1  0.59887825  0.38000957  0.33369791  1
  H+  H232  1  0.61288208  0.35335767  0.99045317  1
  H+  H233  1  0.17784476  0.76467971  0.78878122  1
  H+  H234  1  0.35848222  0.73981577  0.68137024  1
  H+  H235  1  0.99598688  0.61581172  0.99900069  1
  H+  H236  1  0.11635716  0.21114091  0.82892748  1
  H+  H237  1  0.85155285  0.43374871  0.08564770  1
  H+  H238  1  0.86164217  0.72092388  0.02241787  1
  H+  H239  1  0.38442760  0.04573285  0.83323274  1
  H+  H240  1  0.97437232  0.09379144  0.34040879  1
  H+  H241  1  0.37412032  0.34319740  0.97528967  1
  H+  H242  1  0.87519687  0.39486265  0.01967537  1
  H+  H243  1  0.73377469  0.86740907  0.51600698  1
  H+  H244  1  0.98637465  0.58328802  0.82933779  1
  H+  H245  1  0.37422514  0.00676323  0.51596331  1
  H+  H246  1  0.47075943  0.11593586  -0.00760161  1
  H+  H247  1  0.40571204  -0.00585444  0.18427659  1
  H+  H248  1  0.89269856  0.10509489  0.35792805  1
  H+  H249  1  0.97139628  0.58628283  0.65589031  1
  H+  H250  1  0.61365576  0.88914715  1.00377570  1
  H+  H251  1  0.38633589  0.63158950  0.66819666  1
  H+  H252  1  0.13415409  0.28406443  0.67151242  1
  H+  H253  1  0.36854566  0.85569622  0.52430520  1
  H+  H254  1  0.60211111  0.63296995  0.33920305  1
  H+  H255  1  0.78326542  0.39418580  0.16702940  1
  H+  H256  1  0.13176905  0.51624912  0.13271584  1
  H+  H257  1  0.06569439  0.96787511  0.82811071  1
  H+  H258  1  0.27826086  0.63909360  0.49978865  1
  H+  H259  1  0.11359622  0.47162552  0.83570987  1
  H+  H260  1  0.63055761  0.52085603  0.50263634  1
  H+  H261  1  0.62984084  0.77485840  0.65841278  1
  H+  H262  1  0.36222453  0.64135288  0.34422452  1
  H+  H263  1  0.46580786  0.35120093  0.97479346  1
  H+  H264  1  0.27825056  0.14721110  0.15608708  1
  H+  H265  1  0.77909952  0.88877765  0.67089079  1
  H+  H266  1  0.13735035  0.87319730  0.85148956  1
  H+  H267  1  0.37329884  0.36402424  0.32135966  1
  H+  H268  1  0.21290156  0.35692666  0.17740810  1
  H+  H269  1  0.11119276  0.74648109  0.51326115  1
  H+  H270  1  0.39178781  0.27898952  0.51277041  1
  H+  H271  1  0.63498511  0.10964776  0.50861543  1
  H+  H272  1  0.63187164  0.97748790  0.33863380  1
  H+  H273  1  0.61308731  0.97606398  0.15976288  1
  H+  H274  1  0.63087092  0.16308158  0.65899930  1
  H+  H275  1  0.09936402  0.85625858  0.33000664  1
  H+  H276  1  0.28816986  0.41071904  0.67093809  1
  H+  H277  1  0.01250426  0.13591959  0.01344996  1
  H+  H278  1  0.12539039  0.63718041  0.99881096  1
  H+  H279  1  0.27556083  0.63615932  0.13962500  1
  H+  H280  1  0.51486480  0.12262985  0.49237958  1
  H+  H281  1  0.72220391  0.42128832  0.61349790  1
  H+  H282  1  0.59144776  0.92683673  0.76084250  1
  H+  H283  1  0.87799092  0.64182947  1.03144865  1
  H+  H284  1  0.06819063  0.39663839  0.09826913  1
  H+  H285  1  0.86889152  0.59778438  0.50844593  1
  H+  H286  1  0.00512570  0.86445488  0.50417903  1
  H+  H287  1  0.14869371  0.58661556  0.08181910  1
  H+  H288  1  0.11527352  0.16591221  0.44807633  1
  H+  H289  1  0.00249991  0.62265757  0.49411604  1
  H+  H290  1  0.42718419  0.35314623  0.56249628  1
  H+  H291  1  0.15303126  0.83702820  0.23177081  1
  H+  H292  1  0.05738128  0.89130745  0.40908109  1
  H+  H293  1  0.65609985  0.58139736  0.26648029  1
  H+  H294  1  0.90738178  0.84047863  0.24160063  1
  H+  H295  1  0.09288530  0.96128528  -0.00549915  1
  H+  H296  1  0.33710764  0.16854050  0.38720241  1
  H+  H297  1  0.46584762  0.60827039  0.33271104  1
  H+  H298  1  0.05818876  0.89167903  0.73454113  1
  H+  H299  1  0.11388263  0.69359202  0.67282678  1
  H+  H300  1  0.49468136  0.14557896  0.64302526  1
  H+  H301  1  0.04203085  0.25960006  0.42409008  1
  H+  H302  1  0.06128416  0.14809531  0.11154007  1
  H+  H303  1  0.55602495  0.42136165  0.04772159  1
  H+  H304  1  0.58423333  0.41246935  0.72387336  1
  H+  H305  1  0.48804387  0.01614230  0.22215010  1
  H+  H306  1  0.73601660  0.11694314  0.32722964  1
  H+  H307  1  0.41583142  0.08838198  0.56226414  1
  H+  H308  1  0.41106547  0.09033374  0.93282281  1
  H+  H309  1  0.84282056  0.18102929  0.41552330  1
  H+  H310  1  0.40321146  0.33882384  0.25976956  1
  H+  H311  1  0.41743991  0.58939707  0.23929933  1
  H+  H312  1  0.85118126  0.37913060  0.49653221  1
  H+  H313  1  0.33517010  0.39495965  0.05570349  1
  H+  H314  1  0.06788362  0.39037163  0.45214468  1
  H+  H315  1  0.64874627  0.32321506  0.93630982  1
  H+  H316  1  0.82545767  0.17132510  0.06393800  1
  H+  H317  1  0.33514490  0.67505301  0.43873318  1
  H+  H318  1  0.82199562  0.40540534  0.77246091  1
  H+  H319  1  0.64110007  0.57811852  0.92060605  1
  H+  H320  1  0.66737712  0.84262004  0.59017174  1
  H+  H321  1  0.85934035  0.22349478  0.15143131  1
  H+  H322  1  0.42408959  0.60973385  0.60778782  1
  H+  H323  1  0.90371370  0.81660240  0.57002263  1
  H+  H324  1  0.57996621  0.41493857  0.42700462  1
  H+  H325  1  0.48667167  0.59924598  0.84203049  1
  H+  H326  1  0.82136036  0.40754110  0.39918140  1
  H+  H327  1  0.84665754  0.68632454  0.11256612  1
  H+  H328  1  0.86890631  0.85140723  0.33518972  1
  H+  H329  1  0.66331919  0.84034937  0.93417623  1
  H+  H330  1  0.88587747  0.31254586  0.22620362  1
  H+  H331  1  0.23688195  0.36476879  0.81595987  1
  H+  H332  1  0.35060064  0.21651973  -0.00544826  1
  H+  H333  1  0.17710238  0.05849323  0.57598456  1
  H+  H334  1  0.82983553  0.90888208  0.76698494  1
  H+  H335  1  0.30128690  0.89197556  0.45447818  1
  H+  H336  1  0.77673908  0.65830505  0.17049117  1
  H+  H337  1  0.61512220  0.65881667  0.67112088  1
  H+  H338  1  0.40895823  0.32205290  0.88307628  1
  H+  H339  1  0.67000830  0.08877542  0.60200128  1
  H+  H340  1  0.14530266  0.32039743  0.27007593  1
  H+  H341  1  0.15459947  0.30727267  0.93737469  1
  H+  H342  1  0.06044970  0.66122292  0.43506338  1
  H+  H343  1  0.09644784  0.95151419  0.50551747  1
  H+  H344  1  0.84729011  0.62686759  0.33410290  1
  H+  H345  1  0.43148531  0.07732849  0.27425849  1
  H+  H346  1  0.16960580  0.57634423  0.90280373  1
  H+  H347  1  0.90607715  0.56343570  0.60054358  1
  H+  H348  1  0.71975842  0.86086042  0.84233994  1
  H+  H349  1  0.06195092  0.60732163  0.76072250  1
  H+  H350  1  0.60919532  0.92229014  0.43423572  1
  H+  H351  1  0.36471708  0.72419896  0.15579524  1
  H+  H352  1  0.66925224  0.32791822  0.24060253  1
  H+  H353  1  0.14026900  0.79048612  0.60930739  1
  H+  H354  1  0.15171638  0.64458299  0.17355024  1
  H+  H355  1  0.43809702  0.89080437  0.89051993  1
  H+  H356  1  0.26684839  0.04751472  0.43436648  1
  H+  H357  1  0.62497386  0.74322763  0.16041475  1
  H+  H358  1  0.91028573  0.34050190  0.57867043  1
  H+  H359  1  0.16821474  0.33405921  0.57895716  1
  H+  H360  1  0.82500087  0.65735269  0.43280932  1
  H+  H361  1  0.61997643  0.89153915  0.15809622  1
  H+  H362  1  0.47169578  0.97985621  0.41306049  1
  H+  H363  1  0.08282212  0.15246773  0.77249695  1
  H+  H364  1  0.88130108  0.80751405  0.94330064  1
  H+  H365  1  0.82263790  0.90054303  0.44239329  1
  H+  H366  1  0.34505462  0.18758593  0.74560797  1
  H+  H367  1  0.13543889  0.37454459  0.67035636  1
  H+  H368  1  0.02598901  0.89334727  0.16545509  1
  H+  H369  1  0.41368228  0.83570224  0.60828403  1
  H+  H370  1  0.13443839  0.09065057  0.84798380  1
  H+  H371  1  -0.01509705  0.94356392  0.78609191  1
  H+  H372  1  0.42584496  0.82539438  0.23368746  1
  H+  H373  1  0.65808408  0.58674918  0.60053805  1
  H+  H374  1  0.96719557  0.35657852  0.17728464  1
  H+  H375  1  0.88798182  0.88119237  0.17969381  1
  H+  H376  1  0.18249984  0.85791992  0.94583915  1
  H+  H377  1  0.67275701  0.08377332  0.23277037  1
  H+  H378  1  0.29075198  0.45838016  0.11444609  1
  H+  H379  1  0.13849750  0.05352689  0.91253514  1
  H+  H380  1  0.92610345  0.57801547  0.94470837  1
  H+  H381  1  0.18426765  0.96853605  0.87112540  1
  H+  H382  1  0.58981911  0.67287176  0.06657982  1
  H+  H383  1  0.57712629  0.16287009  0.06377751  1
  O2-  O384  1  0.07795668  0.15843967  0.15595328  1
  O2-  O385  1  0.10243945  0.16379673  0.49134346  1
  O2-  O386  1  0.08438619  0.14972952  0.81769243  1
  O2-  O387  1  0.07281269  0.40851742  0.14288968  1
  O2-  O388  1  0.07924942  0.40971145  0.49488937  1
  O2-  O389  1  0.07746792  0.41146426  0.81958724  1
  O2-  O390  1  0.15267428  0.67857235  0.20912160  1
  O2-  O391  1  0.06291550  0.65750653  0.47989942  1
  O2-  O392  1  0.05038124  0.59576235  0.80521148  1
  O2-  O393  1  0.08285682  0.92007012  0.14603273  1
  O2-  O394  1  0.06719199  0.89159969  0.49079230  1
  O2-  O395  1  0.02268015  0.92218215  0.79933830  1
  O2-  O396  1  0.33696074  0.18925670  0.14083076  1
  O2-  O397  1  0.29607860  0.09846125  0.46009525  1
  O2-  O398  1  0.32543395  0.17415519  0.78833263  1
  O2-  O399  1  0.32045554  0.44043725  0.14285978  1
  O2-  O400  1  0.32045838  0.40536543  0.46777629  1
  O2-  O401  1  0.34006339  0.41984282  0.80529467  1
  O2-  O402  1  0.33954686  0.66494850  0.13794328  1
  O2-  O403  1  0.33715695  0.67536735  0.48413256  1
  O2-  O404  1  0.32468217  0.64992447  0.82002890  1
  O2-  O405  1  0.33379437  0.90693485  0.15321845  1
  O2-  O406  1  0.30306508  0.89841196  0.49867246  1
  O2-  O407  1  0.33667115  0.94875769  0.80631046  1
  O2-  O408  1  0.59155299  0.16639971  0.14383439  1
  O2-  O409  1  0.57619354  0.15424135  0.47917148  1
  O2-  O410  1  0.56594683  0.14021568  0.78675809  1
  O2-  O411  1  0.55524234  0.42302346  0.13091145  1
  O2-  O412  1  0.58413484  0.41510105  0.47238266  1
  O2-  O413  1  0.57631790  0.40042197  0.80363892  1
  O2-  O414  1  0.59237287  0.68134460  0.14810133  1
  O2-  O415  1  0.58729517  0.67332156  0.47728907  1
  O2-  O416  1  0.59233250  0.60831035  0.80897657  1
  O2-  O417  1  0.58348222  0.91572750  0.14385888  1
  O2-  O418  1  0.60880714  0.92190624  0.47935365  1
  O2-  O419  1  0.58824062  0.92621776  0.80610884  1
  O2-  O420  1  0.83226969  0.16475254  0.13414104  1
  O2-  O421  1  0.83500672  0.17695425  0.49397002  1
  O2-  O422  1  0.83736699  0.16684620  0.81576911  1
  O2-  O423  1  0.84429915  0.42937799  0.15434397  1
  O2-  O424  1  0.81884057  0.40454936  0.47706423  1
  O2-  O425  1  0.82493003  0.40577359  0.81834363  1
  O2-  O426  1  0.83887458  0.69413778  0.15971194  1
  O2-  O427  1  0.82411828  0.65480260  0.47815538  1
  O2-  O428  1  0.83578517  0.63938940  0.83112577  1
  O2-  O429  1  0.85811596  0.94211835  0.15296782  1
  O2-  O430  1  0.82955141  0.90802505  0.48805153  1
  O2-  O431  1  0.83091778  0.90693715  0.81227482  1
  O2-  O432  1  0.17616523  0.07997216  0.18148854  1
  O2-  O433  1  0.16344182  0.06266726  0.53343321  1
  O2-  O434  1  0.13977853  0.04379660  0.86746909  1
  O2-  O435  1  0.15207814  0.32626069  0.18969361  1
  O2-  O436  1  0.16339455  0.32979022  0.53375099  1
  O2-  O437  1  0.17153527  0.32991062  0.81437371  1
  O2-  O438  1  0.16611586  0.57918241  0.12247728  1
  O2-  O439  1  0.18763709  0.56337004  0.54981743  1
  O2-  O440  1  0.16696710  0.57354438  0.85760061  1
  O2-  O441  1  0.16152940  0.83088117  0.18755383  1
  O2-  O442  1  0.14166486  0.80443975  0.53570081  1
  O2-  O443  1  0.19026384  0.91672179  0.87052158  1
  O2-  O444  1  0.45600704  0.04289196  0.20695339  1
  O2-  O445  1  0.40716581  0.07068820  0.51724743  1
  O2-  O446  1  0.41177337  0.10587824  0.85080582  1
  O2-  O447  1  0.40026502  0.34318879  0.17951247  1
  O2-  O448  1  0.42101757  0.34110595  0.51716378  1
  O2-  O449  1  0.41237698  0.32868071  0.83754169  1
  O2-  O450  1  0.42268302  0.59169348  0.19359639  1
  O2-  O451  1  0.42909089  0.60846363  0.53698930  1
  O2-  O452  1  0.42766706  0.57530992  0.85773358  1
  O2-  O453  1  0.41979101  0.82300111  0.18830847  1
  O2-  O454  1  0.40704591  0.83424544  0.53722253  1
  O2-  O455  1  0.42923430  0.88564238  0.84613644  1
  O2-  O456  1  0.66838833  0.07853571  0.18770501  1
  O2-  O457  1  0.66783130  0.08321460  0.52579484  1
  O2-  O458  1  0.67139050  0.09035682  0.85180970  1
  O2-  O459  1  0.67492536  0.33261608  0.19439753  1
  O2-  O460  1  0.65294751  0.31863146  0.51611881  1
  O2-  O461  1  0.65807802  0.32531660  0.85257971  1
  O2-  O462  1  0.66627927  0.59058717  0.18671423  1
  O2-  O463  1  0.65906527  0.58053728  0.51912053  1
  O2-  O464  1  0.63270886  0.57423164  0.83410606  1
  O2-  O465  1  0.68275561  0.85006475  0.18505776  1
  O2-  O466  1  0.67183338  0.83945528  0.52989337  1
  O2-  O467  1  0.66220329  0.83783578  0.86059540  1
  O2-  O468  1  0.99900307  0.10352268  0.19070345  1
  O2-  O469  1  0.92128729  0.08460953  0.48795381  1
  O2-  O470  1  0.91047785  0.07233686  0.85308034  1
  O2-  O471  1  0.90403034  0.32820151  0.18262002  1
  O2-  O472  1  0.91162675  0.34014017  0.53296964  1
  O2-  O473  1  0.91290429  0.33041853  0.86467005  1
  O2-  O474  1  0.90756739  0.58255632  0.24036192  1
  O2-  O475  1  0.89749702  0.56625891  0.52452328  1
  O2-  O476  1  0.91844886  0.56345757  0.85695438  1
  O2-  O477  1  0.91053839  0.84240240  0.19565334  1
  O2-  O478  1  0.90465205  0.81693848  0.52405863  1
  O2-  O479  1  0.88062206  0.80051532  0.86264969  1
  O2-  O480  1  0.16911826  0.08647628  0.30344876  1
  O2-  O481  1  0.22468787  0.02839627  0.65968352  1
  O2-  O482  1  0.14975247  0.07239475  0.98672771  1
  O2-  O483  1  0.14363385  0.30308897  0.31325631  1
  O2-  O484  1  0.16862441  0.34562140  0.65894647  1
  O2-  O485  1  0.15918938  0.31896937  0.98088753  1
  O2-  O486  1  0.18997044  0.63864272  0.31009987  1
  O2-  O487  1  0.14405049  0.59775888  0.66594258  1
  O2-  O488  1  0.17019494  0.56880527  0.98338810  1
  O2-  O489  1  0.12940726  0.82639046  0.30849412  1
  O2-  O490  1  0.14293856  0.78400363  0.65499623  1
  O2-  O491  1  0.17658484  0.83588708  0.98765734  1
  O2-  O492  1  0.43302100  0.09225831  0.31796418  1
  O2-  O493  1  0.43373532  0.11789903  0.63001632  1
  O2-  O494  1  0.40945235  0.08511273  0.97789994  1
  O2-  O495  1  0.40656222  0.33703333  0.30502481  1
  O2-  O496  1  0.43639681  0.36878180  0.63515836  1
  O2-  O497  1  0.40520240  0.31495214  0.95874032  1
  O2-  O498  1  0.40601317  0.58133568  0.31608604  1
  O2-  O499  1  0.42136674  0.60601775  0.65438328  1
  O2-  O500  1  0.42314867  0.55640985  0.97875996  1
  O2-  O501  1  0.44468619  0.83703652  0.31154126  1
  O2-  O502  1  0.41818339  0.83981551  0.65483840  1
  O2-  O503  1  0.43676171  0.87720175  0.97199566  1
  O2-  O504  1  0.67597035  0.08388234  0.31431364  1
  O2-  O505  1  0.66704980  0.09152195  0.64758102  1
  O2-  O506  1  0.66052354  0.08707693  0.97353173  1
  O2-  O507  1  0.65584535  0.32875493  0.31314389  1
  O2-  O508  1  0.68080363  0.36665064  0.63194988  1
  O2-  O509  1  0.64255809  0.32067114  0.98097089  1
  O2-  O510  1  0.65477163  0.58030696  0.31183735  1
  O2-  O511  1  0.66001939  0.59184498  0.64571382  1
  O2-  O512  1  0.64629064  0.57079308  0.96435380  1
  O2-  O513  1  0.67393686  0.82900399  0.30787051  1
  O2-  O514  1  0.66500458  0.84252353  0.64090040  1
  O2-  O515  1  0.66094350  0.84000695  0.98043002  1
  O2-  O516  1  0.91954052  0.06965223  0.36646472  1
  O2-  O517  1  0.92787684  0.08953574  0.66008812  1
  O2-  O518  1  0.93758814  0.12971349  0.97392565  1
  O2-  O519  1  0.82359355  0.27713455  0.28924578  1
  O2-  O520  1  0.90781675  0.33063195  0.65522529  1
  O2-  O521  1  0.90927092  0.34015275  0.98835443  1
  O2-  O522  1  0.90433858  0.57002690  0.30659396  1
  O2-  O523  1  0.91021719  0.56297607  0.64618590  1
  O2-  O524  1  0.93152721  0.58208484  0.98943648  1
  O2-  O525  1  0.89945114  0.82400147  0.31505341  1
  O2-  O526  1  0.90714770  0.82078987  0.64482800  1
  O2-  O527  1  0.89065220  0.81404776  0.98798529  1
  O2-  O528  1  0.06884375  0.15276153  0.03550330  1
  O2-  O529  1  0.05551715  0.13572403  0.29977822  1
  O2-  O530  1  0.08333639  0.17757582  0.69466514  1
  O2-  O531  1  0.07546726  0.40318124  0.01910612  1
  O2-  O532  1  0.03232706  0.29467123  0.39498883  1
  O2-  O533  1  0.07577540  0.42147077  0.69697274  1
  O2-  O534  1  0.09478974  0.66453419  0.01698595  1
  O2-  O535  1  0.05968144  0.66614261  0.35166968  1
  O2-  O536  1  0.08433495  0.62754505  0.68465457  1
  O2-  O537  1  0.05899721  0.89835674  -0.01195674  1
  O2-  O538  1  0.05718823  0.89652329  0.36432730  1
  O2-  O539  1  0.07072738  0.87869447  0.69287918  1
  O2-  O540  1  0.31977928  0.16087375  0.01699819  1
  O2-  O541  1  0.34427332  0.17370529  0.34278577  1
  O2-  O542  1  0.35906014  0.21018614  0.66686846  1
  O2-  O543  1  0.32717343  0.39592609  0.01171506  1
  O2-  O544  1  0.31652674  0.40983694  0.34837084  1
  O2-  O545  1  0.34916919  0.44136041  0.68339518  1
  O2-  O546  1  0.34070851  0.63842692  0.02031811  1
  O2-  O547  1  0.34383252  0.68176433  0.36029087  1
  O2-  O548  1  0.32539057  0.67822763  0.69573276  1
  O2-  O549  1  0.34016128  0.93000164  0.03202972  1
  O2-  O550  1  0.43453584  0.95918433  0.37754855  1
  O2-  O551  1  0.31579712  0.91291954  0.68355332  1
  O2-  O552  1  0.57235921  0.16125961  0.01866085  1
  O2-  O553  1  0.59563759  0.16805277  0.35682316  1
  O2-  O554  1  0.60161255  0.19544213  0.67227430  1
  O2-  O555  1  0.56054486  0.41338809  0.00366827  1
  O2-  O556  1  0.57145830  0.41330965  0.34819382  1
  O2-  O557  1  0.58729607  0.42232106  0.67922477  1
  O2-  O558  1  0.58886489  0.67091290  0.02136033  1
  O2-  O559  1  0.57392691  0.66570326  0.35338652  1
  O2-  O560  1  0.59032007  0.69583345  0.68167632  1
  O2-  O561  1  0.58495357  0.92260932  0.01882829  1
  O2-  O562  1  0.60618452  0.91750319  0.35393595  1
  O2-  O563  1  0.58692698  0.92299058  0.68106406  1
  O2-  O564  1  0.82636775  0.17991212  0.01777105  1
  O2-  O565  1  0.86224095  0.18613628  0.37217729  1
  O2-  O566  1  0.83060503  0.16281761  0.69220073  1
  O2-  O567  1  0.85454060  0.43434780  0.03805239  1
  O2-  O568  1  0.81600151  0.40603408  0.35376219  1
  O2-  O569  1  0.81973737  0.40411099  0.69684078  1
  O2-  O570  1  0.84725637  0.66942379  0.04847396  1
  O2-  O571  1  0.81941298  0.65715601  0.35226110  1
  O2-  O572  1  0.83003946  0.66262921  0.68008317  1
  O2-  O573  1  0.82717259  0.91030288  0.03787516  1
  O2-  O574  1  0.82203502  0.89995814  0.36783309  1
  O2-  O575  1  0.83738962  0.91361352  0.68809310  1
