# generated using pymatgen
data_H2O
_symmetry_space_group_name_H-M   'P 1'
_cell_length_a   17.98217733
_cell_length_b   17.98031385
_cell_length_c   21.99511334
_cell_angle_alpha   90.02793411
_cell_angle_beta   90.00611704
_cell_angle_gamma   120.00650233
_symmetry_Int_Tables_number   1
_chemical_formula_structural   H2O
_chemical_formula_sum   'H384 O192'
_cell_volume   6158.39914831
_cell_formula_units_Z   192
loop_
 _symmetry_equiv_pos_site_id
 _symmetry_equiv_pos_as_xyz
  1  'x, y, z'
loop_
 _atom_type_symbol
 _atom_type_oxidation_number
  H+  1.0
  O2-  -2.0
loop_
 _atom_site_type_symbol
 _atom_site_label
 _atom_site_symmetry_multiplicity
 _atom_site_fract_x
 _atom_site_fract_y
 _atom_site_fract_z
 _atom_site_occupancy
  H+  H0  1  0.52465017  0.14067576  0.32841867  1
  H+  H1  1  0.01485840  0.64271563  0.66279690  1
  H+  H2  1  0.53169995  0.87979967  0.15473880  1
  H+  H3  1  0.91609784  0.08128337  1.00006567  1
  H+  H4  1  0.67812403  0.35680306  0.90331212  1
  H+  H5  1  0.36151821  0.47600801  0.34298967  1
  H+  H6  1  0.87723034  0.72948880  0.23290665  1
  H+  H7  1  0.37047314  0.88538876  0.16466004  1
  H+  H8  1  0.11932706  0.77847016  0.64944162  1
  H+  H9  1  0.68928216  0.69773295  0.29677207  1
  H+  H10  1  0.47204511  0.61548728  0.34281395  1
  H+  H11  1  0.33741622  0.66682326  0.10833748  1
  H+  H12  1  0.95320535  0.59460573  0.33099548  1
  H+  H13  1  0.05917538  0.17158159  0.00385716  1
  H+  H14  1  0.87422313  0.09135539  0.30689395  1
  H+  H15  1  0.30101753  0.64235391  0.30203145  1
  H+  H16  1  0.23223395  0.86376699  0.99769953  1
  H+  H17  1  0.33217462  0.41916873  0.43554836  1
  H+  H18  1  0.38219872  0.36743946  0.65348035  1
  H+  H19  1  0.51166273  0.88982664  0.49669309  1
  H+  H20  1  0.62484515  0.35092218  0.50435239  1
  H+  H21  1  0.77440768  0.88533263  0.82824827  1
  H+  H22  1  0.62681408  0.35925048  0.17898009  1
  H+  H23  1  0.29735120  0.37845662  0.99905721  1
  H+  H24  1  0.73490890  0.84530595  0.50740629  1
  H+  H25  1  0.09982499  0.97562887  0.49038770  1
  H+  H26  1  0.60516991  0.64810287  0.36204098  1
  H+  H27  1  0.72490231  0.59757562  0.04071210  1
  H+  H28  1  0.39747061  0.61993094  0.18221688  1
  H+  H29  1  0.87484066  0.50625745  0.50811603  1
  H+  H30  1  0.14733743  0.61760080  0.50642834  1
  H+  H31  1  0.40405835  1.00437071  0.00921672  1
  H+  H32  1  0.40860059  0.43662783  0.79563365  1
  H+  H33  1  0.87635883  0.11148674  0.50758119  1
  H+  H34  1  0.05269210  0.21774913  0.80829013  1
  H+  H35  1  0.73830555  0.38740357  0.83847452  1
  H+  H36  1  0.53124739  0.64007285  0.16209437  1
  H+  H37  1  0.36814767  0.64462692  0.00979676  1
  H+  H38  1  0.87922296  0.53425698  0.16914143  1
  H+  H39  1  0.13780543  0.75010936  0.48925124  1
  H+  H40  1  0.38257841  0.61348909  0.33400870  1
  H+  H41  1  0.63630359  0.37855962  0.83693395  1
  H+  H42  1  0.92691531  0.65272775  -0.00341354  1
  H+  H43  1  0.14341301  1.00567453  0.82335783  1
  H+  H44  1  0.35738011  0.22718890  0.66799275  1
  H+  H45  1  0.11386316  0.65912250  0.80374816  1
  H+  H46  1  0.40300463  0.03014766  0.32859091  1
  H+  H47  1  0.39195604  0.86872242  0.65857626  1
  H+  H48  1  0.14002061  0.11740587  0.66180724  1
  H+  H49  1  0.12306881  0.12775351  0.84721870  1
  H+  H50  1  0.10546377  0.19145528  0.75777766  1
  H+  H51  1  0.62553212  0.00360669  0.98883690  1
  H+  H52  1  0.85639761  0.13012026  0.67346090  1
  H+  H53  1  0.71935571  0.10749587  0.83452098  1
  H+  H54  1  0.62418182  0.51401391  0.83128225  1
  H+  H55  1  0.14353612  0.59611721  0.87549304  1
  H+  H56  1  0.88115842  0.52066697  0.66544292  1
  H+  H57  1  0.79781083  0.89126652  0.14859475  1
  H+  H58  1  0.28257834  0.64362374  0.17081948  1
  H+  H59  1  0.34011978  0.43722606  0.10593925  1
  H+  H60  1  0.38463627  0.11563693  -0.00721770  1
  H+  H61  1  0.52211444  0.36597581  0.00866995  1
  H+  H62  1  0.19268056  0.27832135  0.84152854  1
  H+  H63  1  0.38210930  0.36092062  0.32869532  1
  H+  H64  1  0.01358395  0.88275617  0.49262792  1
  H+  H65  1  0.01793051  0.87035011  0.33037844  1
  H+  H66  1  0.21242874  0.10321144  0.32098268  1
  H+  H67  1  0.57107880  0.15015818  0.41640711  1
  H+  H68  1  0.37260323  0.23457404  0.82788446  1
  H+  H69  1  0.37084660  0.97807554  0.67185185  1
  H+  H70  1  0.10587979  0.37990738  0.34371440  1
  H+  H71  1  0.83752876  0.68966083  0.04504993  1
  H+  H72  1  0.85759155  0.21780958  0.49987789  1
  H+  H73  1  0.19596746  0.21926825  0.71037262  1
  H+  H74  1  0.57694515  0.16028254  0.76879669  1
  H+  H75  1  0.61162505  -0.02946801  0.82150125  1
  H+  H76  1  0.07726821  0.42365370  0.61826429  1
  H+  H77  1  0.14009801  0.06412315  0.22635079  1
  H+  H78  1  0.27389099  0.65243996  0.67341608  1
  H+  H79  1  0.35420928  0.12960472  0.33745789  1
  H+  H80  1  0.63594119  0.85927401  0.83737645  1
  H+  H81  1  0.22288472  0.36543988  0.65231261  1
  H+  H82  1  0.11819476  0.72914362  0.16236559  1
  H+  H83  1  0.39359760  0.01414442  0.84227003  1
  H+  H84  1  0.73579062  0.62216861  0.18233684  1
  H+  H85  1  0.13806285  0.01898139  1.00124097  1
  H+  H86  1  0.12390373  0.23428682  0.16268700  1
  H+  H87  1  0.33329346  0.16077193  1.06613960  1
  H+  H88  1  0.12348451  0.51406342  0.33923913  1
  H+  H89  1  0.52383835  0.87023486  -0.00373457  1
  H+  H90  1  0.51595421  0.14062397  0.68362032  1
  H+  H91  1  0.14404781  0.26963752  0.66310730  1
  H+  H92  1  0.59796600  0.71774555  0.67106823  1
  H+  H93  1  0.31269995  0.39715630  0.81876644  1
  H+  H94  1  0.11827553  0.75948347  0.32218510  1
  H+  H95  1  0.38792222  0.53531127  0.00535587  1
  H+  H96  1  0.38251007  0.77679129  0.50308057  1
  H+  H97  1  0.10219764  0.13001609  0.33403087  1
  H+  H98  1  -0.00604914  0.89528531  -0.01756184  1
  H+  H99  1  0.51361453  0.37437908  0.49065244  1
  H+  H100  1  0.64725146  0.36770789  0.99286164  1
  H+  H101  1  0.96279263  0.34952554  0.66221492  1
  H+  H102  1  0.60236330  0.37385888  0.34073008  1
  H+  H103  1  0.63410166  0.76937885  0.83740723  1
  H+  H104  1  -0.03639901  0.35520415  0.33917504  1
  H+  H105  1  0.71308341  0.59033404  0.49380368  1
  H+  H106  1  0.66022868  0.33932673  0.26943581  1
  H+  H107  1  0.16622464  0.92969811  0.82319264  1
  H+  H108  1  0.98068845  0.86173143  0.67188589  1
  H+  H109  1  0.70888562  0.09466100  0.99355317  1
  H+  H110  1  0.96021137  0.36180441  0.83764858  1
  H+  H111  1  0.20874603  0.60690067  0.34472142  1
  H+  H112  1  0.89196594  1.01052654  0.84754851  1
  H+  H113  1  0.13282677  0.39075735  0.03554376  1
  H+  H114  1  0.22642342  0.85266446  0.17377910  1
  H+  H115  1  0.22190586  0.10802718  0.65214980  1
  H+  H116  1  0.34271875  0.21711420  0.16449180  1
  H+  H117  1  0.95855672  0.35670357  0.99603635  1
  H+  H118  1  0.51199736  0.13783988  0.18444630  1
  H+  H119  1  0.71172542  0.84749292  0.64504736  1
  H+  H120  1  0.21456360  0.13979689  0.85334883  1
  H+  H121  1  0.36821999  0.48410711  0.17059055  1
  H+  H122  1  0.86494996  0.63230196  0.67739220  1
  H+  H123  1  0.76553243  0.37741790  0.49602976  1
  H+  H124  1  0.21468673  0.27843500  0.99398180  1
  H+  H125  1  0.35681201  0.48476627  0.65648878  1
  H+  H126  1  0.52456083  0.06561136  0.45449302  1
  H+  H127  1  0.10131845  0.47452161  0.81876317  1
  H+  H128  1  0.85554585  0.62326822  0.49446818  1
  H+  H129  1  0.11682775  0.88365966  1.01031205  1
  H+  H130  1  0.27156376  0.38645519  0.34150921  1
  H+  H131  1  0.89319357  0.04282923  0.13439599  1
  H+  H132  1  0.13122527  0.37678126  1.00304412  1
  H+  H133  1  0.47600414  0.63019051  0.50878085  1
  H+  H134  1  0.38346823  0.36335772  0.50404153  1
  H+  H135  1  0.96993987  0.10801767  0.31393309  1
  H+  H136  1  0.15647522  0.52724162  1.03342911  1
  H+  H137  1  0.64680377  0.77307447  -0.00997575  1
  H+  H138  1  0.22325429  0.35907471  0.50504510  1
  H+  H139  1  0.84128297  0.22046703  0.82230473  1
  H+  H140  1  0.35630078  0.97894023  0.49562965  1
  H+  H141  1  0.26052122  0.13404489  0.49005635  1
  H+  H142  1  0.34479361  0.30237049  0.84356778  1
  H+  H143  1  0.09523223  0.66907208  1.07407138  1
  H+  H144  1  0.47165882  0.84057430  0.32332686  1
  H+  H145  1  0.88258245  0.15973606  0.11012740  1
  H+  H146  1  0.62434087  0.26736330  0.18897754  1
  H+  H147  1  0.89078792  0.43160547  0.01503425  1
  H+  H148  1  0.60515864  0.63215417  0.82290252  1
  H+  H149  1  0.73029176  0.10955611  0.50270784  1
  H+  H150  1  0.36656925  0.10293047  0.17520557  1
  H+  H151  1  0.88954833  0.77781858  0.83629927  1
  H+  H152  1  0.88773648  0.37317356  0.19771069  1
  H+  H153  1  0.13445104  0.35966561  0.17658183  1
  H+  H154  1  0.36879650  0.88386469  0.82789097  1
  H+  H155  1  0.40887114  0.87295721  0.99409699  1
  H+  H156  1  0.46115478  0.11290513  0.49914809  1
  H+  H157  1  0.90344195  0.55390467  0.99590954  1
  H+  H158  1  0.61201781  0.47570436  0.16312534  1
  H+  H159  1  0.07811655  0.90932937  0.06767457  1
  H+  H160  1  0.28129562  0.88801546  0.82885832  1
  H+  H161  1  0.46656549  0.61562480  0.65770624  1
  H+  H162  1  0.72652481  0.64137534  0.32594011  1
  H+  H163  1  0.90234032  0.57525523  0.60337143  1
  H+  H164  1  0.60832425  0.73291373  0.35167290  1
  H+  H165  1  0.27488456  0.63489210  0.82880483  1
  H+  H166  1  0.47851224  0.86148070  0.65666981  1
  H+  H167  1  1.02833733  0.63791079  0.16087015  1
  H+  H168  1  0.50440431  0.37009767  0.34041503  1
  H+  H169  1  0.84312250  0.61730570  0.34072116  1
  H+  H170  1  0.74385063  0.38352108  0.98735988  1
  H+  H171  1  0.85021959  0.21580619  0.67123305  1
  H+  H172  1  0.52484548  0.48543530  0.95533061  1
  H+  H173  1  0.08834899  0.61982626  0.34310437  1
  H+  H174  1  0.84465414  0.24805493  0.16503490  1
  H+  H175  1  0.12990747  0.14340439  0.01195099  1
  H+  H176  1  0.60639078  0.46420578  0.48740295  1
  H+  H177  1  0.71707794  0.36350938  0.33171654  1
  H+  H178  1  0.51756512  0.37985923  0.67514144  1
  H+  H179  1  0.86870656  0.83961927  0.51804033  1
  H+  H180  1  0.71538957  0.62147251  0.64559458  1
  H+  H181  1  0.10420687  0.22185921  0.48947703  1
  H+  H182  1  0.83566376  0.16568909  0.43346085  1
  H+  H183  1  0.11789588  0.10363616  0.16883978  1
  H+  H184  1  0.37688309  0.75235914  0.32537270  1
  H+  H185  1  0.90614043  0.81243877  0.98236101  1
  H+  H186  1  0.51950824  0.63911596  0.82840756  1
  H+  H187  1  0.74781756  0.84115868  0.30750756  1
  H+  H188  1  0.51570706  0.36838766  0.82316916  1
  H+  H189  1  0.37298191  0.92977995  0.40400560  1
  H+  H190  1  1.01378627  0.13381877  0.49075400  1
  H+  H191  1  0.87926066  0.97356423  0.30799635  1
  H+  H192  1  0.12358625  0.01450919  0.32267555  1
  H+  H193  1  0.98423495  0.09409504  0.84023058  1
  H+  H194  1  0.84824568  0.46169932  0.34263187  1
  H+  H195  1  0.97507822  0.10952397  0.66147087  1
  H+  H196  1  0.88885543  0.85487007  0.65732213  1
  H+  H197  1  0.11290895  0.47296637  0.49858469  1
  H+  H198  1  0.39165640  0.53805687  0.83651799  1
  H+  H199  1  0.87347269  0.02093925  0.51239207  1
  H+  H200  1  0.07014487  0.90845405  0.39282109  1
  H+  H201  1  0.36228918  0.48044013  0.49390156  1
  H+  H202  1  0.46570523  0.35924696  0.17496857  1
  H+  H203  1  0.72547698  0.36187936  0.66298701  1
  H+  H204  1  1.04362904  0.64502571  1.00984601  1
  H+  H205  1  0.11099663  0.38221215  0.49852733  1
  H+  H206  1  0.37986240  0.62088325  0.65796642  1
  H+  H207  1  0.88331964  0.75113506  0.32477619  1
  H+  H208  1  0.85529606  0.71193066  0.49608214  1
  H+  H209  1  0.61820817  0.63664415  0.15690190  1
  H+  H210  1  0.61132619  0.23122341  0.33459518  1
  H+  H211  1  0.39374299  0.89131454  0.34364253  1
  H+  H212  1  0.36159513  0.64220324  0.48439076  1
  H+  H213  1  0.38996658  0.62525416  0.84008660  1
  H+  H214  1  0.39425049  0.77383840  0.17208967  1
  H+  H215  1  0.87355424  0.23347992  1.00966940  1
  H+  H216  1  -0.02345934  0.62700069  0.83509306  1
  H+  H217  1  0.22564226  0.87964795  0.50532789  1
  H+  H218  1  0.51801535  0.12079082  0.83409466  1
  H+  H219  1  0.86128350  0.96701296  0.64934094  1
  H+  H220  1  0.35560800  0.88871078  0.49912737  1
  H+  H221  1  0.86161946  0.38662913  0.67655230  1
  H+  H222  1  0.07082818  0.15896321  0.39309306  1
  H+  H223  1  0.62590730  0.61764198  0.64754285  1
  H+  H224  1  0.64032489  0.10970902  0.50043394  1
  H+  H225  1  0.60548827  0.37717363  0.67569102  1
  H+  H226  1  0.38708286  0.77344664  0.99490133  1
  H+  H227  1  0.71622797  0.09612293  0.65802695  1
  H+  H228  1  0.13247427  0.27136353  0.32687447  1
  H+  H229  1  0.14954785  0.62681421  0.18243083  1
  H+  H230  1  0.60669852  0.13201900  -0.00749258  1
  H+  H231  1  0.51816719  0.64492784  0.00564412  1
  H+  H232  1  0.07676852  0.40734747  0.40487600  1
  H+  H233  1  0.38417570  0.11488787  0.65640444  1
  H+  H234  1  0.56949747  0.65919689  0.73102125  1
  H+  H235  1  0.61135442  0.11851061  0.82917370  1
  H+  H236  1  0.86915441  0.48542903  0.83229005  1
  H+  H237  1  0.23038190  0.37246685  0.17695789  1
  H+  H238  1  0.12477624  0.87721241  0.65699416  1
  H+  H239  1  0.38726353  0.77296429  0.83800212  1
  H+  H240  1  0.82993283  0.90510359  0.59372027  1
  H+  H241  1  0.60861511  0.98012025  0.49846145  1
  H+  H242  1  0.89269106  0.83851042  0.29787256  1
  H+  H243  1  0.14032458  0.54047514  0.66184734  1
  H+  H244  1  0.87743071  0.92214309  0.99310379  1
  H+  H245  1  0.76200796  0.62661421  0.82505304  1
  H+  H246  1  0.73778888  0.57865715  1.01486080  1
  H+  H247  1  0.02635194  0.45692912  -0.00621940  1
  H+  H248  1  0.85860190  0.39024545  0.83515393  1
  H+  H249  1  0.89395196  0.62765606  0.18628361  1
  H+  H250  1  0.75076429  0.37148584  0.15983985  1
  H+  H251  1  0.13163354  0.87451609  0.50100393  1
  H+  H252  1  0.97210828  0.35945136  0.51119720  1
  H+  H253  1  0.37250028  0.11328624  0.50350388  1
  H+  H254  1  0.13677154  0.60232818  1.01284275  1
  H+  H255  1  0.13845116  0.79059285  0.83747046  1
  H+  H256  1  0.87748572  0.26084751  0.34522677  1
  H+  H257  1  0.37612775  0.33427245  0.97430337  1
  H+  H258  1  0.40870247  0.44941771  0.03444388  1
  H+  H259  1  0.07634073  0.68870713  0.75192702  1
  H+  H260  1  0.13092046  0.85273401  0.32383995  1
  H+  H261  1  0.62505502  0.85206641  0.65500271  1
  H+  H262  1  0.35207405  0.21727718  0.33643063  1
  H+  H263  1  0.51061146  0.96239902  0.36901465  1
  H+  H264  1  0.94673691  0.10397842  0.93210574  1
  H+  H265  1  0.11448060  -0.01541272  0.66938530  1
  H+  H266  1  0.62288358  0.22731886  -0.01075705  1
  H+  H267  1  0.66241790  0.12865135  0.32830687  1
  H+  H268  1  0.12451195  0.10976077  0.50258093  1
  H+  H269  1  0.00972786  0.36946450  0.17449506  1
  H+  H270  1  0.11333471  0.37696796  0.65814571  1
  H+  H271  1  0.56743880  0.93665679  0.42700100  1
  H+  H272  1  0.91456729  0.81692178  0.57095469  1
  H+  H273  1  0.10898176  0.65137608  0.66285842  1
  H+  H274  1  0.59890319  0.45703043  0.00824983  1
  H+  H275  1  0.61534658  1.00799551  0.35424481  1
  H+  H276  1  0.62811661  0.26446160  0.50807698  1
  H+  H277  1  0.58270271  0.58077010  0.98340641  1
  H+  H278  1  0.87376671  0.73134261  0.68184319  1
  H+  H279  1  0.88177154  0.35740949  0.50893733  1
  H+  H280  1  0.96386766  0.59462293  0.50996388  1
  H+  H281  1  0.26953405  0.07172264  0.79735150  1
  H+  H282  1  0.92299362  0.88869142  0.13182512  1
  H+  H283  1  0.85522900  0.63140425  0.82805632  1
  H+  H284  1  0.61244415  0.96543524  0.66722430  1
  H+  H285  1  0.27750011  0.64122689  0.01347294  1
  H+  H286  1  0.38012291  0.36550381  0.17475403  1
  H+  H287  1  0.56640246  0.39769427  0.40741349  1
  H+  H288  1  0.47983803  0.12600455  0.98396650  1
  H+  H289  1  0.15538478  0.84642711  0.58859442  1
  H+  H290  1  0.58007763  0.41185306  0.10573528  1
  H+  H291  1  0.84764395  0.37140949  0.34699836  1
  H+  H292  1  0.17044161  0.59526454  0.24428429  1
  H+  H293  1  0.81364019  0.15788917  0.76483291  1
  H+  H294  1  0.42920960  0.32715692  0.92145649  1
  H+  H295  1  0.16613560  0.33572794  0.27035463  1
  H+  H296  1  0.41249010  0.83216403  0.56589652  1
  H+  H297  1  0.92875791  0.60186477  0.89969627  1
  H+  H298  1  0.41309604  0.59255307  0.93994067  1
  H+  H299  1  0.65408132  0.86491978  0.16418868  1
  H+  H300  1  0.17003475  0.59422190  0.60055242  1
  H+  H301  1  0.84610544  0.92939572  0.08515313  1
  H+  H302  1  0.87592592  0.91678298  0.36373266  1
  H+  H303  1  0.05950897  0.95624490  0.15692656  1
  H+  H304  1  0.32014219  0.16164062  0.43046592  1
  H+  H305  1  0.65795145  0.06982587  0.89476408  1
  H+  H306  1  0.89915201  0.56662767  0.26974674  1
  H+  H307  1  0.23088369  0.61133085  0.50529824  1
  H+  H308  1  0.41267874  0.33251994  0.59805448  1
  H+  H309  1  0.16248078  0.32386692  0.56386161  1
  H+  H310  1  0.36593227  0.73832298  0.67315137  1
  H+  H311  1  -0.01726580  0.13145483  0.13674563  1
  H+  H312  1  0.69684226  0.11724022  0.12686037  1
  H+  H313  1  0.34948647  0.92196260  0.10569637  1
  H+  H314  1  0.63828880  0.56492221  0.89207513  1
  H+  H315  1  0.16492130  0.82267469  0.23188853  1
  H+  H316  1  0.67357770  0.83149113  0.93001856  1
  H+  H317  1  0.40759813  0.07992376  0.26648569  1
  H+  H318  1  0.34403708  0.91870466  0.73036622  1
  H+  H319  1  0.15000750  0.77064072  1.00049641  1
  H+  H320  1  0.42412955  0.83198927  0.23095781  1
  H+  H321  1  0.90303901  0.32664197  0.25503429  1
  H+  H322  1  0.57474876  0.40281199  0.76220335  1
  H+  H323  1  0.59383015  0.70263876  0.45406879  1
  H+  H324  1  0.58273556  0.90622388  0.72797369  1
  H+  H325  1  0.10594642  0.18491813  0.09861897  1
  H+  H326  1  0.65229645  0.77585133  0.16017273  1
  H+  H327  1  0.59556464  0.13569520  0.16266756  1
  H+  H328  1  0.06619512  0.42485415  0.75665073  1
  H+  H329  1  0.82318595  0.65423914  0.40149310  1
  H+  H330  1  0.15491790  0.08055639  0.56255255  1
  H+  H331  1  0.46460612  0.98650111  0.05020359  1
  H+  H332  1  0.90451654  0.32612829  0.60318329  1
  H+  H333  1  0.04333323  0.37591188  0.10840495  1
  H+  H334  1  0.92530633  0.76701653  0.06665436  1
  H+  H335  1  0.17868594  0.55422778  0.91780939  1
  H+  H336  1  0.42727755  0.59111493  0.24224486  1
  H+  H337  1  0.62184588  1.02109546  0.13408073  1
  H+  H338  1  0.32914275  0.67146905  0.76592486  1
  H+  H339  1  0.90097161  0.17077984  0.36847842  1
  H+  H340  1  0.83515217  0.42005019  0.73611036  1
  H+  H341  1  0.62840905  0.79212914  0.56158499  1
  H+  H342  1  0.83100428  0.66100743  0.74462688  1
  H+  H343  1  0.93248008  0.85126994  0.88531341  1
  H+  H344  1  0.17179022  0.83894645  0.90144287  1
  H+  H345  1  0.74377233  0.11742695  0.34241222  1
  H+  H346  1  0.78261386  0.90608424  -0.00244230  1
  H+  H347  1  0.41805734  0.08644331  0.59994156  1
  H+  H348  1  0.90547053  0.30947668  0.89661991  1
  H+  H349  1  0.33380059  0.43016213  0.71667249  1
  H+  H350  1  0.06592029  0.66209359  0.39743201  1
  H+  H351  1  0.58327185  0.66418202  0.06116189  1
  H+  H352  1  0.41778230  0.08045400  0.90007294  1
  H+  H353  1  0.60644270  0.22929689  0.68681626  1
  H+  H354  1  0.61764179  0.87715986  0.99819943  1
  H+  H355  1  0.27531716  0.13155288  0.00757890  1
  H+  H356  1  0.37407045  0.01649443  0.17602567  1
  H+  H357  1  0.68363084  0.81229382  0.25165381  1
  H+  H358  1  0.58480227  0.90047331  0.09250277  1
  H+  H359  1  0.15802675  0.07960143  0.94253950  1
  H+  H360  1  0.52357945  0.88163982  0.82322026  1
  H+  H361  1  0.82382132  0.40729093  0.43605804  1
  H+  H362  1  0.33041433  0.15822154  0.72309259  1
  H+  H363  1  0.86317894  0.88626782  0.82106562  1
  H+  H364  1  0.80254043  0.33689711  0.12361678  1
  H+  H365  1  0.65995657  0.06728252  0.59808818  1
  H+  H366  1  0.18771951  0.72470998  0.44401274  1
  H+  H367  1  0.89141026  0.75180179  0.16537057  1
  H+  H368  1  0.41092172  0.33212114  0.26756027  1
  H+  H369  1  0.40946570  0.59326179  0.56245262  1
  H+  H370  1  0.66367777  0.32714149  0.60486321  1
  H+  H371  1  0.25415584  0.12702236  0.15958485  1
  H+  H372  1  0.37676231  0.27067891  0.50258087  1
  H+  H373  1  0.11193455  0.93750371  0.73162700  1
  H+  H374  1  0.41983412  0.83161374  0.89791614  1
  H+  H375  1  0.64972902  0.56998760  0.54868490  1
  H+  H376  1  0.91965291  0.08765031  0.60043221  1
  H+  H377  1  0.25175808  0.32212818  0.90340762  1
  H+  H378  1  0.83194555  0.43968970  0.06419035  1
  H+  H379  1  0.66786247  0.59690336  0.23395321  1
  H+  H380  1  0.80663074  0.89327425  0.45876188  1
  H+  H381  1  0.92957272  0.21340676  0.96744048  1
  H+  H382  1  0.32640386  0.66661280  0.42511655  1
  H+  H383  1  0.36664518  0.11129319  0.81692144  1
  O2-  O384  1  0.09302571  0.17598634  0.14337870  1
  O2-  O385  1  0.07309033  0.16139186  0.47392248  1
  O2-  O386  1  0.09212987  0.19543833  0.80610991  1
  O2-  O387  1  0.06304216  0.38967979  0.15030549  1
  O2-  O388  1  0.07837946  0.41169199  0.48605378  1
  O2-  O389  1  0.04868355  0.43700877  0.79572523  1
  O2-  O390  1  0.08782423  0.66685233  0.14513408  1
  O2-  O391  1  0.13475831  0.69920629  0.46790140  1
  O2-  O392  1  0.07938777  0.68650021  0.79750182  1
  O2-  O393  1  0.04202691  0.89693293  0.14024805  1
  O2-  O394  1  0.07274465  0.91450038  0.47570044  1
  O2-  O395  1  0.16591617  0.97571103  0.79789577  1
  O2-  O396  1  0.31601117  0.15745095  0.14860437  1
  O2-  O397  1  0.32163900  0.16442269  0.47608151  1
  O2-  O398  1  0.32503018  0.12719211  0.79847065  1
  O2-  O399  1  0.33531928  0.42576480  0.15204208  1
  O2-  O400  1  0.33186003  0.41901421  0.48116030  1
  O2-  O401  1  0.35975095  0.44611627  0.79363917  1
  O2-  O402  1  0.34242934  0.66861657  0.15342756  1
  O2-  O403  1  0.32784621  0.66982730  0.47032230  1
  O2-  O404  1  0.33294781  0.67079531  0.81167463  1
  O2-  O405  1  0.33756398  0.91357379  0.14978145  1
  O2-  O406  1  0.32636637  0.91806031  0.48037148  1
  O2-  O407  1  0.34126157  0.91756094  0.81327318  1
  O2-  O408  1  0.57556100  0.16950734  0.18669297  1
  O2-  O409  1  0.55824460  0.12771539  0.46049040  1
  O2-  O410  1  0.57967135  0.15189221  0.81714234  1
  O2-  O411  1  0.57776334  0.41428383  0.15095238  1
  O2-  O412  1  0.57324788  0.39969950  0.47325567  1
  O2-  O413  1  0.57601196  0.40484649  0.81004502  1
  O2-  O414  1  0.58837311  0.66684275  0.14111685  1
  O2-  O415  1  0.59303310  0.70139650  0.49991185  1
  O2-  O416  1  0.57768962  0.66528757  0.80879720  1
  O2-  O417  1  0.59104692  0.90757328  0.13757988  1
  O2-  O418  1  0.57135115  0.92207041  0.47789619  1
  O2-  O419  1  0.58339519  0.90958551  0.80692909  1
  O2-  O420  1  0.80647565  0.21113183  0.13080763  1
  O2-  O421  1  0.82862768  0.15850799  0.48322896  1
  O2-  O422  1  0.80961543  0.15953095  0.80990925  1
  O2-  O423  1  0.80787310  0.39085709  0.13846511  1
  O2-  O424  1  0.82648053  0.40895073  0.48204537  1
  O2-  O425  1  0.83352618  0.42485122  0.81770370  1
  O2-  O426  1  0.86028881  0.70075790  0.19232662  1
  O2-  O427  1  0.82623084  0.65330267  0.47802317  1
  O2-  O428  1  0.82230774  0.65668461  0.80850702  1
  O2-  O429  1  0.85604357  0.92542173  0.13025834  1
  O2-  O430  1  0.79989694  0.88318228  0.50249091  1
  O2-  O431  1  0.83380137  0.91954485  0.81249530  1
  O2-  O432  1  0.13495461  0.06023659  0.18115291  1
  O2-  O433  1  0.15434826  0.07850207  0.51699390  1
  O2-  O434  1  0.15451434  0.09948815  0.86310641  1
  O2-  O435  1  0.17064162  0.33647288  0.19333654  1
  O2-  O436  1  0.16177224  0.32664582  0.51821178  1
  O2-  O437  1  0.25174950  0.31719817  0.85675552  1
  O2-  O438  1  0.18719207  0.60746418  0.20117859  1
  O2-  O439  1  0.17156433  0.58327203  0.52387114  1
  O2-  O440  1  0.17581541  0.56586488  0.87403241  1
  O2-  O441  1  0.16545342  0.82048830  0.18635598  1
  O2-  O442  1  0.16402830  0.84758422  0.52008874  1
  O2-  O443  1  0.17597540  0.84716535  0.85654051  1
  O2-  O444  1  0.39929263  0.07632694  0.19220370  1
  O2-  O445  1  0.40381481  0.08346704  0.51851548  1
  O2-  O446  1  0.42388143  0.07695223  0.85437406  1
  O2-  O447  1  0.40576279  0.33057364  0.19057044  1
  O2-  O448  1  0.41225661  0.33085000  0.51791848  1
  O2-  O449  1  0.39583323  0.29474889  0.84155977  1
  O2-  O450  1  0.42990856  0.59153720  0.19683127  1
  O2-  O451  1  0.41360353  0.59380528  0.51687809  1
  O2-  O452  1  0.41877185  0.59479302  0.85752900  1
  O2-  O453  1  0.42624455  0.83561872  0.18552063  1
  O2-  O454  1  0.41198858  0.83637387  0.51991279  1
  O2-  O455  1  0.41978022  0.83391499  0.85235675  1
  O2-  O456  1  0.63442503  0.07957226  0.12251716  1
  O2-  O457  1  0.66778458  0.07833216  0.51708708  1
  O2-  O458  1  0.65626331  0.07235839  0.84946495  1
  O2-  O459  1  0.66003453  0.33310439  0.19592934  1
  O2-  O460  1  0.65811191  0.32425027  0.52158811  1
  O2-  O461  1  0.67674563  0.35832269  0.85570544  1
  O2-  O462  1  0.67327215  0.58705794  0.18953748  1
  O2-  O463  1  0.65154833  0.55673324  0.50479504  1
  O2-  O464  1  0.65569000  0.57345005  0.84822173  1
  O2-  O465  1  0.68680894  0.83564736  0.17633867  1
  O2-  O466  1  0.63110171  0.79316572  0.51561470  1
  O2-  O467  1  0.66509354  0.82883871  0.85439020  1
  O2-  O468  1  0.92028451  0.10525013  0.12747271  1
  O2-  O469  1  0.90866897  0.08161120  0.52369639  1
  O2-  O470  1  0.93306546  0.06864773  0.86577110  1
  O2-  O471  1  0.90745861  0.33301688  0.20888510  1
  O2-  O472  1  0.91182303  0.32860256  0.52692591  1
  O2-  O473  1  0.90132553  0.32867961  0.85529098  1
  O2-  O474  1  0.91677144  0.58702168  0.19140194  1
  O2-  O475  1  0.90513298  0.56720145  0.52534656  1
  O2-  O476  1  0.91924625  0.59350624  0.85457090  1
  O2-  O477  1  0.94902708  0.84919872  0.12741119  1
  O2-  O478  1  0.90848606  0.81737312  0.52616257  1
  O2-  O479  1  0.92772429  0.83994564  0.84080794  1
  O2-  O480  1  0.15165696  0.07493166  0.30696530  1
  O2-  O481  1  0.15945138  0.07891789  0.64095994  1
  O2-  O482  1  0.16710929  0.08008590  0.98696360  1
  O2-  O483  1  0.16399962  0.33365573  0.31614743  1
  O2-  O484  1  0.16089126  0.32721280  0.64109025  1
  O2-  O485  1  0.26694230  0.32236146  0.97261192  1
  O2-  O486  1  0.14906277  0.57639857  0.32840463  1
  O2-  O487  1  0.16546153  0.59953506  0.64590740  1
  O2-  O488  1  0.15857682  0.56242735  0.99890839  1
  O2-  O489  1  0.15776992  0.81934419  0.30966073  1
  O2-  O490  1  0.14896563  0.84083557  0.63566998  1
  O2-  O491  1  0.17337797  0.83011555  0.98283624  1
  O2-  O492  1  0.41623228  0.08698857  0.31199802  1
  O2-  O493  1  0.41807461  0.08672096  0.64510405  1
  O2-  O494  1  0.41692534  0.08793037  0.97358780  1
  O2-  O495  1  0.41249552  0.33032930  0.31345994  1
  O2-  O496  1  0.41025004  0.33300160  0.64343217  1
  O2-  O497  1  0.43624632  0.35377127  0.96191393  1
  O2-  O498  1  0.41521441  0.58240140  0.32263175  1
  O2-  O499  1  0.40711334  0.58958909  0.63953120  1
  O2-  O500  1  0.41586706  0.59850985  0.98486335  1
  O2-  O501  1  0.41249010  0.81802641  0.30952881  1
  O2-  O502  1  0.41765931  0.83374957  0.64135806  1
  O2-  O503  1  0.42193686  0.83078929  0.97437412  1
  O2-  O504  1  0.68419261  0.08812057  0.32557482  1
  O2-  O505  1  0.65665918  0.06022535  0.64271704  1
  O2-  O506  1  0.65342149  0.06485470  0.97310392  1
  O2-  O507  1  0.65659709  0.33767415  0.31571437  1
  O2-  O508  1  0.66439048  0.32941669  0.64993552  1
  O2-  O509  1  0.68420606  0.34927609  0.97048398  1
  O2-  O510  1  0.67476956  0.63738603  0.30584558  1
  O2-  O511  1  0.66164829  0.60024975  0.62357738  1
  O2-  O512  1  0.58442172  0.53203770  0.96156893  1
  O2-  O513  1  0.68970812  0.79621883  0.29435573  1
  O2-  O514  1  0.64930953  0.81636054  0.63690819  1
  O2-  O515  1  0.67616474  0.83389562  0.97581014  1
  O2-  O516  1  0.91309693  0.07119149  0.29381752  1
  O2-  O517  1  0.91633039  0.08043031  0.64591710  1
  O2-  O518  1  0.95497784  0.13034262  0.97448354  1
  O2-  O519  1  0.90192011  0.32306553  0.32704082  1
  O2-  O520  1  0.90231063  0.32467956  0.64906653  1
  O2-  O521  1  0.90534890  0.25275078  0.97075965  1
  O2-  O522  1  0.89269348  0.56232754  0.31489958  1
  O2-  O523  1  0.90717662  0.58142605  0.64878737  1
  O2-  O524  1  0.94271370  0.61214254  0.97802171  1
  O2-  O525  1  0.91787731  0.80046430  0.29635228  1
  O2-  O526  1  0.92134674  0.82272584  0.65597161  1
  O2-  O527  1  0.93518240  0.87090598  0.96501942  1
  O2-  O528  1  0.11641340  0.18956164  0.02270971  1
  O2-  O529  1  0.07164279  0.16093048  0.34777403  1
  O2-  O530  1  0.13532260  0.19242127  0.69905589  1
  O2-  O531  1  -0.02525910  0.41366734  0.01457545  1
  O2-  O532  1  0.07416941  0.40858479  0.35970434  1
  O2-  O533  1  0.08364069  0.41341492  0.66106403  1
  O2-  O534  1  0.10245698  0.66898359  0.02755697  1
  O2-  O535  1  0.05445675  0.64884621  0.35383132  1
  O2-  O536  1  0.07654954  0.68131543  0.67479578  1
  O2-  O537  1  0.08810292  0.91609184  0.02262136  1
  O2-  O538  1  0.07577314  0.91023155  0.34790122  1
  O2-  O539  1  0.08982828  0.92483813  0.68848350  1
  O2-  O540  1  0.33618173  0.16017633  0.02119095  1
  O2-  O541  1  0.32067716  0.15724504  0.35172971  1
  O2-  O542  1  0.32681539  0.16440657  0.67826707  1
  O2-  O543  1  0.35786535  0.45558338  0.03525430  1
  O2-  O544  1  0.33215122  0.41436356  0.35673516  1
  O2-  O545  1  0.32803751  0.42367110  0.67165087  1
  O2-  O546  1  0.33762091  0.67551185  0.02695721  1
  O2-  O547  1  0.32732569  0.66299361  0.34198258  1
  O2-  O548  1  0.33300960  0.67762461  0.68991054  1
  O2-  O549  1  0.40695323  0.95660921  0.03256949  1
  O2-  O550  1  0.40756373  0.94581579  0.36607352  1
  O2-  O551  1  0.34454614  0.91741472  0.68536824  1
  O2-  O552  1  0.58086962  0.16825837  0.00113454  1
  O2-  O553  1  0.58385929  0.16946435  0.34661982  1
  O2-  O554  1  0.57090979  0.17258818  0.70669637  1
  O2-  O555  1  0.58150582  0.39943028  0.02561735  1
  O2-  O556  1  0.56547952  0.39807286  0.35902717  1
  O2-  O557  1  0.57481870  0.40437103  0.69478426  1
  O2-  O558  1  0.58016205  0.66426021  0.01577715  1
  O2-  O559  1  0.57752155  0.68056601  0.37722936  1
  O2-  O560  1  0.56569217  0.65691119  0.68556779  1
  O2-  O561  1  0.58365099  0.90430432  0.01303316  1
  O2-  O562  1  0.56146571  0.95378944  0.37245334  1
  O2-  O563  1  0.58076868  0.90327663  0.68251123  1
  O2-  O564  1  0.86765094  0.20403415  0.09078699  1
  O2-  O565  1  0.84838804  0.17371349  0.37111683  1
  O2-  O566  1  0.82126379  0.15566663  0.68647170  1
  O2-  O567  1  0.84572097  0.44896526  0.01997547  1
  O2-  O568  1  0.81642590  0.40234284  0.36053268  1
  O2-  O569  1  0.83493590  0.42108422  0.69083282  1
  O2-  O570  1  0.89774945  0.72478019  0.03320638  1
  O2-  O571  1  0.82083480  0.65497724  0.35599295  1
  O2-  O572  1  0.83946892  0.66754742  0.69572324  1
  O2-  O573  1  0.84233879  0.94413448  0.01261892  1
  O2-  O574  1  0.85806026  0.91151535  0.32148125  1
  O2-  O575  1  0.83233994  0.90475026  0.63823463  1
