# generated using pymatgen
data_H2O
_symmetry_space_group_name_H-M   'P 1'
_cell_length_a   17.99581919
_cell_length_b   18.00119645
_cell_length_c   22.00996633
_cell_angle_alpha   90.01399303
_cell_angle_beta   89.99252523
_cell_angle_gamma   119.99571649
_symmetry_Int_Tables_number   1
_chemical_formula_structural   H2O
_chemical_formula_sum   'H384 O192'
_cell_volume   6175.06784258
_cell_formula_units_Z   192
loop_
 _symmetry_equiv_pos_site_id
 _symmetry_equiv_pos_as_xyz
  1  'x, y, z'
loop_
 _atom_type_symbol
 _atom_type_oxidation_number
  H+  1.0
  O2-  -2.0
loop_
 _atom_site_type_symbol
 _atom_site_label
 _atom_site_symmetry_multiplicity
 _atom_site_fract_x
 _atom_site_fract_y
 _atom_site_fract_z
 _atom_site_occupancy
  H+  H0  1  0.38580947  0.85074053  0.50161262  1
  H+  H1  1  0.73489147  0.86722562  0.97140197  1
  H+  H2  1  -0.10928246  0.02939371  0.17079635  1
  H+  H3  1  0.02040605  0.13263694  -0.01993129  1
  H+  H4  1  0.71074439  0.87298294  0.65456267  1
  H+  H5  1  0.89432204  0.10999622  0.98161195  1
  H+  H6  1  0.88050628  0.36469039  0.33569201  1
  H+  H7  1  0.11672135  0.72446476  0.81251460  1
  H+  H8  1  0.52755344  0.88859558  0.48574591  1
  H+  H9  1  0.37766883  0.90622605  0.35659597  1
  H+  H10  1  0.09648805  0.59368124  0.18619946  1
  H+  H11  1  0.34560211  0.22424231  0.82917934  1
  H+  H12  1  0.86520871  0.22774858  0.33330274  1
  H+  H13  1  0.64407651  0.91591931  0.84151340  1
  H+  H14  1  0.94419378  0.59204303  0.16566341  1
  H+  H15  1  0.84796625  0.22143199  0.18193233  1
  H+  H16  1  0.14000855  0.60645487  0.51568622  1
  H+  H17  1  0.72422557  0.36962227  0.48944904  1
  H+  H18  1  0.93035348  0.62169787  0.65710018  1
  H+  H19  1  0.97288648  0.35914833  0.98760050  1
  H+  H20  1  0.61013123  0.63760982  0.32386585  1
  H+  H21  1  0.51148717  0.13588557  1.00291906  1
  H+  H22  1  0.69743256  0.59621073  0.83486772  1
  H+  H23  1  0.64267910  0.36596953  0.66714104  1
  H+  H24  1  0.39793147  1.03179167  0.32928811  1
  H+  H25  1  0.65615395  0.64793553  0.51430033  1
  H+  H26  1  0.15949104  0.77230961  0.19639457  1
  H+  H27  1  0.25990566  0.13225575  0.01168370  1
  H+  H28  1  0.79490327  0.14736618  0.66671849  1
  H+  H29  1  0.88982966  0.28471374  0.49603091  1
  H+  H30  1  0.89858554  0.11036833  0.82906771  1
  H+  H31  1  0.37921744  0.37079899  0.32419271  1
  H+  H32  1  0.38696017  0.27371277  0.50288623  1
  H+  H33  1  0.78602149  0.39310879  0.66711776  1
  H+  H34  1  0.85714660  -0.02373563  0.33161671  1
  H+  H35  1  0.47780739  0.85081508  0.98368955  1
  H+  H36  1  0.39086565  0.37040144  0.85384180  1
  H+  H37  1  0.15246022  0.82033733  0.30747730  1
  H+  H38  1  0.36156148  0.46836543  0.00847914  1
  H+  H39  1  0.14414517  0.86887510  0.99041325  1
  H+  H40  1  0.12798881  0.10124243  0.97350089  1
  H+  H41  1  0.11574203  0.49011578  0.67924380  1
  H+  H42  1  0.85844664  0.46326357  0.99992618  1
  H+  H43  1  0.59095820  0.66662034  0.08893489  1
  H+  H44  1  0.23984499  0.37427985  0.51409526  1
  H+  H45  1  0.63824495  0.27661668  0.81642480  1
  H+  H46  1  0.12686796  0.01030343  0.18151580  1
  H+  H47  1  0.77023503  0.62423757  -0.00544349  1
  H+  H48  1  0.47531515  0.63570928  0.82376729  1
  H+  H49  1  0.89663616  0.37118768  0.65085774  1
  H+  H50  1  0.07092687  0.78956977  0.53641362  1
  H+  H51  1  0.31993473  0.69214000  0.34339765  1
  H+  H52  1  0.73390399  0.86463143  0.87537127  1
  H+  H53  1  0.36732089  0.49699697  0.84461032  1
  H+  H54  1  0.21459446  0.07947256  0.82713875  1
  H+  H55  1  0.14781518  0.56051174  0.87552283  1
  H+  H56  1  0.41873626  0.80579152  0.19259199  1
  H+  H57  1  0.88251713  0.25857751  0.83946410  1
  H+  H58  1  0.26645878  0.91785297  0.17173397  1
  H+  H59  1  0.82585037  0.68818476  0.86174299  1
  H+  H60  1  0.23266170  0.54636319  0.16572770  1
  H+  H61  1  0.65424345  0.01271015  0.66222840  1
  H+  H62  1  0.82972514  0.59688870  0.35738033  1
  H+  H63  1  0.09347384  0.13584511  0.70552973  1
  H+  H64  1  0.23568248  0.11647552  0.34170253  1
  H+  H65  1  0.37628613  0.89097815  0.15847780  1
  H+  H66  1  0.38847831  0.06817891  0.64674478  1
  H+  H67  1  0.53618880  0.14117334  0.32920058  1
  H+  H68  1  0.61734526  0.73758460  0.67769019  1
  H+  H69  1  0.02076049  0.13893622  0.17593135  1
  H+  H70  1  0.27114905  0.62250329  0.00649351  1
  H+  H71  1  0.63702156  0.60581478  0.99031074  1
  H+  H72  1  0.36446106  0.48296982  0.33633483  1
  H+  H73  1  0.39803228  0.87525503  0.83056031  1
  H+  H74  1  0.23891179  0.85626609  0.65791015  1
  H+  H75  1  0.90639227  0.13443878  0.64795554  1
  H+  H76  1  0.64401330  0.36500108  0.31320837  1
  H+  H77  1  0.64188275  1.00266835  0.83289496  1
  H+  H78  1  0.73201310  0.10958138  0.21502976  1
  H+  H79  1  0.61430299  0.21733301  1.00479242  1
  H+  H80  1  0.47917523  0.61968304  0.31165581  1
  H+  H81  1  0.15604846  0.88403823  0.84430223  1
  H+  H82  1  0.16795386  0.81289052  1.03136907  1
  H+  H83  1  0.73327400  0.87543059  0.51686514  1
  H+  H84  1  0.86897424  0.97579400  -0.00721532  1
  H+  H85  1  0.39025927  0.13379374  0.83110024  1
  H+  H86  1  0.96872295  0.84925428  0.97283541  1
  H+  H87  1  0.12160501  0.77244980  0.18231967  1
  H+  H88  1  0.12154159  0.47776061  0.49765717  1
  H+  H89  1  0.14456972  0.60802772  0.01227473  1
  H+  H90  1  0.88786165  0.78585859  0.17400832  1
  H+  H91  1  0.61167310  0.59885280  0.83935714  1
  H+  H92  1  0.78660339  0.12697621  0.99491781  1
  H+  H93  1  0.23099995  0.13486702  0.52478204  1
  H+  H94  1  0.72504719  0.33921139  -0.00979912  1
  H+  H95  1  0.61838245  0.89340231  0.48934582  1
  H+  H96  1  0.78883873  0.72609353  0.81508220  1
  H+  H97  1  0.87354119  0.21548264  0.99665790  1
  H+  H98  1  0.88347867  0.59853915  -0.02189537  1
  H+  H99  1  0.96391632  0.86227795  0.33944328  1
  H+  H100  1  -0.00977531  0.37136289  0.15858774  1
  H+  H101  1  0.17785872  0.38746775  0.18587894  1
  H+  H102  1  0.10538546  0.97152585  -0.01546800  1
  H+  H103  1  0.10742959  0.70680990  0.49574129  1
  H+  H104  1  0.36292173  0.85097032  0.65059058  1
  H+  H105  1  0.12325166  0.39048808  0.49759709  1
  H+  H106  1  0.84017839  0.45767211  0.41961681  1
  H+  H107  1  0.38644941  0.59956960  0.15657443  1
  H+  H108  1  0.21388827  0.57685513  0.32619238  1
  H+  H109  1  0.89803993  0.54544553  0.23114597  1
  H+  H110  1  0.27089445  0.38217018  1.00546644  1
  H+  H111  1  0.40027217  0.36399985  0.16633376  1
  H+  H112  1  0.51770763  0.61665716  0.47952574  1
  H+  H113  1  0.71631424  0.60879881  0.32664874  1
  H+  H114  1  0.41403329  0.63665441  0.87341468  1
  H+  H115  1  0.98256112  0.85428000  0.66774358  1
  H+  H116  1  0.61977370  0.89452006  0.16087505  1
  H+  H117  1  0.85397633  0.69965810  0.34622246  1
  H+  H118  1  0.72411508  0.13617651  0.83721089  1
  H+  H119  1  0.62114405  0.47147615  0.15796557  1
  H+  H120  1  0.77532334  0.07301685  0.79842272  1
  H+  H121  1  0.98348384  0.88149677  0.52244986  1
  H+  H122  1  0.61786259  0.14177239  0.48676850  1
  H+  H123  1  0.85766627  0.97456026  0.83469794  1
  H+  H124  1  0.40094832  0.80192022  0.58229349  1
  H+  H125  1  0.61497300  0.72837368  0.83689230  1
  H+  H126  1  0.34618947  0.49888998  0.67220895  1
  H+  H127  1  0.14034846  1.05101954  0.52561565  1
  H+  H128  1  0.87177958  0.46589310  0.81860814  1
  H+  H129  1  0.10727342  0.90546632  0.37849727  1
  H+  H130  1  0.13843224  0.63305127  0.19383402  1
  H+  H131  1  0.18164536  0.93943611  0.17513632  1
  H+  H132  1  0.63945600  0.36022626  0.16620193  1
  H+  H133  1  0.11386116  0.22354472  0.80024330  1
  H+  H134  1  0.38537082  0.61178408  0.31495239  1
  H+  H135  1  0.43205347  0.81281083  0.33136481  1
  H+  H136  1  0.64507741  0.77448279  0.31219170  1
  H+  H137  1  0.52703917  0.63382758  0.99359965  1
  H+  H138  1  0.78021876  0.13730324  0.32569165  1
  H+  H139  1  0.33950144  0.15797833  0.66972454  1
  H+  H140  1  0.39357091  0.22213539  0.37005630  1
  H+  H141  1  0.10825471  0.36207200  0.82888132  1
  H+  H142  1  0.35015995  0.73878354  0.80339695  1
  H+  H143  1  0.65234760  0.78553947  0.49900055  1
  H+  H144  1  0.64274308  0.77708016  0.15854320  1
  H+  H145  1  0.77236233  0.14502281  0.48522858  1
  H+  H146  1  0.98674755  0.10867554  0.82494761  1
  H+  H147  1  0.51462974  0.37091283  0.82461210  1
  H+  H148  1  0.61526662  0.72355071  -0.00938699  1
  H+  H149  1  0.62835709  0.52067587  0.32131481  1
  H+  H150  1  0.85567268  0.13707094  0.17819468  1
  H+  H151  1  0.27298592  0.62636289  0.49482246  1
  H+  H152  1  0.28708726  0.38657265  0.16167068  1
  H+  H153  1  0.13731062  0.27709354  0.97041365  1
  H+  H154  1  0.28318960  0.90497728  0.83039358  1
  H+  H155  1  0.63868624  0.37094524  0.82048284  1
  H+  H156  1  0.34286917  0.64854753  0.79818348  1
  H+  H157  1  0.63481118  0.13442053  0.83473241  1
  H+  H158  1  0.48357779  0.12441266  0.49341469  1
  H+  H159  1  0.85525339  0.88368693  0.33589787  1
  H+  H160  1  0.41527291  0.32351357  0.90264063  1
  H+  H161  1  0.52409783  0.39361335  0.66466018  1
  H+  H162  1  -0.02039684  0.87153706  0.18257855  1
  H+  H163  1  0.86262959  0.37610673  1.00405974  1
  H+  H164  1  0.86380211  0.51044815  0.50259457  1
  H+  H165  1  0.48808679  0.65337152  0.65419241  1
  H+  H166  1  0.38777038  0.35619449  0.99512243  1
  H+  H167  1  0.61731507  0.39488524  0.47894185  1
  H+  H168  1  -0.01890689  0.13288673  0.49381241  1
  H+  H169  1  0.12988063  0.89645602  0.67851656  1
  H+  H170  1  0.26932285  0.87291034  0.50387587  1
  H+  H171  1  0.41988366  0.08366911  0.26511115  1
  H+  H172  1  0.39840543  0.04141243  0.97318366  1
  H+  H173  1  0.16122543  0.06248853  0.92137018  1
  H+  H174  1  0.11703570  0.13873215  0.34640933  1
  H+  H175  1  0.73524525  0.61600067  0.66447108  1
  H+  H176  1  0.62649767  0.98375383  0.17706566  1
  H+  H177  1  0.93809270  0.52361866  0.32529869  1
  H+  H178  1  0.63852911  0.60492797  0.16987637  1
  H+  H179  1  0.39046727  0.38200563  0.64794281  1
  H+  H180  1  0.83950228  0.93508847  0.57394164  1
  H+  H181  1  0.38865964  0.76352453  0.49006732  1
  H+  H182  1  0.38469629  0.50247404  0.16355382  1
  H+  H183  1  0.63743466  0.28192306  0.49251210  1
  H+  H184  1  0.77471053  0.65468714  0.50548413  1
  H+  H185  1  0.12022142  0.15708633  0.49989889  1
  H+  H186  1  0.93216456  0.81208708  0.81712973  1
  H+  H187  1  0.17366878  0.83072898  0.89386297  1
  H+  H188  1  0.78343032  0.72322660  0.11101618  1
  H+  H189  1  0.14877705  0.28580767  0.51203275  1
  H+  H190  1  0.85282633  0.46288839  0.15619736  1
  H+  H191  1  0.17633614  0.58666466  0.57482185  1
  H+  H192  1  -0.05797424  0.59463079  0.53243792  1
  H+  H193  1  0.11007010  0.87612006  0.29329048  1
  H+  H194  1  0.23084289  0.63895903  0.85276551  1
  H+  H195  1  0.40012503  -0.01202933  0.64852626  1
  H+  H196  1  0.52438977  0.13921807  0.15786038  1
  H+  H197  1  0.54721966  0.92386037  0.34301752  1
  H+  H198  1  0.13331672  0.03476738  0.66928502  1
  H+  H199  1  0.37006643  0.39109755  0.49293588  1
  H+  H200  1  0.76713927  0.64865245  0.15430132  1
  H+  H201  1  0.86912689  0.40263297  0.46609981  1
  H+  H202  1  0.10892103  0.93580222  0.73607325  1
  H+  H203  1  0.86242988  0.89088560  0.83228002  1
  H+  H204  1  0.17565226  0.34884752  0.92061155  1
  H+  H205  1  0.85887781  0.00290618  0.65384712  1
  H+  H206  1  0.61592539  0.22262275  0.15318290  1
  H+  H207  1  0.59715284  0.46373452  0.82346488  1
  H+  H208  1  0.88940517  0.11358322  0.32554981  1
  H+  H209  1  0.81997101  0.40401027  0.08940979  1
  H+  H210  1  0.10634418  0.70500107  -0.02139380  1
  H+  H211  1  0.61714570  0.88974309  -0.00138070  1
  H+  H212  1  0.87874727  0.24259398  0.66902766  1
  H+  H213  1  0.74591530  0.36830362  0.15577682  1
  H+  H214  1  0.87755651  0.72012023  0.67065322  1
  H+  H215  1  0.23777923  0.12997966  0.18519883  1
  H+  H216  1  0.13607370  0.47059458  0.17013689  1
  H+  H217  1  0.11059741  0.99091440  0.35633254  1
  H+  H218  1  0.24921416  0.15260291  0.67801358  1
  H+  H219  1  0.53407700  0.63718241  0.14871941  1
  H+  H220  1  0.64161735  0.53281605  0.66055527  1
  H+  H221  1  0.39141788  0.85191541  0.97640377  1
  H+  H222  1  0.64410904  0.27606581  0.31429850  1
  H+  H223  1  0.64313320  0.27777512  0.66427019  1
  H+  H224  1  0.08137832  0.56870738  0.34498724  1
  H+  H225  1  0.19679932  0.34360692  0.67984907  1
  H+  H226  1  0.36631862  0.22506583  0.16457625  1
  H+  H227  1  0.53191169  0.38270800  0.15876775  1
  H+  H228  1  0.34762657  0.22206799  0.01456334  1
  H+  H229  1  0.12015262  0.91531692  0.51002389  1
  H+  H230  1  0.84740239  0.61426465  0.49914354  1
  H+  H231  1  0.10188086  0.45289124  0.34066618  1
  H+  H232  1  0.37518780  0.13453175  0.34124369  1
  H+  H233  1  0.14182760  0.51950690  0.01645755  1
  H+  H234  1  0.68861523  0.63146237  0.57855577  1
  H+  H235  1  0.64632499  0.03147264  0.98711462  1
  H+  H236  1  0.35767803  0.27566314  0.31124318  1
  H+  H237  1  0.10792569  0.38135362  -0.00189448  1
  H+  H238  1  0.62115501  0.65002027  0.67971566  1
  H+  H239  1  0.65140085  0.02920481  0.32034335  1
  H+  H240  1  0.13139939  0.35473006  0.33223260  1
  H+  H241  1  0.36640513  0.13842862  0.50210829  1
  H+  H242  1  0.14809062  0.28515848  0.17732227  1
  H+  H243  1  0.38558687  0.11575189  0.17136879  1
  H+  H244  1  0.97658734  0.10962416  0.32918245  1
  H+  H245  1  0.96856078  0.36206742  0.33489492  1
  H+  H246  1  0.05960306  0.92977955  0.83059570  1
  H+  H247  1  0.62502754  0.14152731  0.32324266  1
  H+  H248  1  0.73633319  0.37016967  0.81840047  1
  H+  H249  1  0.39767559  1.03457031  0.16291403  1
  H+  H250  1  0.39487900  0.64220585  0.64679412  1
  H+  H251  1  0.39491759  0.53012799  0.93223726  1
  H+  H252  1  0.73073876  0.86822740  0.15859572  1
  H+  H253  1  0.58960651  0.91990255  0.05851420  1
  H+  H254  1  0.39429234  0.52929945  0.50950264  1
  H+  H255  1  0.99209889  0.60647885  0.82469629  1
  H+  H256  1  0.52575905  0.38611601  0.33277906  1
  H+  H257  1  0.29029705  0.90577732  0.36535913  1
  H+  H258  1  0.30083629  0.40614261  0.73159969  1
  H+  H259  1  -0.00017859  0.71646557  0.10663238  1
  H+  H260  1  0.39844569  0.04980026  0.83708578  1
  H+  H261  1  0.89994650  0.59691541  0.82088288  1
  H+  H262  1  0.63871423  0.02760507  0.50148433  1
  H+  H263  1  0.27697502  0.65315436  0.71510076  1
  H+  H264  1  0.50387292  0.89408774  0.17867200  1
  H+  H265  1  0.37337233  0.28759499  0.65798917  1
  H+  H266  1  0.34027163  0.68402023  0.13810744  1
  H+  H267  1  0.61267763  0.46012944  0.00160021  1
  H+  H268  1  0.86632135  0.35567731  0.17564360  1
  H+  H269  1  0.75199354  0.87514861  0.31797607  1
  H+  H270  1  0.62298859  0.13425571  0.66795567  1
  H+  H271  1  0.36102593  0.48204809  0.64621107  1
  H+  H272  1  0.04470110  0.32915268  0.14268977  1
  H+  H273  1  0.52490074  0.15810665  0.81536363  1
  H+  H274  1  0.86781315  0.89656038  0.15309822  1
  H+  H275  1  0.15957004  0.73640981  0.33425545  1
  H+  H276  1  0.47472891  0.35153655  -0.00499228  1
  H+  H277  1  0.34200100  0.73502236  0.63566833  1
  H+  H278  1  -0.13222488  -0.00796376  0.51490383  1
  H+  H279  1  0.36429930  0.62886666  0.48848462  1
  H+  H280  1  0.29256537  0.90121554  -0.00789280  1
  H+  H281  1  0.12969725  0.72009021  0.30664304  1
  H+  H282  1  0.27434594  0.39483469  0.34351708  1
  H+  H283  1  0.52751583  0.11593670  0.66136262  1
  H+  H284  1  0.89087790  0.86900702  0.52576548  1
  H+  H285  1  0.59668338  0.88892105  0.67925481  1
  H+  H286  1  0.36404051  0.70920439  0.99224273  1
  H+  H287  1  0.38090610  0.59319369  -0.02169974  1
  H+  H288  1  0.67589520  0.08363056  0.56100875  1
  H+  H289  1  0.92065658  0.10109939  0.58376271  1
  H+  H290  1  0.10165674  0.66008145  0.75811463  1
  H+  H291  1  0.06690176  0.62392745  0.66278238  1
  H+  H292  1  0.17002227  0.34665514  0.60206953  1
  H+  H293  1  0.67229526  0.33179354  0.22815761  1
  H+  H294  1  0.08464650  0.15394178  0.12230523  1
  H+  H295  1  0.58657768  0.41947898  0.39162214  1
  H+  H296  1  0.33983927  0.63930284  0.07517501  1
  H+  H297  1  0.11554815  0.22656603  0.34132396  1
  H+  H298  1  0.83379361  0.66186651  0.05068493  1
  H+  H299  1  0.57921082  0.66647961  0.38151727  1
  H+  H300  1  0.67530980  0.09790845  0.93318125  1
  H+  H301  1  0.44080697  0.87087094  0.27462025  1
  H+  H302  1  0.87973715  0.76045686  -0.02428658  1
  H+  H303  1  0.33945496  0.42671222  0.43743420  1
  H+  H304  1  0.81470175  0.64885341  0.43536528  1
  H+  H305  1  0.32191370  0.15558704  0.44664638  1
  H+  H306  1  0.84016189  0.92324425  0.09057631  1
  H+  H307  1  0.60537974  0.93870547  0.74011926  1
  H+  H308  1  0.59030497  0.68066714  0.77041831  1
  H+  H309  1  0.41527392  0.57725963  0.22547393  1
  H+  H310  1  0.66829335  0.57934077  0.23133756  1
  H+  H311  1  0.88856267  0.12891124  0.48987629  1
  H+  H312  1  0.09897282  0.95933560  0.11986839  1
  H+  H313  1  0.17441435  0.33483422  0.27436730  1
  H+  H314  1  0.09082367  0.17838401  0.03201495  1
  H+  H315  1  -0.01771236  0.36900178  0.49856784  1
  H+  H316  1  0.83765051  0.92789114  0.70201715  1
  H+  H317  1  0.57668857  0.41610530  0.72601595  1
  H+  H318  1  0.08421643  0.94826003  0.45591981  1
  H+  H319  1  0.90919705  0.32597312  0.93062287  1
  H+  H320  1  0.14824769  0.13325380  0.19328674  1
  H+  H321  1  0.52812463  0.39275094  0.48020292  1
  H+  H322  1  0.22522083  0.33539192  0.77309562  1
  H+  H323  1  0.15384423  0.76766294  0.65926642  1
  H+  H324  1  0.42073518  0.82770801  0.88079818  1
  H+  H325  1  0.33347713  0.95218684  0.77173657  1
  H+  H326  1  0.06572236  0.39692319  0.05821641  1
  H+  H327  1  0.86241496  0.88365616  0.99304539  1
  H+  H328  1  0.31910786  0.17506630  0.76608687  1
  H+  H329  1  0.15436846  0.10287870  0.61566385  1
  H+  H330  1  0.43497898  0.11648051  0.92523901  1
  H+  H331  1  0.42481497  0.07298789  0.54928113  1
  H+  H332  1  0.83488293  0.15487747  0.75731912  1
  H+  H333  1  0.32021685  0.16336189  0.10747385  1
  H+  H334  1  0.64649580  0.82943365  0.60014079  1
  H+  H335  1  0.84629035  0.65567721  0.72632352  1
  H+  H336  1  0.65551773  0.56879406  0.93078584  1
  H+  H337  1  0.91354337  0.83186627  0.27626454  1
  H+  H338  1  0.67763553  0.83411776  0.25044452  1
  H+  H339  1  0.06130316  0.90150864  0.03776569  1
  H+  H340  1  0.12827686  0.38099047  0.66053362  1
  H+  H341  1  0.91339248  0.56655691  0.91922164  1
  H+  H342  1  0.03156865  0.65945083  0.07322001  1
  H+  H343  1  0.19568678  0.27850157  0.85818849  1
  H+  H344  1  0.63700784  0.33856386  0.98649272  1
  H+  H345  1  0.42090450  0.33891625  0.55820624  1
  H+  H346  1  0.82930918  0.17252672  0.42411765  1
  H+  H347  1  0.15412770  0.82871231  0.57578816  1
  H+  H348  1  0.60743324  0.94628110  0.40012782  1
  H+  H349  1  0.92308946  0.82625338  0.60896967  1
  H+  H350  1  0.92479560  0.07836418  0.92117197  1
  H+  H351  1  0.93277100  0.84220121  0.88539920  1
  H+  H352  1  0.84998499  0.41878440  0.72134393  1
  H+  H353  1  0.92048950  0.53069833  0.65353607  1
  H+  H354  1  0.06392695  0.62772791  0.44985369  1
  H+  H355  1  0.35586485  0.88233113  0.71698611  1
  H+  H356  1  0.29819666  0.84511717  0.11350304  1
  H+  H357  1  0.36922163  0.94230527  0.03882946  1
  H+  H358  1  0.58340361  0.17326176  0.75484966  1
  H+  H359  1  0.73324900  0.03347246  0.62039109  1
  H+  H360  1  0.90475367  0.34186700  0.23873079  1
  H+  H361  1  0.08424033  0.40764331  0.77818636  1
  H+  H362  1  0.01626404  0.61908312  -0.01627015  1
  H+  H363  1  0.92795411  0.34219421  0.59210041  1
  H+  H364  1  0.97321992  0.34510532  0.83909205  1
  H+  H365  1  0.42279644  0.33773778  0.22934594  1
  H+  H366  1  0.34806131  0.94148322  0.46743201  1
  H+  H367  1  0.31972487  0.64044151  0.40185432  1
  H+  H368  1  0.33747202  0.41571007  0.09636471  1
  H+  H369  1  0.59391529  0.16923695  0.42390133  1
  H+  H370  1  0.07695303  0.40255260  0.40403707  1
  H+  H371  1  0.28636164  0.40359303  0.85657162  1
  H+  H372  1  0.58678862  0.40315401  0.06093766  1
  H+  H373  1  0.43495037  0.60990543  0.55822724  1
  H+  H374  1  0.04389503  0.62971345  0.35288868  1
  H+  H375  1  0.02743203  0.39999179  0.66948466  1
  H+  H376  1  0.16574721  0.53590366  0.26385442  1
  H+  H377  1  0.85959733  0.37135376  0.82008278  1
  H+  H378  1  0.57270086  0.15945516  0.07084151  1
  H+  H379  1  0.91685485  0.07917967  0.23576519  1
  H+  H380  1  0.21404001  0.91412856  0.23845597  1
  H+  H381  1  0.56194274  0.56828752  0.44988646  1
  H+  H382  1  0.09425151  0.18241414  0.43598828  1
  H+  H383  1  0.17872087  0.09182681  0.28152627  1
  O2-  O384  1  0.08491563  0.17203199  0.16403137  1
  O2-  O385  1  0.09253462  0.18798155  0.48108836  1
  O2-  O386  1  0.08226488  0.16083654  0.78932685  1
  O2-  O387  1  0.04590722  0.38351213  0.13761343  1
  O2-  O388  1  0.09251007  0.41874815  0.47994321  1
  O2-  O389  1  0.07611877  0.39241100  0.82161148  1
  O2-  O390  1  0.00203912  0.66389343  0.11018332  1
  O2-  O391  1  0.07578622  0.64384616  0.49308324  1
  O2-  O392  1  0.08284782  0.66438556  0.79982509  1
  O2-  O393  1  0.10174836  0.94917030  0.16311630  1
  O2-  O394  1  0.09340480  0.95061850  0.50044945  1
  O2-  O395  1  0.12233063  0.95626316  0.81992288  1
  O2-  O396  1  0.32870701  0.16313120  0.15365374  1
  O2-  O397  1  0.32951338  0.16519066  0.49082836  1
  O2-  O398  1  0.31968908  0.16566916  0.81073461  1
  O2-  O399  1  0.34593701  0.42108322  0.14273320  1
  O2-  O400  1  0.34083601  0.42496273  0.48260388  1
  O2-  O401  1  0.34842275  0.44322277  0.86776623  1
  O2-  O402  1  0.33595452  0.63133712  0.12258657  1
  O2-  O403  1  0.32849973  0.65286496  0.47153170  1
  O2-  O404  1  0.31087342  0.67844068  0.78891987  1
  O2-  O405  1  0.33315519  0.89983478  0.13443262  1
  O2-  O406  1  0.33177837  0.90386744  0.50310711  1
  O2-  O407  1  0.34294514  0.94221281  0.81387953  1
  O2-  O408  1  0.58103788  0.16320134  0.13766310  1
  O2-  O409  1  0.58734474  0.16983651  0.46877229  1
  O2-  O410  1  0.58588227  0.18448852  0.79975683  1
  O2-  O411  1  0.59160465  0.41140992  0.14202867  1
  O2-  O412  1  0.58633685  0.42483949  0.46264571  1
  O2-  O413  1  0.57411121  0.40416856  0.80717426  1
  O2-  O414  1  0.59389360  0.66823704  0.13447791  1
  O2-  O415  1  0.57100128  0.62590766  0.45694079  1
  O2-  O416  1  0.58248618  0.67222889  0.81625977  1
  O2-  O417  1  0.59297144  0.93068125  0.15253480  1
  O2-  O418  1  0.58954581  0.92517485  0.47480619  1
  O2-  O419  1  0.65471948  0.96128968  0.81216118  1
  O2-  O420  1  0.81489707  0.15851419  0.17566218  1
  O2-  O421  1  0.83249938  0.17719818  0.46936173  1
  O2-  O422  1  0.82066492  0.13388803  0.80082088  1
  O2-  O423  1  0.81455142  0.40098144  0.13608131  1
  O2-  O424  1  0.83259400  0.42854665  0.46047902  1
  O2-  O425  1  0.83392471  0.40569079  0.80394827  1
  O2-  O426  1  0.81384608  0.69672448  0.12958060  1
  O2-  O427  1  0.82419251  0.65412196  0.48113772  1
  O2-  O428  1  0.80757143  0.68391408  0.81948924  1
  O2-  O429  1  0.83732938  0.92495784  0.13594470  1
  O2-  O430  1  0.83661756  0.93080283  0.52931571  1
  O2-  O431  1  0.82063930  0.91092086  0.83085565  1
  O2-  O432  1  0.17834743  0.10146669  0.20538667  1
  O2-  O433  1  0.17063011  0.11257859  0.53883694  1
  O2-  O434  1  0.15598475  0.04344338  0.84534377  1
  O2-  O435  1  0.19208248  0.34186284  0.19398271  1
  O2-  O436  1  0.17967021  0.34518725  0.53037064  1
  O2-  O437  1  0.18595742  0.32029285  0.83686146  1
  O2-  O438  1  0.19160796  0.50007654  0.19256323  1
  O2-  O439  1  0.17515354  0.58055385  0.52974061  1
  O2-  O440  1  0.19427035  0.61580356  0.88921974  1
  O2-  O441  1  0.23428020  0.94150576  0.19616356  1
  O2-  O442  1  0.13323724  0.82373008  0.53221470  1
  O2-  O443  1  0.17982137  0.84502086  0.85065788  1
  O2-  O444  1  0.41870149  0.08747983  0.18604298  1
  O2-  O445  1  0.42297519  0.09444488  0.50853860  1
  O2-  O446  1  0.42934558  0.11259418  0.84572062  1
  O2-  O447  1  0.42719317  0.33268191  0.18435031  1
  O2-  O448  1  0.41826602  0.33640144  0.51311037  1
  O2-  O449  1  0.41242609  0.32923103  0.85732427  1
  O2-  O450  1  0.41675921  0.57071309  0.17866754  1
  O2-  O451  1  0.42812889  0.59318065  0.51363206  1
  O2-  O452  1  0.41299079  0.61153227  0.83393202  1
  O2-  O453  1  0.44183571  0.86748230  0.19683082  1
  O2-  O454  1  0.42175108  0.82279459  0.50659856  1
  O2-  O455  1  0.41783431  0.83381195  0.83634785  1
  O2-  O456  1  0.67139667  0.06992253  0.23237731  1
  O2-  O457  1  0.66974893  0.08837170  0.51656297  1
  O2-  O458  1  0.66559188  0.10747068  0.85411601  1
  O2-  O459  1  0.67210110  0.33079770  0.17985756  1
  O2-  O460  1  0.66468277  0.34293289  0.50467022  1
  O2-  O461  1  0.67248608  0.34039715  0.83092081  1
  O2-  O462  1  0.67108717  0.57781627  0.18538430  1
  O2-  O463  1  0.70728561  0.66320908  0.53915149  1
  O2-  O464  1  0.63892580  0.56423283  0.85202307  1
  O2-  O465  1  0.67089783  0.83654702  0.17532852  1
  O2-  O466  1  0.66831042  0.84040074  0.51797474  1
  O2-  O467  1  0.67171923  0.83022394  0.89022106  1
  O2-  O468  1  0.92243754  0.08698176  0.19032970  1
  O2-  O469  1  0.91940014  0.09919975  0.50545760  1
  O2-  O470  1  0.92912053  0.08153268  0.84551062  1
  O2-  O471  1  0.90218286  0.33369097  0.19368947  1
  O2-  O472  1  0.92128224  0.34514800  0.51087306  1
  O2-  O473  1  0.91036279  0.31930083  0.85076750  1
  O2-  O474  1  0.90634581  0.53782359  0.18772801  1
  O2-  O475  1  0.88004400  0.56530271  0.52566955  1
  O2-  O476  1  0.92976434  0.57095366  0.84074931  1
  O2-  O477  1  0.91874535  0.84298456  0.19460236  1
  O2-  O478  1  0.92392254  0.83972528  0.53394992  1
  O2-  O479  1  0.94975777  0.86289074  0.84240071  1
  O2-  O480  1  0.17549405  0.08674779  0.32689987  1
  O2-  O481  1  0.15352603  0.09654739  0.66102340  1
  O2-  O482  1  0.15580018  0.06573042  0.96651355  1
  O2-  O483  1  0.17069841  0.33276060  0.31938915  1
  O2-  O484  1  0.15365255  0.34263043  0.64701093  1
  O2-  O485  1  0.16993119  0.34076767  0.96543657  1
  O2-  O486  1  0.15627354  0.54727790  0.30661868  1
  O2-  O487  1  0.17196306  0.60269093  0.65645146  1
  O2-  O488  1  0.17685115  0.58096789  1.02777608  1
  O2-  O489  1  0.16598565  0.88007562  0.29947801  1
  O2-  O490  1  0.17636448  0.82894229  0.64814760  1
  O2-  O491  1  0.18002601  0.84026941  0.99142868  1
  O2-  O492  1  0.42452175  0.08987998  0.31016565  1
  O2-  O493  1  0.42796435  0.04944231  0.63328553  1
  O2-  O494  1  0.42918867  0.10460591  0.96974024  1
  O2-  O495  1  0.40271533  0.33533104  0.30567009  1
  O2-  O496  1  0.41326983  0.34423894  0.63841750  1
  O2-  O497  1  0.41411606  0.32279270  0.97991426  1
  O2-  O498  1  0.41800634  0.58616991  0.29618621  1
  O2-  O499  1  0.44593923  0.65185222  0.62459175  1
  O2-  O500  1  0.41468278  0.56318571  0.97059219  1
  O2-  O501  1  0.43796401  0.86786166  0.32012173  1
  O2-  O502  1  0.38726243  0.79509746  0.62656075  1
  O2-  O503  1  0.41838695  0.81694934  0.96717316  1
  O2-  O504  1  0.68031495  0.08957265  0.29784232  1
  O2-  O505  1  0.70192213  0.06117533  0.63529967  1
  O2-  O506  1  0.68610381  0.09157995  0.97637914  1
  O2-  O507  1  0.67008005  0.33340315  0.29431545  1
  O2-  O508  1  0.67914216  0.33961119  0.67149369  1
  O2-  O509  1  0.66475999  0.30480170  0.97577004  1
  O2-  O510  1  0.65828316  0.58217264  0.30656869  1
  O2-  O511  1  0.67447753  0.59582789  0.65249877  1
  O2-  O512  1  0.66507402  0.57334461  0.97562667  1
  O2-  O513  1  0.68033782  0.83466046  0.29623556  1
  O2-  O514  1  0.64868919  0.83329048  0.64512817  1
  O2-  O515  1  0.67245826  0.83511282  0.95807528  1
  O2-  O516  1  0.91700692  0.07934687  0.31226421  1
  O2-  O517  1  0.92125500  0.09393261  0.62858476  1
  O2-  O518  1  0.92584776  0.07762700  0.96682786  1
  O2-  O519  1  0.90948659  0.33717411  0.31650662  1
  O2-  O520  1  0.92990001  0.34232260  0.63755769  1
  O2-  O521  1  0.91068750  0.32794688  0.97590420  1
  O2-  O522  1  0.88039038  0.50663684  0.30935352  1
  O2-  O523  1  0.96244887  0.59226243  0.64665190  1
  O2-  O524  1  0.91173767  0.56585308  0.96461066  1
  O2-  O525  1  0.90622997  0.82838404  0.32116629  1
  O2-  O526  1  0.92275289  0.81829779  0.65436775  1
  O2-  O527  1  0.90769215  0.82042098  0.95943215  1
  O2-  O528  1  0.08637266  0.16798601  -0.01148006  1
  O2-  O529  1  0.08306673  0.16654523  0.35740886  1
  O2-  O530  1  0.06286300  0.16297435  0.72491524  1
  O2-  O531  1  0.07441467  0.40768473  0.01385534  1
  O2-  O532  1  0.06900748  0.39391614  0.35883919  1
  O2-  O533  1  0.08664665  0.42736489  0.68798647  1
  O2-  O534  1  0.07431794  0.65333509  0.00322141  1
  O2-  O535  1  0.03834515  0.57635823  0.36840546  1
  O2-  O536  1  0.12711624  0.65874766  0.67962305  1
  O2-  O537  1  0.07561453  0.90642397  -0.00521920  1
  O2-  O538  1  0.07201837  0.93259005  0.37496776  1
  O2-  O539  1  0.10126402  0.92866906  0.69158706  1
  O2-  O540  1  0.30732711  0.17072771  0.03854452  1
  O2-  O541  1  0.34621454  0.16467599  0.36108271  1
  O2-  O542  1  0.31369348  0.18841961  0.68881999  1
  O2-  O543  1  0.32857701  0.40855425  0.02525300  1
  O2-  O544  1  0.33649010  0.42552399  0.35571455  1
  O2-  O545  1  0.25306628  0.34742851  0.72980659  1
  O2-  O546  1  0.33712589  0.64873926  0.00728360  1
  O2-  O547  1  0.31684440  0.63832875  0.35483696  1
  O2-  O548  1  0.27280342  0.63806143  0.67051324  1
  O2-  O549  1  0.35621305  0.93055769  -0.00444831  1
  O2-  O550  1  0.35197890  0.94057788  0.37159260  1
  O2-  O551  1  0.34477630  0.89185196  0.67512066  1
  O2-  O552  1  0.57148655  0.15769712  0.02318254  1
  O2-  O553  1  0.59695807  0.17120830  0.34281240  1
  O2-  O554  1  0.58512717  0.15605677  0.67953063  1
  O2-  O555  1  0.58265177  0.39970106  0.01577058  1
  O2-  O556  1  0.58634692  0.41914116  0.34471605  1
  O2-  O557  1  0.58320870  0.42297501  0.68119827  1
  O2-  O558  1  0.58659059  0.66583231  0.00982224  1
  O2-  O559  1  0.58173687  0.67184135  0.33634167  1
  O2-  O560  1  0.58984282  0.67849832  0.69605607  1
  O2-  O561  1  0.58226300  0.91414291  0.01408890  1
  O2-  O562  1  0.60803978  0.94956982  0.35458980  1
  O2-  O563  1  0.58793108  0.93478522  0.69679955  1
  O2-  O564  1  0.84915604  0.15400976  0.00643620  1
  O2-  O565  1  0.83816720  0.16651294  0.34580946  1
  O2-  O566  1  0.85244717  0.18269198  0.68564495  1
  O2-  O567  1  0.83025658  0.40540258  0.01921928  1
  O2-  O568  1  0.84196633  0.52159080  0.36411418  1
  O2-  O569  1  0.84919762  0.42184782  0.67641834  1
  O2-  O570  1  0.83298675  0.65646137  0.00591459  1
  O2-  O571  1  0.81087949  0.64369064  0.36267172  1
  O2-  O572  1  0.84597134  0.65625196  0.68207364  1
  O2-  O573  1  0.83419023  0.91512654  0.00870834  1
  O2-  O574  1  0.82105838  0.91348609  0.34261602  1
  O2-  O575  1  0.81695382  0.93995319  0.66446391  1
