# generated using pymatgen
data_H2O
_symmetry_space_group_name_H-M   'P 1'
_cell_length_a   17.97218292
_cell_length_b   17.96949156
_cell_length_c   21.98792811
_cell_angle_alpha   90.01937042
_cell_angle_beta   89.99889941
_cell_angle_gamma   119.99737994
_symmetry_Int_Tables_number   1
_chemical_formula_structural   H2O
_chemical_formula_sum   'H384 O192'
_cell_volume   6149.82833880
_cell_formula_units_Z   192
loop_
 _symmetry_equiv_pos_site_id
 _symmetry_equiv_pos_as_xyz
  1  'x, y, z'
loop_
 _atom_type_symbol
 _atom_type_oxidation_number
  H+  1.0
  O2-  -2.0
loop_
 _atom_site_type_symbol
 _atom_site_label
 _atom_site_symmetry_multiplicity
 _atom_site_fract_x
 _atom_site_fract_y
 _atom_site_fract_z
 _atom_site_occupancy
  H+  H0  1  0.36654496  0.38310646  0.83180018  1
  H+  H1  1  0.92045463  0.08703972  0.93551516  1
  H+  H2  1  0.12128481  0.73417146  0.83207384  1
  H+  H3  1  0.10863113  0.38105204  0.49124149  1
  H+  H4  1  0.37994394  0.14067399  0.30664750  1
  H+  H5  1  0.39244884  0.61752978  0.17894891  1
  H+  H6  1  0.38064182  0.23415513  0.67010766  1
  H+  H7  1  0.01884533  0.47663797  0.11772926  1
  H+  H8  1  0.87581859  0.26279096  0.32347988  1
  H+  H9  1  0.86827137  0.09545116  0.65790036  1
  H+  H10  1  0.77629636  0.88514717  0.16273416  1
  H+  H11  1  0.76994761  0.88061664  0.34455781  1
  H+  H12  1  0.10923643  0.13683674  0.16280432  1
  H+  H13  1  0.92404153  0.58516415  0.93930943  1
  H+  H14  1  1.02187301  0.13877820  1.01184096  1
  H+  H15  1  0.50533058  0.59189669  0.02363422  1
  H+  H16  1  0.62737063  0.48519420  0.66290478  1
  H+  H17  1  0.14463109  0.27795756  0.84693397  1
  H+  H18  1  0.63128871  0.84987279  0.33375254  1
  H+  H19  1  0.66327471  0.28090781  1.00090595  1
  H+  H20  1  0.22044408  0.85570568  0.66033896  1
  H+  H21  1  0.47540338  0.86449011  0.67103535  1
  H+  H22  1  0.35719309  0.12446536  1.02021203  1
  H+  H23  1  0.86385160  0.72140468  0.82697937  1
  H+  H24  1  0.63539849  0.84866548  0.17696760  1
  H+  H25  1  0.42597477  0.34715158  0.23155050  1
  H+  H26  1  1.01540794  0.87907665  0.67836925  1
  H+  H27  1  0.11293637  0.97953442  -0.01496720  1
  H+  H28  1  0.77656490  0.63382245  0.01525873  1
  H+  H29  1  0.36411158  0.11395313  0.53036739  1
  H+  H30  1  0.89088132  0.86448392  0.17349706  1
  H+  H31  1  0.97511309  0.10862045  0.17824412  1
  H+  H32  1  0.89309916  0.35687637  0.65392638  1
  H+  H33  1  0.12571869  0.26877863  0.33400001  1
  H+  H34  1  0.77921349  0.63723199  0.17081524  1
  H+  H35  1  0.61277899  0.88986898  0.67966643  1
  H+  H36  1  0.83435262  0.16540909  0.09945033  1
  H+  H37  1  0.63267035  0.39531904  0.17600782  1
  H+  H38  1  0.45152911  0.73878288  0.44894554  1
  H+  H39  1  0.38252559  0.86031330  0.17207356  1
  H+  H40  1  0.39626042  0.78746849  0.51354857  1
  H+  H41  1  0.88432390  0.10885194  0.83842155  1
  H+  H42  1  0.75850590  0.12332797  0.18615110  1
  H+  H43  1  0.10542731  0.46943230  0.49539162  1
  H+  H44  1  0.61180264  0.47224905  0.85719128  1
  H+  H45  1  0.35014257  -0.02504932  0.50007890  1
  H+  H46  1  0.23754559  0.36824197  0.65416557  1
  H+  H47  1  0.86630716  0.64225708  0.49689648  1
  H+  H48  1  0.86296046  0.22021778  0.67137667  1
  H+  H49  1  0.46957042  0.60832016  0.33417235  1
  H+  H50  1  0.26964450  0.63672843  0.67615194  1
  H+  H51  1  0.47397235  0.62320125  0.64400566  1
  H+  H52  1  0.26943632  0.88702021  0.82864127  1
  H+  H53  1  0.63251853  0.26497390  0.84294040  1
  H+  H54  1  0.70413144  0.15006856  0.34492742  1
  H+  H55  1  0.53485575  0.59861438  0.70921570  1
  H+  H56  1  0.97180463  0.87425522  0.50766456  1
  H+  H57  1  0.52846140  0.80096061  0.11647272  1
  H+  H58  1  0.98285067  0.61462824  0.99967966  1
  H+  H59  1  0.62347069  0.76773410  0.66375511  1
  H+  H60  1  0.11638445  0.39001709  1.00625568  1
  H+  H61  1  0.47541818  0.60436814  0.50253256  1
  H+  H62  1  0.82156494  0.65205780  0.40103750  1
  H+  H63  1  0.77135458  0.36184119  0.48303428  1
  H+  H64  1  0.03296322  0.38678716  0.66279841  1
  H+  H65  1  0.87082535  0.22837027  0.15827866  1
  H+  H66  1  0.87994109  0.86811758  0.50666927  1
  H+  H67  1  0.12252197  0.90680344  0.33571475  1
  H+  H68  1  0.75772436  0.37227462  -0.00791132  1
  H+  H69  1  0.26103183  0.38270731  0.33706936  1
  H+  H70  1  0.64584025  0.52403013  0.18321845  1
  H+  H71  1  0.97081182  0.60615775  0.50368765  1
  H+  H72  1  0.64842070  0.62060965  0.85156732  1
  H+  H73  1  0.60925467  0.21870877  0.66867519  1
  H+  H74  1  0.72075089  0.36029114  0.84014930  1
  H+  H75  1  0.22184154  0.11379961  0.31525157  1
  H+  H76  1  0.77069644  0.47126210  0.78088329  1
  H+  H77  1  0.15934359  0.82193059  0.60150372  1
  H+  H78  1  0.88410395  0.85759959  0.83500967  1
  H+  H79  1  0.12826111  0.51198022  0.32563635  1
  H+  H80  1  0.23597716  0.62419494  0.84174037  1
  H+  H81  1  0.09608010  0.13423601  0.50181995  1
  H+  H82  1  0.35275034  0.47206286  0.33638604  1
  H+  H83  1  0.50773150  0.16744328  0.42271377  1
  H+  H84  1  0.13908934  0.51972825  0.66067308  1
  H+  H85  1  0.86440857  0.88968671  1.00752244  1
  H+  H86  1  0.78412626  0.89225601  0.82344320  1
  H+  H87  1  0.01468506  0.87366163  0.84293361  1
  H+  H88  1  0.89260573  1.02894659  -0.00411467  1
  H+  H89  1  0.38096459  0.51988268  0.49624857  1
  H+  H90  1  -0.07184668  0.84724085  0.27061543  1
  H+  H91  1  0.87718006  0.38930371  0.00390121  1
  H+  H92  1  0.37204752  0.48003844  0.66916288  1
  H+  H93  1  0.60910693  0.71849694  0.34212147  1
  H+  H94  1  0.61234122  0.76508784  1.02802693  1
  H+  H95  1  0.44625142  0.82617686  0.90816977  1
  H+  H96  1  0.13968890  0.07764134  0.58317452  1
  H+  H97  1  0.22519160  0.12057711  0.17712569  1
  H+  H98  1  0.13085612  0.26972957  0.50331730  1
  H+  H99  1  0.32477243  0.91609104  0.76816970  1
  H+  H100  1  0.13083613  0.84902422  0.50394402  1
  H+  H101  1  0.83618615  0.66048611  0.76823323  1
  H+  H102  1  0.85737646  0.22438303  0.48560909  1
  H+  H103  1  0.65973537  0.16653648  0.19112365  1
  H+  H104  1  0.71663988  0.85809637  0.51076780  1
  H+  H105  1  0.68154730  0.25154636  0.34342547  1
  H+  H106  1  0.61599825  0.63548877  0.49638562  1
  H+  H107  1  0.10393450  0.22381429  0.16713385  1
  H+  H108  1  0.24340983  0.89688774  0.32222285  1
  H+  H109  1  0.89190179  0.52361148  0.65492857  1
  H+  H110  1  0.11868645  0.64085167  1.01405284  1
  H+  H111  1  0.13447625  0.27410487  1.00189499  1
  H+  H112  1  0.86237855  0.13607343  0.00501522  1
  H+  H113  1  0.51762109  0.87156509  0.34473473  1
  H+  H114  1  0.36227691  0.13662273  0.82260099  1
  H+  H115  1  0.39386958  0.77428310  0.99940360  1
  H+  H116  1  0.36626227  -0.02676464  0.15789754  1
  H+  H117  1  0.27097290  0.38273609  0.01095063  1
  H+  H118  1  0.87681565  0.48048005  1.00562471  1
  H+  H119  1  0.87746752  0.10957348  0.32928557  1
  H+  H120  1  0.37697507  0.76948235  0.32665435  1
  H+  H121  1  0.10673268  0.95733270  0.82677142  1
  H+  H122  1  0.86636904  0.49868732  0.32654542  1
  H+  H123  1  0.27235519  0.13008829  0.03065620  1
  H+  H124  1  0.87634347  0.85617775  0.66321207  1
  H+  H125  1  0.13374246  0.12116950  1.01382056  1
  H+  H126  1  0.85098923  -0.03154727  0.66961554  1
  H+  H127  1  0.36877440  0.63509606  0.82837648  1
  H+  H128  1  0.38064093  0.51656044  0.99071051  1
  H+  H129  1  0.34982062  0.42480115  0.06072256  1
  H+  H130  1  0.35865747  0.88319257  0.67735505  1
  H+  H131  1  0.75436958  0.39003998  0.18671279  1
  H+  H132  1  0.78031860  0.38401726  0.66302714  1
  H+  H133  1  0.51556388  0.12171485  0.32032597  1
  H+  H134  1  0.73267992  0.61254012  0.84781347  1
  H+  H135  1  0.03673967  0.39286670  0.84310516  1
  H+  H136  1  0.63339950  0.15014675  0.01696934  1
  H+  H137  1  0.10579480  0.13649545  0.34150087  1
  H+  H138  1  0.37473780  0.23851469  0.16985051  1
  H+  H139  1  0.58866778  0.42677916  0.72169579  1
  H+  H140  1  0.71494968  0.59381592  0.33803966  1
  H+  H141  1  0.97668961  0.35685916  0.50003722  1
  H+  H142  1  0.47117794  0.35495497  0.85699225  1
  H+  H143  1  0.37638877  0.76754367  0.17657285  1
  H+  H144  1  0.69466629  0.43000557  0.46984952  1
  H+  H145  1  0.12745704  0.63786026  0.82751972  1
  H+  H146  1  0.71409211  0.08110714  0.83292140  1
  H+  H147  1  0.22758055  0.86607404  0.16867732  1
  H+  H148  1  0.67784516  0.59073660  0.59766656  1
  H+  H149  1  0.59791463  0.47354547  0.35177339  1
  H+  H150  1  0.51465760  0.14496197  0.82347585  1
  H+  H151  1  0.66808591  1.04193483  0.20597787  1
  H+  H152  1  0.88976646  0.34989332  0.83784652  1
  H+  H153  1  0.12373715  0.35761714  0.33279582  1
  H+  H154  1  0.49278609  0.36261866  0.50065089  1
  H+  H155  1  0.50304487  0.38387955  0.34708972  1
  H+  H156  1  0.02871703  0.88778978  0.15955396  1
  H+  H157  1  0.13211761  0.02697284  0.32675097  1
  H+  H158  1  0.12334384  0.84267185  0.84764948  1
  H+  H159  1  0.14250774  0.52970631  0.99208562  1
  H+  H160  1  0.11901967  0.73593173  0.16474184  1
  H+  H161  1  0.48656608  0.36263631  0.65379154  1
  H+  H162  1  0.38130054  0.27214304  0.31029023  1
  H+  H163  1  0.37470158  0.39216384  0.67058597  1
  H+  H164  1  0.36508559  0.39037585  0.48375816  1
  H+  H165  1  0.62791010  0.60106972  0.33442118  1
  H+  H166  1  0.27363985  0.63360745  0.16345865  1
  H+  H167  1  0.65673145  0.07823097  0.93481019  1
  H+  H168  1  0.02588194  0.14350542  0.83106651  1
  H+  H169  1  0.11261980  0.72618461  0.67687463  1
  H+  H170  1  0.89609722  0.87279905  0.33085686  1
  H+  H171  1  0.66532909  0.33112289  0.59915852  1
  H+  H172  1  0.33564407  0.21681870  0.51020327  1
  H+  H173  1  0.13709264  0.60873998  0.66366575  1
  H+  H174  1  0.64503568  0.75266628  0.01884375  1
  H+  H175  1  0.21638270  0.60317459  0.32776451  1
  H+  H176  1  0.62868727  0.58222742  1.01125993  1
  H+  H177  1  -0.09004019  0.07799310  0.27179319  1
  H+  H178  1  0.35569282  0.97073810  0.67562084  1
  H+  H179  1  0.22269316  0.35745363  0.49803133  1
  H+  H180  1  0.64171047  0.88000322  0.84580538  1
  H+  H181  1  0.08079043  0.42713701  0.05935835  1
  H+  H182  1  0.88350500  0.77125778  0.99602561  1
  H+  H183  1  0.42214528  0.03749546  0.33240899  1
  H+  H184  1  0.88781866  0.11042744  0.17453562  1
  H+  H185  1  0.37162997  1.00701429  -0.01040581  1
  H+  H186  1  0.89858638  0.53042931  0.17452474  1
  H+  H187  1  0.89348743  0.61686142  0.17907302  1
  H+  H188  1  0.86300013  0.72399014  0.67373177  1
  H+  H189  1  0.02660645  0.89895070  0.33893766  1
  H+  H190  1  0.12155221  0.59483254  0.50800560  1
  H+  H191  1  0.47965795  0.86824564  -0.00054615  1
  H+  H192  1  0.12188899  0.23445504  0.67266820  1
  H+  H193  1  0.08761108  0.67107010  0.07374516  1
  H+  H194  1  -0.02883746  0.36702269  0.17473693  1
  H+  H195  1  0.07612288  0.16819796  0.07519322  1
  H+  H196  1  0.87785623  0.52144557  0.50299997  1
  H+  H197  1  0.35839899  0.63751775  0.67155751  1
  H+  H198  1  0.12191622  0.10915357  0.66744937  1
  H+  H199  1  1.01103602  0.37936828  0.34034509  1
  H+  H200  1  0.86656339  0.63580332  0.67148980  1
  H+  H201  1  0.10204744  0.50226881  0.15566509  1
  H+  H202  1  0.37394538  0.02114500  0.83302772  1
  H+  H203  1  0.63645325  1.02386819  0.65540157  1
  H+  H204  1  0.48585839  0.43621744  0.53304093  1
  H+  H205  1  0.49535764  0.36815532  0.17846949  1
  H+  H206  1  0.09446505  0.61428421  0.34451214  1
  H+  H207  1  0.48494392  0.61303908  0.84210023  1
  H+  H208  1  0.60958398  0.38207038  0.85899596  1
  H+  H209  1  0.11243319  0.14004570  0.82091593  1
  H+  H210  1  0.38640596  0.77341543  0.66933728  1
  H+  H211  1  0.61204767  0.97920544  0.49570654  1
  H+  H212  1  0.85076883  0.49188591  0.82040308  1
  H+  H213  1  0.33765485  0.15681698  0.24979129  1
  H+  H214  1  0.36346288  0.22802484  0.82691769  1
  H+  H215  1  0.45917604  0.09420106  0.98052363  1
  H+  H216  1  0.36823276  0.63563618  0.00855477  1
  H+  H217  1  0.52270979  0.37712440  1.02126377  1
  H+  H218  1  0.08551118  0.91941920  -0.07364565  1
  H+  H219  1  0.13503569  0.85874079  0.98291707  1
  H+  H220  1  0.10101866  0.70828378  0.49268925  1
  H+  H221  1  0.86712217  0.73309570  0.49508980  1
  H+  H222  1  0.75076469  0.91685977  0.99203035  1
  H+  H223  1  0.47473150  0.10811114  0.66363642  1
  H+  H224  1  0.63069911  0.03178111  0.99899652  1
  H+  H225  1  0.86761521  0.63878531  0.01354743  1
  H+  H226  1  0.52133400  0.89434037  0.50465626  1
  H+  H227  1  0.42270954  0.77266019  0.84603899  1
  H+  H228  1  0.21881069  0.84993407  0.50596191  1
  H+  H229  1  0.38082051  0.35191986  0.99949838  1
  H+  H230  1  0.37261941  0.35723689  0.32357111  1
  H+  H231  1  0.73341285  0.11197908  0.28521108  1
  H+  H232  1  0.64633617  0.76723961  0.18012950  1
  H+  H233  1  0.17657548  0.33665636  0.59480634  1
  H+  H234  1  0.39385246  0.65486951  0.48573961  1
  H+  H235  1  0.35513572  0.63236396  0.33830156  1
  H+  H236  1  0.62003470  0.63277709  0.17796923  1
  H+  H237  1  0.87132823  0.10707836  0.50051762  1
  H+  H238  1  0.84205068  0.60975917  0.34407299  1
  H+  H239  1  0.77364042  0.13762015  0.00408595  1
  H+  H240  1  0.11691464  0.01569504  0.66670751  1
  H+  H241  1  0.38249718  0.26348681  0.00697035  1
  H+  H242  1  0.88962506  0.36054047  0.49784790  1
  H+  H243  1  0.48444935  0.62183284  0.18608920  1
  H+  H244  1  0.03048350  0.64477308  0.16768030  1
  H+  H245  1  0.61522166  0.45977006  0.01794664  1
  H+  H246  1  0.76999683  0.13569605  0.67104170  1
  H+  H247  1  0.57892727  0.66099703  0.40244177  1
  H+  H248  1  0.89457524  0.61815042  0.84268355  1
  H+  H249  1  0.12379279  0.39224166  0.66382350  1
  H+  H250  1  0.73585228  0.61666301  0.65938621  1
  H+  H251  1  0.39396578  0.10879356  0.17706884  1
  H+  H252  1  0.62867591  0.92241244  1.00707721  1
  H+  H253  1  0.89176042  0.77608252  0.17804771  1
  H+  H254  1  0.63564615  0.12038668  0.50199610  1
  H+  H255  1  0.00323626  0.60919785  0.34737021  1
  H+  H256  1  -0.02933810  0.86051723  -0.01773919  1
  H+  H257  1  0.14437684  0.62574875  0.17851316  1
  H+  H258  1  0.35962250  0.89131909  0.50103554  1
  H+  H259  1  0.12514019  0.35543716  0.18167894  1
  H+  H260  1  0.37362234  0.89582344  0.34214734  1
  H+  H261  1  0.41498985  0.41528900  0.14829180  1
  H+  H262  1  0.37818064  0.13705847  0.67508043  1
  H+  H263  1  0.22814492  0.11168701  0.81670698  1
  H+  H264  1  0.84908491  0.20704502  0.82676890  1
  H+  H265  1  0.98102057  0.36143559  0.98973617  1
  H+  H266  1  0.62049211  0.63071445  0.67272913  1
  H+  H267  1  0.45300016  0.11944825  0.51151841  1
  H+  H268  1  0.25163203  0.13775672  0.53644377  1
  H+  H269  1  0.12257370  0.02933997  0.51640800  1
  H+  H270  1  0.40466226  0.49932362  0.15247079  1
  H+  H271  1  0.13862881  0.86850069  0.16875696  1
  H+  H272  1  0.56162014  0.24955810  0.46224559  1
  H+  H273  1  -0.02063446  0.60958892  0.84153041  1
  H+  H274  1  0.59844947  0.93905199  0.73551948  1
  H+  H275  1  0.86404171  0.97558883  0.16383564  1
  H+  H276  1  0.86967260  0.38673275  0.16168891  1
  H+  H277  1  0.23560639  0.36554615  0.84691614  1
  H+  H278  1  0.60969113  0.72185910  0.49888058  1
  H+  H279  1  0.27021002  0.87755957  1.00180679  1
  H+  H280  1  0.65801640  0.52858809  0.50939020  1
  H+  H281  1  0.61361964  0.73510590  0.83781600  1
  H+  H282  1  0.15773221  0.57064121  0.56609178  1
  H+  H283  1  0.64191264  0.36638486  0.65734316  1
  H+  H284  1  0.12724179  0.39829960  0.85075537  1
  H+  H285  1  0.56413086  0.16873909  0.05013917  1
  H+  H286  1  0.84927844  0.97139310  0.49558074  1
  H+  H287  1  0.89450586  0.02618800  0.83861246  1
  H+  H288  1  0.33978346  0.66880178  0.77058297  1
  H+  H289  1  0.39613757  0.52271322  0.84045996  1
  H+  H290  1  0.17811396  0.97362847  0.46908832  1
  H+  H291  1  0.17567088  0.59737977  0.93759363  1
  H+  H292  1  0.90684094  0.56918052  0.27249488  1
  H+  H293  1  0.34501515  0.16104193  0.41625201  1
  H+  H294  1  0.91137124  0.32630241  0.23477676  1
  H+  H295  1  0.07144897  0.16167957  0.43799715  1
  H+  H296  1  0.33476126  0.91333499  0.09794828  1
  H+  H297  1  0.85591283  0.97310514  0.34562990  1
  H+  H298  1  0.55808053  0.93074233  0.83758148  1
  H+  H299  1  0.43376427  0.07859805  0.22853526  1
  H+  H300  1  0.42187701  0.58312252  0.93583962  1
  H+  H301  1  0.82400425  0.16345644  0.42561428  1
  H+  H302  1  0.87097688  0.35062014  0.32273964  1
  H+  H303  1  0.30271069  0.11979989  0.41924441  1
  H+  H304  1  0.56805054  0.38467355  0.41998485  1
  H+  H305  1  0.15140202  0.32523247  0.24136514  1
  H+  H306  1  0.34850142  0.17686365  0.73740130  1
  H+  H307  1  0.63009392  0.18525138  0.39638554  1
  H+  H308  1  0.11524875  0.97653057  0.15807384  1
  H+  H309  1  0.34145905  0.41602463  0.77095527  1
  H+  H310  1  0.28100995  0.63972107  0.00918771  1
  H+  H311  1  0.40824315  0.58123976  0.58980805  1
  H+  H312  1  0.40173384  0.31630551  0.90922404  1
  H+  H313  1  0.67070145  0.57913094  0.94718486  1
  H+  H314  1  0.84012555  0.92195338  0.06911415  1
  H+  H315  1  0.91306814  0.32068897  0.89943660  1
  H+  H316  1  0.90181045  0.82309626  0.89825406  1
  H+  H317  1  0.16754786  0.07437831  0.87274953  1
  H+  H318  1  0.64271337  0.19908031  0.12910867  1
  H+  H319  1  0.48195860  0.40468359  0.75973023  1
  H+  H320  1  0.68028557  0.88081541  0.93822952  1
  H+  H321  1  0.96125652  0.10905519  0.50449330  1
  H+  H322  1  0.10447053  0.88252287  0.67682570  1
  H+  H323  1  0.08809972  0.18237624  0.73432050  1
  H+  H324  1  0.41332739  0.58260022  0.27337649  1
  H+  H325  1  0.57647334  0.90205737  0.40427236  1
  H+  H326  1  0.16512660  0.58131646  0.23520438  1
  H+  H327  1  0.83614455  0.66666100  0.10972749  1
  H+  H328  1  0.14550562  0.53405816  0.84974637  1
  H+  H329  1  0.19694690  0.13246247  0.96159075  1
  H+  H330  1  0.08922668  0.66768570  0.76441378  1
  H+  H331  1  0.91987015  0.58561630  0.59766947  1
  H+  H332  1  0.76413620  0.87735091  0.67725643  1
  H+  H333  1  0.33397327  0.67139404  0.39554343  1
  H+  H334  1  0.89074038  0.06374669  0.59614823  1
  H+  H335  1  0.33505051  0.66340076  0.10430255  1
  H+  H336  1  0.13236270  0.76829927  0.99752313  1
  H+  H337  1  0.68531041  0.32781356  0.92908655  1
  H+  H338  1  0.82013753  0.40313811  0.41988715  1
  H+  H339  1  0.17032190  0.33317454  0.94171240  1
  H+  H340  1  0.66926888  0.57805497  0.24487663  1
  H+  H341  1  0.60424579  0.68185770  0.77719805  1
  H+  H342  1  0.73795700  0.62338929  0.50670754  1
  H+  H343  1  0.15777127  0.08474814  0.23161488  1
  H+  H344  1  0.50508308  0.45264403  0.76252505  1
  H+  H345  1  0.90901121  0.83091556  0.60326888  1
  H+  H346  1  0.62800514  0.85915410  0.51201851  1
  H+  H347  1  0.57900636  0.64448835  0.11756932  1
  H+  H348  1  0.83606436  0.91656894  0.76096174  1
  H+  H349  1  0.83569499  0.42025090  0.72231345  1
  H+  H350  1  0.34545074  0.92883845  0.40069321  1
  H+  H351  1  0.66667350  0.82563151  0.27371199  1
  H+  H352  1  0.33953087  0.16573576  0.11851168  1
  H+  H353  1  0.02316456  0.63653364  0.67787593  1
  H+  H354  1  0.82164949  0.90951793  0.43748732  1
  H+  H355  1  0.07119837  0.41017668  0.40037613  1
  H+  H356  1  0.41217747  0.83243210  0.26963991  1
  H+  H357  1  0.57765936  0.17272753  0.76640474  1
  H+  H358  1  0.65435828  0.82676468  0.60441483  1
  H+  H359  1  0.32778239  0.41272408  0.42437812  1
  H+  H360  1  0.40860877  0.07988405  0.60685811  1
  H+  H361  1  0.09968676  0.93089735  0.42442937  1
  H+  H362  1  0.67327345  0.29925074  0.19848769  1
  H+  H363  1  0.91654330  0.32323893  0.59419180  1
  H+  H364  1  0.01464716  0.13295339  0.34311396  1
  H+  H365  1  0.66569338  0.08481380  0.59586988  1
  H+  H366  1  0.72535667  0.12120417  0.49764680  1
  H+  H367  1  0.36199123  0.88102084  0.00188708  1
  H+  H368  1  0.42384569  0.33211731  0.59722870  1
  H+  H369  1  0.60893412  0.12969824  0.66896867  1
  H+  H370  1  0.72628430  0.36321758  0.28584126  1
  H+  H371  1  0.82387269  0.15313851  0.76512712  1
  H+  H372  1  0.41410229  0.83894849  0.57698453  1
  H+  H373  1  0.50131589  0.85263023  0.15955303  1
  H+  H374  1  0.57860338  0.91881014  0.06900907  1
  H+  H375  1  0.50099369  0.53070377  0.07562408  1
  H+  H376  1  0.56015574  0.81176594  0.87570753  1
  H+  H377  1  0.39955992  0.07936186  0.89299241  1
  H+  H378  1  0.15929601  0.81091807  0.90309361  1
  H+  H379  1  0.18057198  0.86050260  0.26469367  1
  H+  H380  1  0.84488965  0.42045103  0.10105773  1
  H+  H381  1  0.88987218  0.27190357  0.99391132  1
  H+  H382  1  0.59534635  0.41298322  0.11314794  1
  H+  H383  1  0.06680122  0.64400134  0.43441568  1
  O2-  O384  1  0.07464691  0.16397393  0.14942274  1
  O2-  O385  1  0.06762873  0.16484623  0.48319978  1
  O2-  O386  1  0.08697500  0.17762009  0.81734403  1
  O2-  O387  1  0.05417499  0.45262570  0.13141997  1
  O2-  O388  1  0.07551058  0.40884714  0.47698161  1
  O2-  O389  1  0.09878581  0.43329821  0.84603536  1
  O2-  O390  1  0.09038192  0.67378564  0.15064070  1
  O2-  O391  1  0.06714698  0.64672507  0.48121795  1
  O2-  O392  1  0.09241230  0.66706254  0.81205139  1
  O2-  O393  1  0.08862453  0.91647510  0.14361676  1
  O2-  O394  1  0.11581852  0.93553911  0.47003829  1
  O2-  O395  1  0.07883951  0.90176385  0.84865546  1
  O2-  O396  1  0.33999732  0.17420445  0.16364023  1
  O2-  O397  1  0.31660152  0.16974818  0.53896848  1
  O2-  O398  1  0.33595407  0.17090426  0.80474124  1
  O2-  O399  1  0.41074567  0.45991190  0.12358573  1
  O2-  O400  1  0.33020460  0.41582441  0.47044745  1
  O2-  O401  1  0.34076779  0.41762635  0.81615903  1
  O2-  O402  1  0.33515430  0.66447673  0.14988759  1
  O2-  O403  1  0.39409862  0.70582947  0.46647626  1
  O2-  O404  1  0.34180991  0.66976627  0.81609462  1
  O2-  O405  1  0.33472583  0.91176558  0.14313543  1
  O2-  O406  1  0.32612975  0.91638520  0.48248488  1
  O2-  O407  1  0.32805595  0.92364058  0.81327576  1
  O2-  O408  1  0.63621295  0.20078588  0.17327419  1
  O2-  O409  1  0.54807838  0.18869167  0.45688020  1
  O2-  O410  1  0.57560253  0.18038140  0.81085824  1
  O2-  O411  1  0.59759606  0.41939060  0.15893838  1
  O2-  O412  1  0.56979764  0.35389382  0.46617896  1
  O2-  O413  1  0.57888695  0.41124690  0.84413310  1
  O2-  O414  1  0.58945520  0.66278667  0.16118157  1
  O2-  O415  1  0.58092720  0.66142356  0.48296537  1
  O2-  O416  1  0.59794919  0.67683518  0.82175989  1
  O2-  O417  1  0.55270149  0.85659404  0.13678477  1
  O2-  O418  1  0.57991394  0.91648698  0.48689331  1
  O2-  O419  1  0.61667382  0.96396238  0.81936356  1
  O2-  O420  1  0.83979973  0.16653373  0.14486376  1
  O2-  O421  1  0.82169839  0.16313947  0.47178302  1
  O2-  O422  1  0.81965838  0.14722956  0.81082574  1
  O2-  O423  1  0.84937284  0.42604125  0.14604450  1
  O2-  O424  1  0.82462117  0.40916036  0.46720594  1
  O2-  O425  1  0.80306642  0.44461087  0.79588349  1
  O2-  O426  1  0.83948618  0.66723013  0.15500564  1
  O2-  O427  1  0.83454073  0.67160661  0.48253758  1
  O2-  O428  1  0.83713497  0.65964794  0.81383553  1
  O2-  O429  1  0.83595683  0.91634658  0.14595590  1
  O2-  O430  1  0.81999965  0.90899207  0.48343281  1
  O2-  O431  1  0.84247659  0.91886154  0.80756702  1
  O2-  O432  1  0.16267424  0.08802261  0.18607550  1
  O2-  O433  1  0.14528611  0.08637754  0.53514897  1
  O2-  O434  1  0.16583566  0.07687218  0.82863445  1
  O2-  O435  1  0.15092845  0.32216140  0.19571269  1
  O2-  O436  1  0.16461755  0.33142616  0.51662788  1
  O2-  O437  1  0.17709352  0.33690003  0.86530417  1
  O2-  O438  1  0.16941016  0.58831852  0.18932534  1
  O2-  O439  1  0.15193738  0.56404134  0.52126036  1
  O2-  O440  1  0.17511575  0.59916639  0.85640059  1
  O2-  O441  1  0.16824046  0.83711926  0.18556146  1
  O2-  O442  1  0.15819829  0.81750727  0.52102599  1
  O2-  O443  1  0.15483330  0.81015815  0.85668470  1
  O2-  O444  1  0.41963902  0.07239956  0.18485670  1
  O2-  O445  1  0.39759667  0.08203061  0.53183337  1
  O2-  O446  1  0.40386748  0.08350132  0.84806675  1
  O2-  O447  1  0.43186976  0.34298347  0.18655873  1
  O2-  O448  1  0.45079952  0.37552839  0.52272592  1
  O2-  O449  1  0.40722449  0.32152356  0.86372055  1
  O2-  O450  1  0.42194082  0.58792508  0.19679164  1
  O2-  O451  1  0.41334257  0.57918139  0.51421292  1
  O2-  O452  1  0.42408455  0.58345636  0.85565378  1
  O2-  O453  1  0.41066321  0.82887983  0.19024665  1
  O2-  O454  1  0.41604274  0.84517788  0.53154222  1
  O2-  O455  1  0.46994851  0.82259835  0.86780304  1
  O2-  O456  1  0.70850438  0.10147958  0.21655922  1
  O2-  O457  1  0.66494828  0.09004526  0.51571987  1
  O2-  O458  1  0.65423278  0.04805477  0.85078420  1
  O2-  O459  1  0.69998681  0.36165370  0.21069462  1
  O2-  O460  1  0.64805520  0.42061987  0.49798225  1
  O2-  O461  1  0.66951001  0.32309842  0.86534127  1
  O2-  O462  1  0.67406940  0.58430521  0.19935052  1
  O2-  O463  1  0.67603097  0.58818895  0.52188447  1
  O2-  O464  1  0.67517353  0.58766352  0.86748670  1
  O2-  O465  1  0.67382135  0.82886193  0.19370921  1
  O2-  O466  1  0.65612599  0.82638920  0.52684235  1
  O2-  O467  1  0.62139255  0.82609481  0.86919738  1
  O2-  O468  1  0.91377859  0.07794839  0.19279008  1
  O2-  O469  1  0.89924375  0.07515662  0.51666013  1
  O2-  O470  1  0.91991129  0.08516985  0.85568002  1
  O2-  O471  1  0.91168305  0.32667214  0.18847022  1
  O2-  O472  1  0.91432167  0.32611387  0.51398406  1
  O2-  O473  1  0.91356699  0.31569822  0.85387149  1
  O2-  O474  1  0.92658219  0.58866682  0.19324955  1
  O2-  O475  1  0.90949006  0.58014431  0.52014943  1
  O2-  O476  1  0.92036623  0.58290289  0.85799982  1
  O2-  O477  1  0.92357364  0.83777612  0.19019893  1
  O2-  O478  1  0.91272505  0.83937722  0.52195588  1
  O2-  O479  1  0.90865035  0.82311517  0.85279615  1
  O2-  O480  1  0.15927990  0.08778309  0.30936348  1
  O2-  O481  1  0.14544487  0.07418103  0.64828127  1
  O2-  O482  1  0.17134740  0.09735584  0.99768924  1
  O2-  O483  1  0.15631329  0.32913378  0.31782332  1
  O2-  O484  1  0.17712389  0.33895293  0.64020106  1
  O2-  O485  1  0.16668786  0.33494470  0.98736832  1
  O2-  O486  1  0.15775736  0.57213493  0.30944914  1
  O2-  O487  1  0.17102471  0.58336328  0.64808634  1
  O2-  O488  1  0.17419090  0.59271663  0.98285216  1
  O2-  O489  1  0.18316737  0.87220094  0.30905557  1
  O2-  O490  1  0.15913263  0.82255123  0.64691726  1
  O2-  O491  1  0.16474093  0.82497828  0.97557642  1
  O2-  O492  1  0.45340456  0.09810417  0.31594011  1
  O2-  O493  1  0.41184624  0.08109149  0.65267880  1
  O2-  O494  1  0.39743575  0.06923532  0.97522425  1
  O2-  O495  1  0.41143368  0.33612446  0.30843512  1
  O2-  O496  1  0.42449448  0.32881269  0.64251067  1
  O2-  O497  1  0.41127585  0.32052881  0.98670420  1
  O2-  O498  1  0.40874099  0.57951371  0.31894783  1
  O2-  O499  1  0.41256455  0.58562800  0.63562091  1
  O2-  O500  1  0.41585022  0.57951870  0.98104276  1
  O2-  O501  1  0.41164043  0.83140386  0.31502057  1
  O2-  O502  1  0.41569828  0.83457045  0.65469308  1
  O2-  O503  1  0.42009580  0.83378231  0.98233303  1
  O2-  O504  1  0.73586691  0.11522849  0.33216965  1
  O2-  O505  1  0.66515850  0.08486760  0.64120859  1
  O2-  O506  1  0.66283498  0.09022290  0.97902964  1
  O2-  O507  1  0.72564927  0.35069512  0.33068393  1
  O2-  O508  1  0.66896510  0.33198111  0.64342490  1
  O2-  O509  1  0.69432777  0.33651073  0.97696641  1
  O2-  O510  1  0.65282156  0.56495212  0.32143187  1
  O2-  O511  1  0.67473134  0.58693606  0.64354209  1
  O2-  O512  1  0.67255898  0.57135332  0.99194308  1
  O2-  O513  1  0.66466217  0.82165902  0.31895778  1
  O2-  O514  1  0.65406114  0.82784271  0.65025153  1
  O2-  O515  1  0.70424764  0.92261322  0.97186594  1
  O2-  O516  1  0.90924597  0.07879911  0.31727709  1
  O2-  O517  1  0.88575893  0.05539369  0.64090473  1
  O2-  O518  1  0.92089198  0.08994688  0.98097287  1
  O2-  O519  1  0.90665542  0.32440678  0.30833406  1
  O2-  O520  1  0.91909673  0.32267044  0.63957392  1
  O2-  O521  1  0.91913250  0.33155502  0.97647731  1
  O2-  O522  1  0.89907310  0.56207765  0.31735084  1
  O2-  O523  1  0.92089755  0.58559678  0.64345387  1
  O2-  O524  1  0.92195847  0.58243917  0.98454388  1
  O2-  O525  1  0.93405681  0.85165749  0.31561490  1
  O2-  O526  1  0.90574354  0.82458934  0.64829300  1
  O2-  O527  1  0.90725496  0.82882237  0.97583662  1
  O2-  O528  1  0.08156827  0.16875404  0.02927058  1
  O2-  O529  1  0.07506196  0.16512742  0.35889167  1
  O2-  O530  1  0.09036220  0.17571080  0.68997116  1
  O2-  O531  1  0.08450540  0.42179351  0.01458940  1
  O2-  O532  1  0.07195731  0.40954796  0.35455710  1
  O2-  O533  1  0.09260353  0.42204979  0.67764626  1
  O2-  O534  1  0.08555403  0.66896726  0.02781944  1
  O2-  O535  1  0.06257614  0.63939072  0.36426394  1
  O2-  O536  1  0.08227188  0.66661825  0.69588870  1
  O2-  O537  1  0.08394341  0.91862983  -0.02813543  1
  O2-  O538  1  0.08914319  0.93279261  0.35471108  1
  O2-  O539  1  0.07459548  0.91078196  0.69485996  1
  O2-  O540  1  0.33435377  0.15780113  0.04147465  1
  O2-  O541  1  0.34113300  0.16238991  0.29434030  1
  O2-  O542  1  0.35270900  0.17493122  0.69012581  1
  O2-  O543  1  0.33482734  0.41328256  0.01650182  1
  O2-  O544  1  0.32296470  0.41050600  0.35003979  1
  O2-  O545  1  0.34516094  0.42167903  0.68745414  1
  O2-  O546  1  0.34095426  0.66828219  0.02545185  1
  O2-  O547  1  0.32319978  0.66242163  0.35117140  1
  O2-  O548  1  0.33129966  0.66774283  0.69117917  1
  O2-  O549  1  0.33104646  0.91157797  0.01606772  1
  O2-  O550  1  0.35458883  0.93683123  0.35602245  1
  O2-  O551  1  0.32375946  0.91010666  0.68973255  1
  O2-  O552  1  0.62503599  0.19382406  0.04088980  1
  O2-  O553  1  0.64932416  0.18712697  0.35415509  1
  O2-  O554  1  0.57708476  0.15897495  0.68407411  1
  O2-  O555  1  0.58147190  0.40324285  0.03815519  1
  O2-  O556  1  0.55977781  0.41310836  0.36874596  1
  O2-  O557  1  0.59503532  0.42327176  0.67768731  1
  O2-  O558  1  0.54302218  0.58211608  0.05200972  1
  O2-  O559  1  0.57533079  0.65743938  0.35726565  1
  O2-  O560  1  0.58224632  0.65094701  0.69193266  1
  O2-  O561  1  0.58211920  0.93291781  0.02506152  1
  O2-  O562  1  0.57726610  0.89450036  0.35977041  1
  O2-  O563  1  0.58627859  0.92513208  0.69185364  1
  O2-  O564  1  0.83315080  0.16759600  0.02067358  1
  O2-  O565  1  0.82770848  0.16458230  0.35045556  1
  O2-  O566  1  0.82870487  0.16106726  0.68888949  1
  O2-  O567  1  0.84537960  0.41850001  0.01956407  1
  O2-  O568  1  0.81735239  0.39517643  0.34979449  1
  O2-  O569  1  0.84074803  0.41562194  0.67784222  1
  O2-  O570  1  0.83814359  0.66957237  0.02844669  1
  O2-  O571  1  0.80897839  0.63778847  0.35751618  1
  O2-  O572  1  0.83396789  0.66265189  0.68896470  1
  O2-  O573  1  0.84267350  0.92717778  0.02355874  1
  O2-  O574  1  0.82940728  0.91324012  0.36175553  1
  O2-  O575  1  0.82534997  0.90825162  0.68992957  1
